MODEL 1
REMARK VINA RESULT:      -8.3      0.000      0.000
REMARK  Name = 
REMARK  9 active torsions:
REMARK  status: ('A' for Active; 'I' for Inactive)
REMARK    1  A    between atoms: C_1  and  O_2
REMARK    2  A    between atoms: O_2  and  C_3
REMARK    3  A    between atoms: C_7  and  N_8
REMARK    4  A    between atoms: C_9  and  C_11
REMARK    5  A    between atoms: C_11  and  C_12
REMARK    6  A    between atoms: C_14  and  C_15
REMARK    7  A    between atoms: N_17  and  C_18
REMARK    8  A    between atoms: C_18  and  C_19
REMARK    9  A    between atoms: C_22  and  C_23
REMARK                            x       y       z     vdW  Elec       q    Type
REMARK                         _______ _______ _______ _____ _____    ______ ____
ROOT
ATOM      1  C   UNL     1       2.191   6.281  20.077  0.00  0.00    +0.000 A 
ATOM      2  C   UNL     1       3.406   6.736  19.564  0.00  0.00    +0.000 A 
ATOM      3  N   UNL     1       4.233   5.654  19.496  0.00  0.00    +0.000 N 
ATOM      4  C   UNL     1       3.473   4.504  19.361  0.00  0.00    +0.000 A 
ATOM      5  C   UNL     1       3.911   3.263  18.876  0.00  0.00    +0.000 A 
ATOM      6  C   UNL     1       3.266   2.827  17.735  0.00  0.00    +0.000 A 
ATOM      7  C   UNL     1       2.097   3.511  17.318  0.00  0.00    +0.000 A 
ATOM      8  C   UNL     1       1.503   4.535  18.100  0.00  0.00    +0.000 A 
ATOM      9  C   UNL     1       2.165   5.037  19.273  0.00  0.00    +0.000 A 
ENDROOT
BRANCH   1  11
ATOM     10  C   UNL     1       0.852   8.526  20.964  0.00  0.00    +0.000 C 
ATOM     11  C   UNL     1       1.477   7.294  20.918  0.00  0.00    +0.000 C 
BRANCH  10  13
ATOM     12  N   UNL     1       0.985  10.949  20.345  0.00  0.00    +0.000 N 
ATOM     13  C   UNL     1       1.047   9.627  19.934  0.00  0.00    +0.000 C 
ATOM     14  O   UNL     1       1.189   9.275  18.764  0.00  0.00    +0.000 OA
ATOM     15  H   UNL     1       0.838  11.140  21.326  0.00  0.00    +0.000 HD
BRANCH  12  20
ATOM     16  C   UNL     1       0.580  14.423  19.041  0.00  0.00    +0.000 A 
ATOM     17  C   UNL     1       1.656  14.544  18.177  0.00  0.00    +0.000 A 
ATOM     18  C   UNL     1       2.478  13.450  17.949  0.00  0.00    +0.000 A 
ATOM     19  C   UNL     1       2.252  12.241  18.618  0.00  0.00    +0.000 A 
ATOM     20  C   UNL     1       1.195  12.105  19.528  0.00  0.00    +0.000 A 
ATOM     21  C   UNL     1       0.323  13.197  19.689  0.00  0.00    +0.000 A 
BRANCH  16  23
ATOM     22  C   UNL     1       0.280  16.703  18.472  0.00  0.00    +0.000 C 
ATOM     23  O   UNL     1      -0.164  15.564  19.199  0.00  0.00    +0.000 OA
ENDBRANCH  16  23
ENDBRANCH  12  20
ENDBRANCH  10  13
BRANCH  10  24
ATOM     24  C   UNL     1       0.542   9.056  22.354  0.00  0.00    +0.000 C 
ATOM     25  N   UNL     1       0.286   9.497  23.508  0.00  0.00    +0.000 NA
ENDBRANCH  10  24
ENDBRANCH   1  11
BRANCH   3  26
ATOM     26  C   UNL     1       5.661   5.724  19.187  0.00  0.00    +0.000 C 
BRANCH  26  27
ATOM     27  C   UNL     1       5.893   5.445  17.736  0.00  0.00    +0.000 A 
ATOM     28  C   UNL     1       5.128   6.063  16.746  0.00  0.00    +0.000 A 
ATOM     29  C   UNL     1       5.341   5.772  15.402  0.00  0.00    +0.000 A 
ATOM     30  C   UNL     1       6.333   4.861  15.024  0.00  0.00    +0.000 A 
ATOM     31  C   UNL     1       6.603   4.549  13.579  0.00  0.00    +0.000 C 
ATOM     32  C   UNL     1       7.089   4.226  16.009  0.00  0.00    +0.000 A 
ATOM     33  C   UNL     1       6.866   4.509  17.355  0.00  0.00    +0.000 A 
ENDBRANCH  26  27
ENDBRANCH   3  26
TORSDOF 7
ENDMDL
MODEL 2
REMARK VINA RESULT:      -8.1      3.125      3.771
REMARK  Name = 
REMARK  9 active torsions:
REMARK  status: ('A' for Active; 'I' for Inactive)
REMARK    1  A    between atoms: C_1  and  O_2
REMARK    2  A    between atoms: O_2  and  C_3
REMARK    3  A    between atoms: C_7  and  N_8
REMARK    4  A    between atoms: C_9  and  C_11
REMARK    5  A    between atoms: C_11  and  C_12
REMARK    6  A    between atoms: C_14  and  C_15
REMARK    7  A    between atoms: N_17  and  C_18
REMARK    8  A    between atoms: C_18  and  C_19
REMARK    9  A    between atoms: C_22  and  C_23
REMARK                            x       y       z     vdW  Elec       q    Type
REMARK                         _______ _______ _______ _____ _____    ______ ____
ROOT
ATOM      1  C   UNL     1       2.888   7.396  18.270  0.00  0.00    +0.000 A 
ATOM      2  C   UNL     1       4.070   7.034  17.622  0.00  0.00    +0.000 A 
ATOM      3  N   UNL     1       4.542   5.924  18.258  0.00  0.00    +0.000 N 
ATOM      4  C   UNL     1       3.483   5.242  18.836  0.00  0.00    +0.000 A 
ATOM      5  C   UNL     1       3.469   3.896  19.228  0.00  0.00    +0.000 A 
ATOM      6  C   UNL     1       2.536   3.112  18.577  0.00  0.00    +0.000 A 
ATOM      7  C   UNL     1       1.546   3.754  17.793  0.00  0.00    +0.000 A 
ATOM      8  C   UNL     1       1.406   5.166  17.762  0.00  0.00    +0.000 A 
ATOM      9  C   UNL     1       2.378   6.012  18.399  0.00  0.00    +0.000 A 
ENDROOT
BRANCH   1  11
ATOM     10  C   UNL     1       1.707   9.891  18.279  0.00  0.00    +0.000 C 
ATOM     11  C   UNL     1       2.642   8.873  18.289  0.00  0.00    +0.000 C 
BRANCH  10  13
ATOM     12  N   UNL     1      -0.601  10.801  17.943  0.00  0.00    +0.000 N 
ATOM     13  C   UNL     1       0.271   9.733  17.809  0.00  0.00    +0.000 C 
ATOM     14  O   UNL     1      -0.057   8.625  17.385  0.00  0.00    +0.000 OA
ATOM     15  H   UNL     1      -0.245  11.666  18.327  0.00  0.00    +0.000 HD
BRANCH  12  20
ATOM     16  C   UNL     1      -4.263  11.525  18.008  0.00  0.00    +0.000 A 
ATOM     17  C   UNL     1      -4.645  11.243  16.707  0.00  0.00    +0.000 A 
ATOM     18  C   UNL     1      -3.715  10.727  15.816  0.00  0.00    +0.000 A 
ATOM     19  C   UNL     1      -2.386  10.532  16.212  0.00  0.00    +0.000 A 
ATOM     20  C   UNL     1      -1.965  10.848  17.510  0.00  0.00    +0.000 A 
ATOM     21  C   UNL     1      -2.935  11.294  18.425  0.00  0.00    +0.000 A 
BRANCH  16  23
ATOM     22  C   UNL     1      -6.566  12.025  18.248  0.00  0.00    +0.000 C 
ATOM     23  O   UNL     1      -5.256  12.034  18.803  0.00  0.00    +0.000 OA
ENDBRANCH  16  23
ENDBRANCH  12  20
ENDBRANCH  10  13
BRANCH  10  24
ATOM     24  C   UNL     1       2.259  11.290  18.057  0.00  0.00    +0.000 C 
ATOM     25  N   UNL     1       2.715  12.451  17.873  0.00  0.00    +0.000 NA
ENDBRANCH  10  24
ENDBRANCH   1  11
BRANCH   3  26
ATOM     26  C   UNL     1       5.855   5.328  18.015  0.00  0.00    +0.000 C 
BRANCH  26  27
ATOM     27  C   UNL     1       5.971   4.890  16.589  0.00  0.00    +0.000 A 
ATOM     28  C   UNL     1       5.030   4.035  16.014  0.00  0.00    +0.000 A 
ATOM     29  C   UNL     1       5.168   3.618  14.693  0.00  0.00    +0.000 A 
ATOM     30  C   UNL     1       6.247   4.059  13.920  0.00  0.00    +0.000 A 
ATOM     31  C   UNL     1       6.405   3.647  12.484  0.00  0.00    +0.000 C 
ATOM     32  C   UNL     1       7.200   4.901  14.494  0.00  0.00    +0.000 A 
ATOM     33  C   UNL     1       7.068   5.307  15.821  0.00  0.00    +0.000 A 
ENDBRANCH  26  27
ENDBRANCH   3  26
TORSDOF 7
ENDMDL
MODEL 3
REMARK VINA RESULT:      -8.0      2.987      3.312
REMARK  Name = 
REMARK  9 active torsions:
REMARK  status: ('A' for Active; 'I' for Inactive)
REMARK    1  A    between atoms: C_1  and  O_2
REMARK    2  A    between atoms: O_2  and  C_3
REMARK    3  A    between atoms: C_7  and  N_8
REMARK    4  A    between atoms: C_9  and  C_11
REMARK    5  A    between atoms: C_11  and  C_12
REMARK    6  A    between atoms: C_14  and  C_15
REMARK    7  A    between atoms: N_17  and  C_18
REMARK    8  A    between atoms: C_18  and  C_19
REMARK    9  A    between atoms: C_22  and  C_23
REMARK                            x       y       z     vdW  Elec       q    Type
REMARK                         _______ _______ _______ _____ _____    ______ ____
ROOT
ATOM      1  C   UNL     1       2.432   7.000  19.378  0.00  0.00    +0.000 A 
ATOM      2  C   UNL     1       3.608   7.258  18.671  0.00  0.00    +0.000 A 
ATOM      3  N   UNL     1       4.403   6.160  18.818  0.00  0.00    +0.000 N 
ATOM      4  C   UNL     1       3.609   5.046  19.042  0.00  0.00    +0.000 A 
ATOM      5  C   UNL     1       3.977   3.706  18.857  0.00  0.00    +0.000 A 
ATOM      6  C   UNL     1       3.227   3.023  17.919  0.00  0.00    +0.000 A 
ATOM      7  C   UNL     1       2.041   3.629  17.434  0.00  0.00    +0.000 A 
ATOM      8  C   UNL     1       1.539   4.842  17.973  0.00  0.00    +0.000 A 
ATOM      9  C   UNL     1       2.310   5.596  18.923  0.00  0.00    +0.000 A 
ENDROOT
BRANCH   1  11
ATOM     10  C   UNL     1       0.816   9.174  19.908  0.00  0.00    +0.000 C 
ATOM     11  C   UNL     1       1.815   8.223  19.984  0.00  0.00    +0.000 C 
BRANCH  10  13
ATOM     12  N   UNL     1      -1.339   9.698  18.744  0.00  0.00    +0.000 N 
ATOM     13  C   UNL     1       0.029   9.493  18.648  0.00  0.00    +0.000 C 
ATOM     14  O   UNL     1       0.651   9.488  17.586  0.00  0.00    +0.000 OA
ATOM     15  H   UNL     1      -1.767   9.656  19.658  0.00  0.00    +0.000 HD
BRANCH  12  20
ATOM     16  C   UNL     1      -4.158  11.373  16.960  0.00  0.00    +0.000 A 
ATOM     17  C   UNL     1      -3.900  11.058  15.635  0.00  0.00    +0.000 A 
ATOM     18  C   UNL     1      -2.842  10.217  15.324  0.00  0.00    +0.000 A 
ATOM     19  C   UNL     1      -2.010   9.720  16.334  0.00  0.00    +0.000 A 
ATOM     20  C   UNL     1      -2.223  10.057  17.677  0.00  0.00    +0.000 A 
ATOM     21  C   UNL     1      -3.347  10.845  17.986  0.00  0.00    +0.000 A 
BRANCH  16  23
ATOM     22  C   UNL     1      -6.321  11.671  17.878  0.00  0.00    +0.000 C 
ATOM     23  O   UNL     1      -5.222  12.213  17.156  0.00  0.00    +0.000 OA
ENDBRANCH  16  23
ENDBRANCH  12  20
ENDBRANCH  10  13
BRANCH  10  24
ATOM     24  C   UNL     1       0.971  10.369  20.834  0.00  0.00    +0.000 C 
ATOM     25  N   UNL     1       1.101  11.359  21.604  0.00  0.00    +0.000 NA
ENDBRANCH  10  24
ENDBRANCH   1  11
BRANCH   3  26
ATOM     26  C   UNL     1       5.799   6.089  18.391  0.00  0.00    +0.000 C 
BRANCH  26  27
ATOM     27  C   UNL     1       5.893   5.511  17.014  0.00  0.00    +0.000 A 
ATOM     28  C   UNL     1       5.114   6.002  15.966  0.00  0.00    +0.000 A 
ATOM     29  C   UNL     1       5.196   5.436  14.698  0.00  0.00    +0.000 A 
ATOM     30  C   UNL     1       6.068   4.370  14.453  0.00  0.00    +0.000 A 
ATOM     31  C   UNL     1       6.197   3.758  13.087  0.00  0.00    +0.000 C 
ATOM     32  C   UNL     1       6.837   3.862  15.501  0.00  0.00    +0.000 A 
ATOM     33  C   UNL     1       6.745   4.422  16.773  0.00  0.00    +0.000 A 
ENDBRANCH  26  27
ENDBRANCH   3  26
TORSDOF 7
ENDMDL
MODEL 4
REMARK VINA RESULT:      -7.9      3.786      8.986
REMARK  Name = 
REMARK  9 active torsions:
REMARK  status: ('A' for Active; 'I' for Inactive)
REMARK    1  A    between atoms: C_1  and  O_2
REMARK    2  A    between atoms: O_2  and  C_3
REMARK    3  A    between atoms: C_7  and  N_8
REMARK    4  A    between atoms: C_9  and  C_11
REMARK    5  A    between atoms: C_11  and  C_12
REMARK    6  A    between atoms: C_14  and  C_15
REMARK    7  A    between atoms: N_17  and  C_18
REMARK    8  A    between atoms: C_18  and  C_19
REMARK    9  A    between atoms: C_22  and  C_23
REMARK                            x       y       z     vdW  Elec       q    Type
REMARK                         _______ _______ _______ _____ _____    ______ ____
ROOT
ATOM      1  C   UNL     1       4.362   5.329  18.518  0.00  0.00    +0.000 A 
ATOM      2  C   UNL     1       3.821   5.582  19.779  0.00  0.00    +0.000 A 
ATOM      3  N   UNL     1       2.481   5.344  19.686  0.00  0.00    +0.000 N 
ATOM      4  C   UNL     1       2.248   4.422  18.679  0.00  0.00    +0.000 A 
ATOM      5  C   UNL     1       1.104   3.628  18.519  0.00  0.00    +0.000 A 
ATOM      6  C   UNL     1       1.330   2.266  18.575  0.00  0.00    +0.000 A 
ATOM      7  C   UNL     1       2.669   1.804  18.533  0.00  0.00    +0.000 A 
ATOM      8  C   UNL     1       3.762   2.679  18.305  0.00  0.00    +0.000 A 
ATOM      9  C   UNL     1       3.567   4.102  18.277  0.00  0.00    +0.000 A 
ENDROOT
BRANCH   1  11
ATOM     10  C   UNL     1       6.510   6.518  17.257  0.00  0.00    +0.000 C 
ATOM     11  C   UNL     1       5.532   6.201  18.180  0.00  0.00    +0.000 C 
BRANCH  10  13
ATOM     12  N   UNL     1       6.346   5.661  14.910  0.00  0.00    +0.000 N 
ATOM     13  C   UNL     1       6.973   5.593  16.145  0.00  0.00    +0.000 C 
ATOM     14  O   UNL     1       7.852   4.779  16.427  0.00  0.00    +0.000 OA
ATOM     15  H   UNL     1       5.615   6.346  14.781  0.00  0.00    +0.000 HD
BRANCH  12  20
ATOM     16  C   UNL     1       6.098   3.071  12.234  0.00  0.00    +0.000 A 
ATOM     17  C   UNL     1       7.066   3.482  11.331  0.00  0.00    +0.000 A 
ATOM     18  C   UNL     1       7.871   4.570  11.638  0.00  0.00    +0.000 A 
ATOM     19  C   UNL     1       7.682   5.278  12.830  0.00  0.00    +0.000 A 
ATOM     20  C   UNL     1       6.684   4.908  13.741  0.00  0.00    +0.000 A 
ATOM     21  C   UNL     1       5.929   3.756  13.455  0.00  0.00    +0.000 A 
BRANCH  16  23
ATOM     22  C   UNL     1       6.053   0.998  11.088  0.00  0.00    +0.000 C 
ATOM     23  O   UNL     1       5.357   1.991  11.831  0.00  0.00    +0.000 OA
ENDBRANCH  16  23
ENDBRANCH  12  20
ENDBRANCH  10  13
BRANCH  10  24
ATOM     24  C   UNL     1       7.602   7.454  17.750  0.00  0.00    +0.000 C 
ATOM     25  N   UNL     1       8.508   8.230  18.159  0.00  0.00    +0.000 NA
ENDBRANCH  10  24
ENDBRANCH   1  11
BRANCH   3  26
ATOM     26  C   UNL     1       1.511   5.666  20.732  0.00  0.00    +0.000 C 
BRANCH  26  27
ATOM     27  C   UNL     1       1.156   7.118  20.683  0.00  0.00    +0.000 A 
ATOM     28  C   UNL     1       1.677   7.959  19.699  0.00  0.00    +0.000 A 
ATOM     29  C   UNL     1       1.356   9.313  19.683  0.00  0.00    +0.000 A 
ATOM     30  C   UNL     1       0.497   9.849  20.649  0.00  0.00    +0.000 A 
ATOM     31  C   UNL     1       0.112  11.301  20.639  0.00  0.00    +0.000 C 
ATOM     32  C   UNL     1      -0.014   9.017  21.645  0.00  0.00    +0.000 A 
ATOM     33  C   UNL     1       0.319   7.664  21.668  0.00  0.00    +0.000 A 
ENDBRANCH  26  27
ENDBRANCH   3  26
TORSDOF 7
ENDMDL
MODEL 5
REMARK VINA RESULT:      -7.9      0.963      1.301
REMARK  Name = 
REMARK  9 active torsions:
REMARK  status: ('A' for Active; 'I' for Inactive)
REMARK    1  A    between atoms: C_1  and  O_2
REMARK    2  A    between atoms: O_2  and  C_3
REMARK    3  A    between atoms: C_7  and  N_8
REMARK    4  A    between atoms: C_9  and  C_11
REMARK    5  A    between atoms: C_11  and  C_12
REMARK    6  A    between atoms: C_14  and  C_15
REMARK    7  A    between atoms: N_17  and  C_18
REMARK    8  A    between atoms: C_18  and  C_19
REMARK    9  A    between atoms: C_22  and  C_23
REMARK                            x       y       z     vdW  Elec       q    Type
REMARK                         _______ _______ _______ _____ _____    ______ ____
ROOT
ATOM      1  C   UNL     1       2.149   6.284  20.119  0.00  0.00    +0.000 A 
ATOM      2  C   UNL     1       3.374   6.738  19.629  0.00  0.00    +0.000 A 
ATOM      3  N   UNL     1       4.183   5.645  19.519  0.00  0.00    +0.000 N 
ATOM      4  C   UNL     1       3.403   4.515  19.335  0.00  0.00    +0.000 A 
ATOM      5  C   UNL     1       3.821   3.288  18.801  0.00  0.00    +0.000 A 
ATOM      6  C   UNL     1       3.174   2.910  17.640  0.00  0.00    +0.000 A 
ATOM      7  C   UNL     1       2.019   3.631  17.248  0.00  0.00    +0.000 A 
ATOM      8  C   UNL     1       1.439   4.633  18.069  0.00  0.00    +0.000 A 
ATOM      9  C   UNL     1       2.104   5.075  19.264  0.00  0.00    +0.000 A 
ENDROOT
BRANCH   1  11
ATOM     10  C   UNL     1       0.812   8.497  21.084  0.00  0.00    +0.000 C 
ATOM     11  C   UNL     1       1.449   7.274  20.998  0.00  0.00    +0.000 C 
BRANCH  10  13
ATOM     12  N   UNL     1       0.788  10.928  20.483  0.00  0.00    +0.000 N 
ATOM     13  C   UNL     1       0.964   9.618  20.068  0.00  0.00    +0.000 C 
ATOM     14  O   UNL     1       1.177   9.287  18.902  0.00  0.00    +0.000 OA
ATOM     15  H   UNL     1       0.590  11.100  21.459  0.00  0.00    +0.000 HD
BRANCH  12  20
ATOM     16  C   UNL     1       2.472  13.603  18.496  0.00  0.00    +0.000 A 
ATOM     17  C   UNL     1       1.402  14.247  17.898  0.00  0.00    +0.000 A 
ATOM     18  C   UNL     1       0.107  13.861  18.212  0.00  0.00    +0.000 A 
ATOM     19  C   UNL     1      -0.123  12.799  19.094  0.00  0.00    +0.000 A 
ATOM     20  C   UNL     1       0.943  12.104  19.681  0.00  0.00    +0.000 A 
ATOM     21  C   UNL     1       2.248  12.557  19.416  0.00  0.00    +0.000 A 
BRANCH  16  23
ATOM     22  C   UNL     1       3.778  15.430  17.745  0.00  0.00    +0.000 C 
ATOM     23  O   UNL     1       3.707  14.058  18.113  0.00  0.00    +0.000 OA
ENDBRANCH  16  23
ENDBRANCH  12  20
ENDBRANCH  10  13
BRANCH  10  24
ATOM     24  C   UNL     1       0.538   9.000  22.492  0.00  0.00    +0.000 C 
ATOM     25  N   UNL     1       0.310   9.415  23.661  0.00  0.00    +0.000 NA
ENDBRANCH  10  24
ENDBRANCH   1  11
BRANCH   3  26
ATOM     26  C   UNL     1       5.613   5.703  19.219  0.00  0.00    +0.000 C 
BRANCH  26  27
ATOM     27  C   UNL     1       5.849   5.438  17.766  0.00  0.00    +0.000 A 
ATOM     28  C   UNL     1       5.082   6.058  16.780  0.00  0.00    +0.000 A 
ATOM     29  C   UNL     1       5.299   5.780  15.434  0.00  0.00    +0.000 A 
ATOM     30  C   UNL     1       6.299   4.880  15.050  0.00  0.00    +0.000 A 
ATOM     31  C   UNL     1       6.574   4.583  13.603  0.00  0.00    +0.000 C 
ATOM     32  C   UNL     1       7.059   4.243  16.031  0.00  0.00    +0.000 A 
ATOM     33  C   UNL     1       6.831   4.512  17.379  0.00  0.00    +0.000 A 
ENDBRANCH  26  27
ENDBRANCH   3  26
TORSDOF 7
ENDMDL
MODEL 6
REMARK VINA RESULT:      -7.8      1.030      1.121
REMARK  Name = 
REMARK  9 active torsions:
REMARK  status: ('A' for Active; 'I' for Inactive)
REMARK    1  A    between atoms: C_1  and  O_2
REMARK    2  A    between atoms: O_2  and  C_3
REMARK    3  A    between atoms: C_7  and  N_8
REMARK    4  A    between atoms: C_9  and  C_11
REMARK    5  A    between atoms: C_11  and  C_12
REMARK    6  A    between atoms: C_14  and  C_15
REMARK    7  A    between atoms: N_17  and  C_18
REMARK    8  A    between atoms: C_18  and  C_19
REMARK    9  A    between atoms: C_22  and  C_23
REMARK                            x       y       z     vdW  Elec       q    Type
REMARK                         _______ _______ _______ _____ _____    ______ ____
ROOT
ATOM      1  C   UNL     1       2.065   6.092  20.053  0.00  0.00    +0.000 A 
ATOM      2  C   UNL     1       3.270   6.581  19.545  0.00  0.00    +0.000 A 
ATOM      3  N   UNL     1       4.148   5.537  19.549  0.00  0.00    +0.000 N 
ATOM      4  C   UNL     1       3.447   4.347  19.454  0.00  0.00    +0.000 A 
ATOM      5  C   UNL     1       3.955   3.107  19.041  0.00  0.00    +0.000 A 
ATOM      6  C   UNL     1       3.360   2.586  17.908  0.00  0.00    +0.000 A 
ATOM      7  C   UNL     1       2.170   3.192  17.432  0.00  0.00    +0.000 A 
ATOM      8  C   UNL     1       1.510   4.222  18.149  0.00  0.00    +0.000 A 
ATOM      9  C   UNL     1       2.117   4.812  19.310  0.00  0.00    +0.000 A 
ENDROOT
BRANCH   1  11
ATOM     10  C   UNL     1       0.752   8.385  20.853  0.00  0.00    +0.000 C 
ATOM     11  C   UNL     1       1.283   7.109  20.826  0.00  0.00    +0.000 C 
BRANCH  10  13
ATOM     12  N   UNL     1       1.164  10.822  20.451  0.00  0.00    +0.000 N 
ATOM     13  C   UNL     1       1.214   9.526  19.962  0.00  0.00    +0.000 C 
ATOM     14  O   UNL     1       1.553   9.235  18.815  0.00  0.00    +0.000 OA
ATOM     15  H   UNL     1       0.846  10.965  21.400  0.00  0.00    +0.000 HD
BRANCH  12  20
ATOM     16  C   UNL     1       2.440  14.297  19.969  0.00  0.00    +0.000 A 
ATOM     17  C   UNL     1       2.729  14.322  18.614  0.00  0.00    +0.000 A 
ATOM     18  C   UNL     1       2.425  13.220  17.828  0.00  0.00    +0.000 A 
ATOM     19  C   UNL     1       1.869  12.071  18.401  0.00  0.00    +0.000 A 
ATOM     20  C   UNL     1       1.605  12.005  19.776  0.00  0.00    +0.000 A 
ATOM     21  C   UNL     1       1.844  13.157  20.547  0.00  0.00    +0.000 A 
BRANCH  16  23
ATOM     22  C   UNL     1       2.386  15.485  22.017  0.00  0.00    +0.000 C 
ATOM     23  O   UNL     1       2.785  15.433  20.653  0.00  0.00    +0.000 OA
ENDBRANCH  16  23
ENDBRANCH  12  20
ENDBRANCH  10  13
BRANCH  10  24
ATOM     24  C   UNL     1       0.229   8.852  22.201  0.00  0.00    +0.000 C 
ATOM     25  N   UNL     1      -0.206   9.240  23.320  0.00  0.00    +0.000 NA
ENDBRANCH  10  24
ENDBRANCH   1  11
BRANCH   3  26
ATOM     26  C   UNL     1       5.578   5.662  19.270  0.00  0.00    +0.000 C 
BRANCH  26  27
ATOM     27  C   UNL     1       5.850   5.395  17.823  0.00  0.00    +0.000 A 
ATOM     28  C   UNL     1       5.031   5.918  16.822  0.00  0.00    +0.000 A 
ATOM     29  C   UNL     1       5.283   5.638  15.483  0.00  0.00    +0.000 A 
ATOM     30  C   UNL     1       6.371   4.836  15.120  0.00  0.00    +0.000 A 
ATOM     31  C   UNL     1       6.684   4.542  13.680  0.00  0.00    +0.000 C 
ATOM     32  C   UNL     1       7.184   4.297  16.117  0.00  0.00    +0.000 A 
ATOM     33  C   UNL     1       6.922   4.566  17.458  0.00  0.00    +0.000 A 
ENDBRANCH  26  27
ENDBRANCH   3  26
TORSDOF 7
ENDMDL
MODEL 7
REMARK VINA RESULT:      -7.8      2.423      8.560
REMARK  Name = 
REMARK  9 active torsions:
REMARK  status: ('A' for Active; 'I' for Inactive)
REMARK    1  A    between atoms: C_1  and  O_2
REMARK    2  A    between atoms: O_2  and  C_3
REMARK    3  A    between atoms: C_7  and  N_8
REMARK    4  A    between atoms: C_9  and  C_11
REMARK    5  A    between atoms: C_11  and  C_12
REMARK    6  A    between atoms: C_14  and  C_15
REMARK    7  A    between atoms: N_17  and  C_18
REMARK    8  A    between atoms: C_18  and  C_19
REMARK    9  A    between atoms: C_22  and  C_23
REMARK                            x       y       z     vdW  Elec       q    Type
REMARK                         _______ _______ _______ _____ _____    ______ ____
ROOT
ATOM      1  C   UNL     1       0.698   7.981  20.963  0.00  0.00    +0.000 A 
ATOM      2  C   UNL     1       1.544   8.789  20.201  0.00  0.00    +0.000 A 
ATOM      3  N   UNL     1       0.755   9.722  19.595  0.00  0.00    +0.000 N 
ATOM      4  C   UNL     1      -0.381   9.928  20.361  0.00  0.00    +0.000 A 
ATOM      5  C   UNL     1      -1.230  11.043  20.316  0.00  0.00    +0.000 A 
ATOM      6  C   UNL     1      -1.314  11.756  21.497  0.00  0.00    +0.000 A 
ATOM      7  C   UNL     1      -0.766  11.181  22.671  0.00  0.00    +0.000 A 
ATOM      8  C   UNL     1      -0.257   9.857  22.695  0.00  0.00    +0.000 A 
ATOM      9  C   UNL     1      -0.123   9.101  21.480  0.00  0.00    +0.000 A 
ENDROOT
BRANCH   1  11
ATOM     10  C   UNL     1       2.020   5.586  20.596  0.00  0.00    +0.000 C 
ATOM     11  C   UNL     1       1.151   6.557  21.057  0.00  0.00    +0.000 C 
BRANCH  10  13
ATOM     12  N   UNL     1       4.098   5.295  19.231  0.00  0.00    +0.000 N 
ATOM     13  C   UNL     1       2.761   5.657  19.272  0.00  0.00    +0.000 C 
ATOM     14  O   UNL     1       2.137   6.098  18.307  0.00  0.00    +0.000 OA
ATOM     15  H   UNL     1       4.533   4.968  20.083  0.00  0.00    +0.000 HD
BRANCH  12  20
ATOM     16  C   UNL     1       6.874   6.163  16.890  0.00  0.00    +0.000 A 
ATOM     17  C   UNL     1       6.820   5.130  15.969  0.00  0.00    +0.000 A 
ATOM     18  C   UNL     1       5.811   4.182  16.060  0.00  0.00    +0.000 A 
ATOM     19  C   UNL     1       4.876   4.239  17.101  0.00  0.00    +0.000 A 
ATOM     20  C   UNL     1       4.933   5.250  18.069  0.00  0.00    +0.000 A 
ATOM     21  C   UNL     1       5.912   6.249  17.918  0.00  0.00    +0.000 A 
BRANCH  16  23
ATOM     22  C   UNL     1       7.896   8.200  17.536  0.00  0.00    +0.000 C 
ATOM     23  O   UNL     1       7.911   7.041  16.712  0.00  0.00    +0.000 OA
ENDBRANCH  16  23
ENDBRANCH  12  20
ENDBRANCH  10  13
BRANCH  10  24
ATOM     24  C   UNL     1       1.709   4.164  21.033  0.00  0.00    +0.000 C 
ATOM     25  N   UNL     1       1.453   2.983  21.396  0.00  0.00    +0.000 NA
ENDBRANCH  10  24
ENDBRANCH   1  11
BRANCH   3  26
ATOM     26  C   UNL     1       1.217  10.648  18.562  0.00  0.00    +0.000 C 
BRANCH  26  27
ATOM     27  C   UNL     1       1.328  12.033  19.118  0.00  0.00    +0.000 A 
ATOM     28  C   UNL     1       2.073  12.296  20.267  0.00  0.00    +0.000 A 
ATOM     29  C   UNL     1       2.144  13.586  20.785  0.00  0.00    +0.000 A 
ATOM     30  C   UNL     1       1.476  14.640  20.152  0.00  0.00    +0.000 A 
ATOM     31  C   UNL     1       1.559  16.048  20.672  0.00  0.00    +0.000 C 
ATOM     32  C   UNL     1       0.715  14.381  19.012  0.00  0.00    +0.000 A 
ATOM     33  C   UNL     1       0.634  13.086  18.503  0.00  0.00    +0.000 A 
ENDBRANCH  26  27
ENDBRANCH   3  26
TORSDOF 7
ENDMDL
MODEL 8
REMARK VINA RESULT:      -7.7      3.108      3.939
REMARK  Name = 
REMARK  9 active torsions:
REMARK  status: ('A' for Active; 'I' for Inactive)
REMARK    1  A    between atoms: C_1  and  O_2
REMARK    2  A    between atoms: O_2  and  C_3
REMARK    3  A    between atoms: C_7  and  N_8
REMARK    4  A    between atoms: C_9  and  C_11
REMARK    5  A    between atoms: C_11  and  C_12
REMARK    6  A    between atoms: C_14  and  C_15
REMARK    7  A    between atoms: N_17  and  C_18
REMARK    8  A    between atoms: C_18  and  C_19
REMARK    9  A    between atoms: C_22  and  C_23
REMARK                            x       y       z     vdW  Elec       q    Type
REMARK                         _______ _______ _______ _____ _____    ______ ____
ROOT
ATOM      1  C   UNL     1       2.867   7.653  18.270  0.00  0.00    +0.000 A 
ATOM      2  C   UNL     1       4.059   7.253  17.664  0.00  0.00    +0.000 A 
ATOM      3  N   UNL     1       4.468   6.124  18.311  0.00  0.00    +0.000 N 
ATOM      4  C   UNL     1       3.365   5.477  18.845  0.00  0.00    +0.000 A 
ATOM      5  C   UNL     1       3.290   4.131  19.229  0.00  0.00    +0.000 A 
ATOM      6  C   UNL     1       2.356   3.382  18.539  0.00  0.00    +0.000 A 
ATOM      7  C   UNL     1       1.418   4.062  17.722  0.00  0.00    +0.000 A 
ATOM      8  C   UNL     1       1.328   5.478  17.695  0.00  0.00    +0.000 A 
ATOM      9  C   UNL     1       2.305   6.287  18.372  0.00  0.00    +0.000 A 
ENDROOT
BRANCH   1  11
ATOM     10  C   UNL     1       1.782  10.187  18.431  0.00  0.00    +0.000 C 
ATOM     11  C   UNL     1       2.671   9.138  18.288  0.00  0.00    +0.000 C 
BRANCH  10  13
ATOM     12  N   UNL     1      -0.449  11.185  17.889  0.00  0.00    +0.000 N 
ATOM     13  C   UNL     1       0.277  10.065  18.261  0.00  0.00    +0.000 C 
ATOM     14  O   UNL     1      -0.227   8.975  18.530  0.00  0.00    +0.000 OA
ATOM     15  H   UNL     1       0.051  12.045  17.715  0.00  0.00    +0.000 HD
BRANCH  12  20
ATOM     16  C   UNL     1      -3.692  10.756  16.089  0.00  0.00    +0.000 A 
ATOM     17  C   UNL     1      -4.620  11.052  17.075  0.00  0.00    +0.000 A 
ATOM     18  C   UNL     1      -4.184  11.480  18.320  0.00  0.00    +0.000 A 
ATOM     19  C   UNL     1      -2.816  11.574  18.599  0.00  0.00    +0.000 A 
ATOM     20  C   UNL     1      -1.857  11.242  17.634  0.00  0.00    +0.000 A 
ATOM     21  C   UNL     1      -2.312  10.886  16.351  0.00  0.00    +0.000 A 
BRANCH  16  23
ATOM     22  C   UNL     1      -3.297  10.038  13.867  0.00  0.00    +0.000 C 
ATOM     23  O   UNL     1      -4.228  10.338  14.899  0.00  0.00    +0.000 OA
ENDBRANCH  16  23
ENDBRANCH  12  20
ENDBRANCH  10  13
BRANCH  10  24
ATOM     24  C   UNL     1       2.317  11.559  18.057  0.00  0.00    +0.000 C 
ATOM     25  N   UNL     1       2.762  12.699  17.749  0.00  0.00    +0.000 NA
ENDBRANCH  10  24
ENDBRANCH   1  11
BRANCH   3  26
ATOM     26  C   UNL     1       5.768   5.485  18.113  0.00  0.00    +0.000 C 
BRANCH  26  27
ATOM     27  C   UNL     1       5.912   5.030  16.695  0.00  0.00    +0.000 A 
ATOM     28  C   UNL     1       4.881   4.354  16.041  0.00  0.00    +0.000 A 
ATOM     29  C   UNL     1       5.043   3.915  14.731  0.00  0.00    +0.000 A 
ATOM     30  C   UNL     1       6.239   4.155  14.046  0.00  0.00    +0.000 A 
ATOM     31  C   UNL     1       6.430   3.718  12.621  0.00  0.00    +0.000 C 
ATOM     32  C   UNL     1       7.280   4.815  14.700  0.00  0.00    +0.000 A 
ATOM     33  C   UNL     1       7.122   5.242  16.017  0.00  0.00    +0.000 A 
ENDBRANCH  26  27
ENDBRANCH   3  26
TORSDOF 7
ENDMDL
MODEL 9
REMARK VINA RESULT:      -7.7      2.849      3.395
REMARK  Name = 
REMARK  9 active torsions:
REMARK  status: ('A' for Active; 'I' for Inactive)
REMARK    1  A    between atoms: C_1  and  O_2
REMARK    2  A    between atoms: O_2  and  C_3
REMARK    3  A    between atoms: C_7  and  N_8
REMARK    4  A    between atoms: C_9  and  C_11
REMARK    5  A    between atoms: C_11  and  C_12
REMARK    6  A    between atoms: C_14  and  C_15
REMARK    7  A    between atoms: N_17  and  C_18
REMARK    8  A    between atoms: C_18  and  C_19
REMARK    9  A    between atoms: C_22  and  C_23
REMARK                            x       y       z     vdW  Elec       q    Type
REMARK                         _______ _______ _______ _____ _____    ______ ____
ROOT
ATOM      1  C   UNL     1       2.352   6.714  19.623  0.00  0.00    +0.000 A 
ATOM      2  C   UNL     1       3.531   7.071  18.965  0.00  0.00    +0.000 A 
ATOM      3  N   UNL     1       4.342   5.975  18.994  0.00  0.00    +0.000 N 
ATOM      4  C   UNL     1       3.565   4.831  19.078  0.00  0.00    +0.000 A 
ATOM      5  C   UNL     1       3.957   3.527  18.744  0.00  0.00    +0.000 A 
ATOM      6  C   UNL     1       3.228   2.946  17.724  0.00  0.00    +0.000 A 
ATOM      7  C   UNL     1       2.037   3.585  17.299  0.00  0.00    +0.000 A 
ATOM      8  C   UNL     1       1.509   4.720  17.968  0.00  0.00    +0.000 A 
ATOM      9  C   UNL     1       2.258   5.370  19.008  0.00  0.00    +0.000 A 
ENDROOT
BRANCH   1  11
ATOM     10  C   UNL     1       0.734   8.827  20.353  0.00  0.00    +0.000 C 
ATOM     11  C   UNL     1       1.709   7.849  20.360  0.00  0.00    +0.000 C 
BRANCH  10  13
ATOM     12  N   UNL     1      -1.284   9.715  19.165  0.00  0.00    +0.000 N 
ATOM     13  C   UNL     1       0.053   9.352  19.101  0.00  0.00    +0.000 C 
ATOM     14  O   UNL     1       0.722   9.367  18.068  0.00  0.00    +0.000 OA
ATOM     15  H   UNL     1      -1.758   9.644  20.054  0.00  0.00    +0.000 HD
BRANCH  12  20
ATOM     16  C   UNL     1      -2.743  10.148  15.756  0.00  0.00    +0.000 A 
ATOM     17  C   UNL     1      -3.730  11.096  15.974  0.00  0.00    +0.000 A 
ATOM     18  C   UNL     1      -3.867  11.667  17.231  0.00  0.00    +0.000 A 
ATOM     19  C   UNL     1      -3.044  11.260  18.288  0.00  0.00    +0.000 A 
ATOM     20  C   UNL     1      -2.066  10.274  18.105  0.00  0.00    +0.000 A 
ATOM     21  C   UNL     1      -1.885   9.762  16.807  0.00  0.00    +0.000 A 
BRANCH  16  23
ATOM     22  C   UNL     1      -3.729  10.078  13.604  0.00  0.00    +0.000 C 
ATOM     23  O   UNL     1      -2.697   9.646  14.482  0.00  0.00    +0.000 OA
ENDBRANCH  16  23
ENDBRANCH  12  20
ENDBRANCH  10  13
BRANCH  10  24
ATOM     24  C   UNL     1       0.835   9.866  21.459  0.00  0.00    +0.000 C 
ATOM     25  N   UNL     1       0.919  10.728  22.376  0.00  0.00    +0.000 NA
ENDBRANCH  10  24
ENDBRANCH   1  11
BRANCH   3  26
ATOM     26  C   UNL     1       5.744   5.975  18.578  0.00  0.00    +0.000 C 
BRANCH  26  27
ATOM     27  C   UNL     1       5.869   5.487  17.169  0.00  0.00    +0.000 A 
ATOM     28  C   UNL     1       5.170   6.095  16.126  0.00  0.00    +0.000 A 
ATOM     29  C   UNL     1       5.277   5.612  14.825  0.00  0.00    +0.000 A 
ATOM     30  C   UNL     1       6.097   4.514  14.544  0.00  0.00    +0.000 A 
ATOM     31  C   UNL     1       6.254   3.988  13.145  0.00  0.00    +0.000 C 
ATOM     32  C   UNL     1       6.785   3.890  15.585  0.00  0.00    +0.000 A 
ATOM     33  C   UNL     1       6.666   4.367  16.889  0.00  0.00    +0.000 A 
ENDBRANCH  26  27
ENDBRANCH   3  26
TORSDOF 7
ENDMDL
