MODEL 1
REMARK VINA RESULT:      -7.5      0.000      0.000
REMARK  Name = 
REMARK  7 active torsions:
REMARK  status: ('A' for Active; 'I' for Inactive)
REMARK    1  A    between atoms: C_1  and  N_2
REMARK    2  A    between atoms: N_2  and  C_11
REMARK    3  A    between atoms: C_3  and  C_5
REMARK    4  A    between atoms: C_14  and  C_15
REMARK    5  A    between atoms: C_15  and  O_16
REMARK    6  A    between atoms: C_15  and  C_17
REMARK    7  A    between atoms: C_15  and  C_21
REMARK                            x       y       z     vdW  Elec       q    Type
REMARK                         _______ _______ _______ _____ _____    ______ ____
ROOT
ATOM      1  C   UNL     1       4.873   4.180  16.228  0.00  0.00    +0.000 A 
ATOM      2  C   UNL     1       4.087   5.203  16.752  0.00  0.00    +0.000 A 
ATOM      3  C   UNL     1       3.271   4.945  17.855  0.00  0.00    +0.000 A 
ATOM      4  C   UNL     1       3.230   3.668  18.455  0.00  0.00    +0.000 A 
ATOM      5  C   UNL     1       4.031   2.651  17.899  0.00  0.00    +0.000 A 
ATOM      6  C   UNL     1       4.815   2.895  16.771  0.00  0.00    +0.000 A 
ENDROOT
BRANCH   1   8
ATOM      7  C   UNL     1       5.434   4.002  13.886  0.00  0.00    +0.000 C 
ATOM      8  N   UNL     1       5.821   4.441  15.225  0.00  0.00    +0.000 N 
ATOM      9  C   UNL     1       6.976   5.227  15.392  0.00  0.00    +0.000 C 
ATOM     10  O   UNL     1       7.710   5.488  14.432  0.00  0.00    +0.000 OA
BRANCH   9  11
ATOM     11  C   UNL     1       7.377   5.818  16.717  0.00  0.00    +0.000 A 
ATOM     12  C   UNL     1       7.506   7.185  16.999  0.00  0.00    +0.000 A 
ATOM     13  C   UNL     1       7.989   7.580  18.229  0.00  0.00    +0.000 A 
ATOM     14  N   UNL     1       8.265   6.724  19.229  0.00  0.00    +0.000 NA
ATOM     15  C   UNL     1       8.044   5.417  18.982  0.00  0.00    +0.000 A 
ATOM     16  C   UNL     1       7.614   4.922  17.762  0.00  0.00    +0.000 A 
ENDBRANCH   9  11
ENDBRANCH   1   8
BRANCH   4  17
ATOM     17  C   UNL     1       2.322   3.364  19.667  0.00  0.00    +0.000 C 
BRANCH  17  18
ATOM     18  C   UNL     1       2.221   4.590  20.614  0.00  0.00    +0.000 C 
ATOM     19  F   UNL     1       3.316   5.389  20.553  0.00  0.00    +0.000 F 
ATOM     20  F   UNL     1       1.160   5.398  20.452  0.00  0.00    +0.000 F 
ATOM     21  F   UNL     1       2.183   4.155  21.910  0.00  0.00    +0.000 F 
ENDBRANCH  17  18
BRANCH  17  22
ATOM     22  C   UNL     1       0.906   2.890  19.237  0.00  0.00    +0.000 C 
ATOM     23  F   UNL     1       0.420   3.608  18.189  0.00  0.00    +0.000 F 
ATOM     24  F   UNL     1       0.918   1.598  18.817  0.00  0.00    +0.000 F 
ATOM     25  F   UNL     1      -0.045   2.958  20.192  0.00  0.00    +0.000 F 
ENDBRANCH  17  22
BRANCH  17  26
ATOM     26  O   UNL     1       2.987   2.262  20.388  0.00  0.00    +0.000 OA
ATOM     27  H   UNL     1       3.903   2.547  20.570  0.00  0.00    +0.000 HD
ENDBRANCH  17  26
ENDBRANCH   4  17
TORSDOF 6
ENDMDL
MODEL 2
REMARK VINA RESULT:      -7.5      0.101      1.181
REMARK  Name = 
REMARK  7 active torsions:
REMARK  status: ('A' for Active; 'I' for Inactive)
REMARK    1  A    between atoms: C_1  and  N_2
REMARK    2  A    between atoms: N_2  and  C_11
REMARK    3  A    between atoms: C_3  and  C_5
REMARK    4  A    between atoms: C_14  and  C_15
REMARK    5  A    between atoms: C_15  and  O_16
REMARK    6  A    between atoms: C_15  and  C_17
REMARK    7  A    between atoms: C_15  and  C_21
REMARK                            x       y       z     vdW  Elec       q    Type
REMARK                         _______ _______ _______ _____ _____    ______ ____
ROOT
ATOM      1  C   UNL     1       4.828   4.192  16.230  0.00  0.00    +0.000 A 
ATOM      2  C   UNL     1       4.104   5.225  16.820  0.00  0.00    +0.000 A 
ATOM      3  C   UNL     1       3.299   4.953  17.928  0.00  0.00    +0.000 A 
ATOM      4  C   UNL     1       3.207   3.651  18.466  0.00  0.00    +0.000 A 
ATOM      5  C   UNL     1       3.945   2.626  17.844  0.00  0.00    +0.000 A 
ATOM      6  C   UNL     1       4.717   2.886  16.711  0.00  0.00    +0.000 A 
ENDROOT
BRANCH   1   8
ATOM      7  C   UNL     1       5.331   4.102  13.869  0.00  0.00    +0.000 C 
ATOM      8  N   UNL     1       5.766   4.456  15.219  0.00  0.00    +0.000 N 
ATOM      9  C   UNL     1       6.962   5.176  15.397  0.00  0.00    +0.000 C 
ATOM     10  O   UNL     1       7.689   5.448  14.433  0.00  0.00    +0.000 OA
BRANCH   9  11
ATOM     11  C   UNL     1       7.420   5.681  16.739  0.00  0.00    +0.000 A 
ATOM     12  C   UNL     1       7.731   4.885  17.850  0.00  0.00    +0.000 A 
ATOM     13  C   UNL     1       8.033   5.490  19.053  0.00  0.00    +0.000 A 
ATOM     14  N   UNL     1       8.138   6.821  19.209  0.00  0.00    +0.000 NA
ATOM     15  C   UNL     1       7.934   7.575  18.111  0.00  0.00    +0.000 A 
ATOM     16  C   UNL     1       7.573   7.062  16.876  0.00  0.00    +0.000 A 
ENDBRANCH   9  11
ENDBRANCH   1   8
BRANCH   4  17
ATOM     17  C   UNL     1       2.311   3.333  19.684  0.00  0.00    +0.000 C 
BRANCH  17  18
ATOM     18  C   UNL     1       2.230   4.542  20.654  0.00  0.00    +0.000 C 
ATOM     19  F   UNL     1       3.336   5.327  20.603  0.00  0.00    +0.000 F 
ATOM     20  F   UNL     1       1.180   5.367  20.512  0.00  0.00    +0.000 F 
ATOM     21  F   UNL     1       2.193   4.083  21.941  0.00  0.00    +0.000 F 
ENDBRANCH  17  18
BRANCH  17  22
ATOM     22  C   UNL     1       0.886   2.878  19.261  0.00  0.00    +0.000 C 
ATOM     23  F   UNL     1      -0.007   2.970  20.284  0.00  0.00    +0.000 F 
ATOM     24  F   UNL     1       0.384   3.660  18.270  0.00  0.00    +0.000 F 
ATOM     25  F   UNL     1       0.790   1.609  18.813  0.00  0.00    +0.000 F 
ENDBRANCH  17  22
BRANCH  17  26
ATOM     26  O   UNL     1       2.974   2.212  20.376  0.00  0.00    +0.000 OA
ATOM     27  H   UNL     1       2.523   1.392  20.099  0.00  0.00    +0.000 HD
ENDBRANCH  17  26
ENDBRANCH   4  17
TORSDOF 6
ENDMDL
MODEL 3
REMARK VINA RESULT:      -7.5      0.979      2.156
REMARK  Name = 
REMARK  7 active torsions:
REMARK  status: ('A' for Active; 'I' for Inactive)
REMARK    1  A    between atoms: C_1  and  N_2
REMARK    2  A    between atoms: N_2  and  C_11
REMARK    3  A    between atoms: C_3  and  C_5
REMARK    4  A    between atoms: C_14  and  C_15
REMARK    5  A    between atoms: C_15  and  O_16
REMARK    6  A    between atoms: C_15  and  C_17
REMARK    7  A    between atoms: C_15  and  C_21
REMARK                            x       y       z     vdW  Elec       q    Type
REMARK                         _______ _______ _______ _____ _____    ______ ____
ROOT
ATOM      1  C   UNL     1       4.748   4.357  16.293  0.00  0.00    +0.000 A 
ATOM      2  C   UNL     1       4.159   5.468  16.890  0.00  0.00    +0.000 A 
ATOM      3  C   UNL     1       3.286   5.288  17.965  0.00  0.00    +0.000 A 
ATOM      4  C   UNL     1       2.992   4.000  18.463  0.00  0.00    +0.000 A 
ATOM      5  C   UNL     1       3.597   2.895  17.834  0.00  0.00    +0.000 A 
ATOM      6  C   UNL     1       4.436   3.069  16.733  0.00  0.00    +0.000 A 
ENDROOT
BRANCH   1   8
ATOM      7  C   UNL     1       5.368   4.074  13.975  0.00  0.00    +0.000 C 
ATOM      8  N   UNL     1       5.748   4.508  15.318  0.00  0.00    +0.000 N 
ATOM      9  C   UNL     1       6.964   5.190  15.510  0.00  0.00    +0.000 C 
ATOM     10  O   UNL     1       7.750   5.361  14.571  0.00  0.00    +0.000 OA
BRANCH   9  11
ATOM     11  C   UNL     1       7.373   5.773  16.836  0.00  0.00    +0.000 A 
ATOM     12  C   UNL     1       7.507   7.138  17.124  0.00  0.00    +0.000 A 
ATOM     13  C   UNL     1       7.997   7.525  18.354  0.00  0.00    +0.000 A 
ATOM     14  N   UNL     1       8.275   6.663  19.348  0.00  0.00    +0.000 NA
ATOM     15  C   UNL     1       8.049   5.359  19.096  0.00  0.00    +0.000 A 
ATOM     16  C   UNL     1       7.612   4.871  17.875  0.00  0.00    +0.000 A 
ENDBRANCH   9  11
ENDBRANCH   1   8
BRANCH   4  17
ATOM     17  C   UNL     1       2.018   3.784  19.643  0.00  0.00    +0.000 C 
BRANCH  17  18
ATOM     18  C   UNL     1       0.910   2.760  19.277  0.00  0.00    +0.000 C 
ATOM     19  F   UNL     1       0.341   3.015  18.072  0.00  0.00    +0.000 F 
ATOM     20  F   UNL     1       1.262   1.464  19.258  0.00  0.00    +0.000 F 
ATOM     21  F   UNL     1      -0.116   2.870  20.174  0.00  0.00    +0.000 F 
ENDBRANCH  17  18
BRANCH  17  22
ATOM     22  C   UNL     1       2.755   3.349  20.940  0.00  0.00    +0.000 C 
ATOM     23  F   UNL     1       4.053   3.015  20.707  0.00  0.00    +0.000 F 
ATOM     24  F   UNL     1       2.798   4.355  21.853  0.00  0.00    +0.000 F 
ATOM     25  F   UNL     1       2.222   2.290  21.585  0.00  0.00    +0.000 F 
ENDBRANCH  17  22
BRANCH  17  26
ATOM     26  O   UNL     1       1.391   5.098  19.878  0.00  0.00    +0.000 OA
ATOM     27  H   UNL     1       0.627   4.953  20.469  0.00  0.00    +0.000 HD
ENDBRANCH  17  26
ENDBRANCH   4  17
TORSDOF 6
ENDMDL
MODEL 4
REMARK VINA RESULT:      -7.4      0.095      1.031
REMARK  Name = 
REMARK  7 active torsions:
REMARK  status: ('A' for Active; 'I' for Inactive)
REMARK    1  A    between atoms: C_1  and  N_2
REMARK    2  A    between atoms: N_2  and  C_11
REMARK    3  A    between atoms: C_3  and  C_5
REMARK    4  A    between atoms: C_14  and  C_15
REMARK    5  A    between atoms: C_15  and  O_16
REMARK    6  A    between atoms: C_15  and  C_17
REMARK    7  A    between atoms: C_15  and  C_21
REMARK                            x       y       z     vdW  Elec       q    Type
REMARK                         _______ _______ _______ _____ _____    ______ ____
ROOT
ATOM      1  C   UNL     1       4.893   4.161  16.193  0.00  0.00    +0.000 A 
ATOM      2  C   UNL     1       4.116   5.184  16.730  0.00  0.00    +0.000 A 
ATOM      3  C   UNL     1       3.294   4.917  17.827  0.00  0.00    +0.000 A 
ATOM      4  C   UNL     1       3.239   3.631  18.406  0.00  0.00    +0.000 A 
ATOM      5  C   UNL     1       4.031   2.615  17.837  0.00  0.00    +0.000 A 
ATOM      6  C   UNL     1       4.820   2.868  16.714  0.00  0.00    +0.000 A 
ENDROOT
BRANCH   1   8
ATOM      7  C   UNL     1       5.473   3.985  13.854  0.00  0.00    +0.000 C 
ATOM      8  N   UNL     1       5.846   4.428  15.196  0.00  0.00    +0.000 N 
ATOM      9  C   UNL     1       6.994   5.223  15.371  0.00  0.00    +0.000 C 
ATOM     10  O   UNL     1       7.734   5.488  14.416  0.00  0.00    +0.000 OA
BRANCH   9  11
ATOM     11  C   UNL     1       7.382   5.817  16.698  0.00  0.00    +0.000 A 
ATOM     12  C   UNL     1       7.484   7.186  16.984  0.00  0.00    +0.000 A 
ATOM     13  C   UNL     1       7.957   7.586  18.216  0.00  0.00    +0.000 A 
ATOM     14  N   UNL     1       8.247   6.733  19.214  0.00  0.00    +0.000 NA
ATOM     15  C   UNL     1       8.051   5.423  18.964  0.00  0.00    +0.000 A 
ATOM     16  C   UNL     1       7.633   4.923  17.741  0.00  0.00    +0.000 A 
ENDBRANCH   9  11
ENDBRANCH   1   8
BRANCH   4  17
ATOM     17  C   UNL     1       2.324   3.317  19.612  0.00  0.00    +0.000 C 
BRANCH  17  18
ATOM     18  C   UNL     1       2.308   4.493  20.625  0.00  0.00    +0.000 C 
ATOM     19  F   UNL     1       1.314   5.383  20.377  0.00  0.00    +0.000 F 
ATOM     20  F   UNL     1       2.207   4.174  21.926  0.00  0.00    +0.000 F 
ATOM     21  F   UNL     1       3.460   5.217  20.491  0.00  0.00    +0.000 F 
ENDBRANCH  17  18
BRANCH  17  22
ATOM     22  C   UNL     1       0.878   2.956  19.174  0.00  0.00    +0.000 C 
ATOM     23  F   UNL     1       0.776   1.667  18.750  0.00  0.00    +0.000 F 
ATOM     24  F   UNL     1      -0.001   3.069  20.204  0.00  0.00    +0.000 F 
ATOM     25  F   UNL     1       0.369   3.704  18.173  0.00  0.00    +0.000 F 
ENDBRANCH  17  22
BRANCH  17  26
ATOM     26  O   UNL     1       2.925   2.138  20.263  0.00  0.00    +0.000 OA
ATOM     27  H   UNL     1       3.023   2.349  21.211  0.00  0.00    +0.000 HD
ENDBRANCH  17  26
ENDBRANCH   4  17
TORSDOF 6
ENDMDL
MODEL 5
REMARK VINA RESULT:      -7.3      0.113      1.175
REMARK  Name = 
REMARK  7 active torsions:
REMARK  status: ('A' for Active; 'I' for Inactive)
REMARK    1  A    between atoms: C_1  and  N_2
REMARK    2  A    between atoms: N_2  and  C_11
REMARK    3  A    between atoms: C_3  and  C_5
REMARK    4  A    between atoms: C_14  and  C_15
REMARK    5  A    between atoms: C_15  and  O_16
REMARK    6  A    between atoms: C_15  and  C_17
REMARK    7  A    between atoms: C_15  and  C_21
REMARK                            x       y       z     vdW  Elec       q    Type
REMARK                         _______ _______ _______ _____ _____    ______ ____
ROOT
ATOM      1  C   UNL     1       4.842   4.168  16.208  0.00  0.00    +0.000 A 
ATOM      2  C   UNL     1       4.086   5.191  16.776  0.00  0.00    +0.000 A 
ATOM      3  C   UNL     1       3.276   4.914  17.879  0.00  0.00    +0.000 A 
ATOM      4  C   UNL     1       3.211   3.618  18.434  0.00  0.00    +0.000 A 
ATOM      5  C   UNL     1       3.981   2.603  17.835  0.00  0.00    +0.000 A 
ATOM      6  C   UNL     1       4.758   2.867  16.706  0.00  0.00    +0.000 A 
ENDROOT
BRANCH   1   8
ATOM      7  C   UNL     1       5.358   4.093  13.850  0.00  0.00    +0.000 C 
ATOM      8  N   UNL     1       5.784   4.442  15.203  0.00  0.00    +0.000 N 
ATOM      9  C   UNL     1       6.976   5.166  15.391  0.00  0.00    +0.000 C 
ATOM     10  O   UNL     1       7.706   5.446  14.433  0.00  0.00    +0.000 OA
BRANCH   9  11
ATOM     11  C   UNL     1       7.424   5.666  16.739  0.00  0.00    +0.000 A 
ATOM     12  C   UNL     1       7.729   4.866  17.849  0.00  0.00    +0.000 A 
ATOM     13  C   UNL     1       8.022   5.467  19.056  0.00  0.00    +0.000 A 
ATOM     14  N   UNL     1       8.124   6.798  19.218  0.00  0.00    +0.000 NA
ATOM     15  C   UNL     1       7.927   7.556  18.122  0.00  0.00    +0.000 A 
ATOM     16  C   UNL     1       7.575   7.047  16.882  0.00  0.00    +0.000 A 
ENDBRANCH   9  11
ENDBRANCH   1   8
BRANCH   4  17
ATOM     17  C   UNL     1       2.309   3.294  19.647  0.00  0.00    +0.000 C 
BRANCH  17  18
ATOM     18  C   UNL     1       2.283   4.471  20.658  0.00  0.00    +0.000 C 
ATOM     19  F   UNL     1       1.265   5.338  20.425  0.00  0.00    +0.000 F 
ATOM     20  F   UNL     1       2.212   4.152  21.961  0.00  0.00    +0.000 F 
ATOM     21  F   UNL     1       3.416   5.221  20.503  0.00  0.00    +0.000 F 
ENDBRANCH  17  18
BRANCH  17  22
ATOM     22  C   UNL     1       0.865   2.912  19.219  0.00  0.00    +0.000 C 
ATOM     23  F   UNL     1       0.411   3.683  18.193  0.00  0.00    +0.000 F 
ATOM     24  F   UNL     1       0.799   1.632  18.767  0.00  0.00    +0.000 F 
ATOM     25  F   UNL     1      -0.073   3.010  20.184  0.00  0.00    +0.000 F 
ENDBRANCH  17  22
BRANCH  17  26
ATOM     26  O   UNL     1       2.931   2.125  20.296  0.00  0.00    +0.000 OA
ATOM     27  H   UNL     1       2.645   1.333  19.802  0.00  0.00    +0.000 HD
ENDBRANCH  17  26
ENDBRANCH   4  17
TORSDOF 6
ENDMDL
MODEL 6
REMARK VINA RESULT:      -7.3      0.881      1.161
REMARK  Name = 
REMARK  7 active torsions:
REMARK  status: ('A' for Active; 'I' for Inactive)
REMARK    1  A    between atoms: C_1  and  N_2
REMARK    2  A    between atoms: N_2  and  C_11
REMARK    3  A    between atoms: C_3  and  C_5
REMARK    4  A    between atoms: C_14  and  C_15
REMARK    5  A    between atoms: C_15  and  O_16
REMARK    6  A    between atoms: C_15  and  C_17
REMARK    7  A    between atoms: C_15  and  C_21
REMARK                            x       y       z     vdW  Elec       q    Type
REMARK                         _______ _______ _______ _____ _____    ______ ____
ROOT
ATOM      1  C   UNL     1       4.936   3.994  16.051  0.00  0.00    +0.000 A 
ATOM      2  C   UNL     1       4.192   4.966  16.715  0.00  0.00    +0.000 A 
ATOM      3  C   UNL     1       3.358   4.589  17.770  0.00  0.00    +0.000 A 
ATOM      4  C   UNL     1       3.257   3.242  18.180  0.00  0.00    +0.000 A 
ATOM      5  C   UNL     1       4.016   2.281  17.484  0.00  0.00    +0.000 A 
ATOM      6  C   UNL     1       4.818   2.648  16.403  0.00  0.00    +0.000 A 
ENDROOT
BRANCH   1   8
ATOM      7  C   UNL     1       5.563   4.003  13.718  0.00  0.00    +0.000 C 
ATOM      8  N   UNL     1       5.901   4.354  15.095  0.00  0.00    +0.000 N 
ATOM      9  C   UNL     1       7.028   5.157  15.351  0.00  0.00    +0.000 C 
ATOM     10  O   UNL     1       7.779   5.507  14.433  0.00  0.00    +0.000 OA
BRANCH   9  11
ATOM     11  C   UNL     1       7.378   5.660  16.726  0.00  0.00    +0.000 A 
ATOM     12  C   UNL     1       7.443   7.006  17.114  0.00  0.00    +0.000 A 
ATOM     13  C   UNL     1       7.885   7.324  18.382  0.00  0.00    +0.000 A 
ATOM     14  N   UNL     1       8.176   6.405  19.319  0.00  0.00    +0.000 NA
ATOM     15  C   UNL     1       8.014   5.114  18.970  0.00  0.00    +0.000 A 
ATOM     16  C   UNL     1       7.630   4.697  17.706  0.00  0.00    +0.000 A 
ENDBRANCH   9  11
ENDBRANCH   1   8
BRANCH   4  17
ATOM     17  C   UNL     1       2.328   2.808  19.336  0.00  0.00    +0.000 C 
BRANCH  17  18
ATOM     18  C   UNL     1       3.000   3.044  20.715  0.00  0.00    +0.000 C 
ATOM     19  F   UNL     1       3.445   4.317  20.868  0.00  0.00    +0.000 F 
ATOM     20  F   UNL     1       2.264   2.772  21.805  0.00  0.00    +0.000 F 
ATOM     21  F   UNL     1       4.125   2.272  20.803  0.00  0.00    +0.000 F 
ENDBRANCH  17  18
BRANCH  17  22
ATOM     22  C   UNL     1       0.946   3.516  19.276  0.00  0.00    +0.000 C 
ATOM     23  F   UNL     1       0.601   3.863  18.006  0.00  0.00    +0.000 F 
ATOM     24  F   UNL     1      -0.052   2.703  19.713  0.00  0.00    +0.000 F 
ATOM     25  F   UNL     1       0.840   4.650  19.999  0.00  0.00    +0.000 F 
ENDBRANCH  17  22
BRANCH  17  26
ATOM     26  O   UNL     1       2.122   1.359  19.150  0.00  0.00    +0.000 OA
ATOM     27  H   UNL     1       2.674   1.083  18.394  0.00  0.00    +0.000 HD
ENDBRANCH  17  26
ENDBRANCH   4  17
TORSDOF 6
ENDMDL
MODEL 7
REMARK VINA RESULT:      -7.3      0.995      2.331
REMARK  Name = 
REMARK  7 active torsions:
REMARK  status: ('A' for Active; 'I' for Inactive)
REMARK    1  A    between atoms: C_1  and  N_2
REMARK    2  A    between atoms: N_2  and  C_11
REMARK    3  A    between atoms: C_3  and  C_5
REMARK    4  A    between atoms: C_14  and  C_15
REMARK    5  A    between atoms: C_15  and  O_16
REMARK    6  A    between atoms: C_15  and  C_17
REMARK    7  A    between atoms: C_15  and  C_21
REMARK                            x       y       z     vdW  Elec       q    Type
REMARK                         _______ _______ _______ _____ _____    ______ ____
ROOT
ATOM      1  C   UNL     1       4.747   4.398  16.309  0.00  0.00    +0.000 A 
ATOM      2  C   UNL     1       4.155   5.501  16.921  0.00  0.00    +0.000 A 
ATOM      3  C   UNL     1       3.286   5.304  17.996  0.00  0.00    +0.000 A 
ATOM      4  C   UNL     1       2.998   4.009  18.479  0.00  0.00    +0.000 A 
ATOM      5  C   UNL     1       3.606   2.914  17.836  0.00  0.00    +0.000 A 
ATOM      6  C   UNL     1       4.441   3.104  16.734  0.00  0.00    +0.000 A 
ENDROOT
BRANCH   1   8
ATOM      7  C   UNL     1       5.330   4.240  13.970  0.00  0.00    +0.000 C 
ATOM      8  N   UNL     1       5.744   4.564  15.334  0.00  0.00    +0.000 N 
ATOM      9  C   UNL     1       6.994   5.172  15.554  0.00  0.00    +0.000 C 
ATOM     10  O   UNL     1       7.779   5.366  14.618  0.00  0.00    +0.000 OA
BRANCH   9  11
ATOM     11  C   UNL     1       7.444   5.645  16.910  0.00  0.00    +0.000 A 
ATOM     12  C   UNL     1       7.728   4.824  18.011  0.00  0.00    +0.000 A 
ATOM     13  C   UNL     1       8.026   5.403  19.227  0.00  0.00    +0.000 A 
ATOM     14  N   UNL     1       8.153   6.729  19.408  0.00  0.00    +0.000 NA
ATOM     15  C   UNL     1       7.977   7.506  18.321  0.00  0.00    +0.000 A 
ATOM     16  C   UNL     1       7.621   7.021  17.073  0.00  0.00    +0.000 A 
ENDBRANCH   9  11
ENDBRANCH   1   8
BRANCH   4  17
ATOM     17  C   UNL     1       2.028   3.776  19.659  0.00  0.00    +0.000 C 
BRANCH  17  18
ATOM     18  C   UNL     1       0.854   2.849  19.246  0.00  0.00    +0.000 C 
ATOM     19  F   UNL     1       1.242   1.561  19.070  0.00  0.00    +0.000 F 
ATOM     20  F   UNL     1      -0.208   2.810  20.068  0.00  0.00    +0.000 F 
ATOM     21  F   UNL     1       0.383   3.239  18.023  0.00  0.00    +0.000 F 
ENDBRANCH  17  18
BRANCH  17  22
ATOM     22  C   UNL     1       2.753   3.211  20.912  0.00  0.00    +0.000 C 
ATOM     23  F   UNL     1       2.705   4.072  21.966  0.00  0.00    +0.000 F 
ATOM     24  F   UNL     1       2.171   2.065  21.353  0.00  0.00    +0.000 F 
ATOM     25  F   UNL     1       4.060   2.920  20.746  0.00  0.00    +0.000 F 
ENDBRANCH  17  22
BRANCH  17  26
ATOM     26  O   UNL     1       1.488   5.108  19.991  0.00  0.00    +0.000 OA
ATOM     27  H   UNL     1       2.135   5.769  19.679  0.00  0.00    +0.000 HD
ENDBRANCH  17  26
ENDBRANCH   4  17
TORSDOF 6
ENDMDL
MODEL 8
REMARK VINA RESULT:      -7.3      1.043      2.108
REMARK  Name = 
REMARK  7 active torsions:
REMARK  status: ('A' for Active; 'I' for Inactive)
REMARK    1  A    between atoms: C_1  and  N_2
REMARK    2  A    between atoms: N_2  and  C_11
REMARK    3  A    between atoms: C_3  and  C_5
REMARK    4  A    between atoms: C_14  and  C_15
REMARK    5  A    between atoms: C_15  and  O_16
REMARK    6  A    between atoms: C_15  and  C_17
REMARK    7  A    between atoms: C_15  and  C_21
REMARK                            x       y       z     vdW  Elec       q    Type
REMARK                         _______ _______ _______ _____ _____    ______ ____
ROOT
ATOM      1  C   UNL     1       4.734   4.350  16.268  0.00  0.00    +0.000 A 
ATOM      2  C   UNL     1       4.090   5.468  16.792  0.00  0.00    +0.000 A 
ATOM      3  C   UNL     1       3.216   5.314  17.870  0.00  0.00    +0.000 A 
ATOM      4  C   UNL     1       2.974   4.046  18.443  0.00  0.00    +0.000 A 
ATOM      5  C   UNL     1       3.634   2.933  17.887  0.00  0.00    +0.000 A 
ATOM      6  C   UNL     1       4.475   3.078  16.783  0.00  0.00    +0.000 A 
ENDROOT
BRANCH   1   8
ATOM      7  C   UNL     1       5.357   4.038  13.955  0.00  0.00    +0.000 C 
ATOM      8  N   UNL     1       5.736   4.487  15.293  0.00  0.00    +0.000 N 
ATOM      9  C   UNL     1       6.953   5.168  15.479  0.00  0.00    +0.000 C 
ATOM     10  O   UNL     1       7.742   5.326  14.539  0.00  0.00    +0.000 OA
BRANCH   9  11
ATOM     11  C   UNL     1       7.362   5.766  16.798  0.00  0.00    +0.000 A 
ATOM     12  C   UNL     1       7.495   7.135  17.071  0.00  0.00    +0.000 A 
ATOM     13  C   UNL     1       7.984   7.536  18.297  0.00  0.00    +0.000 A 
ATOM     14  N   UNL     1       8.263   6.685  19.301  0.00  0.00    +0.000 NA
ATOM     15  C   UNL     1       8.037   5.378  19.063  0.00  0.00    +0.000 A 
ATOM     16  C   UNL     1       7.601   4.876  17.848  0.00  0.00    +0.000 A 
ENDBRANCH   9  11
ENDBRANCH   1   8
BRANCH   4  17
ATOM     17  C   UNL     1       1.999   3.859  19.627  0.00  0.00    +0.000 C 
BRANCH  17  18
ATOM     18  C   UNL     1       2.206   2.481  20.312  0.00  0.00    +0.000 C 
ATOM     19  F   UNL     1       1.926   1.441  19.487  0.00  0.00    +0.000 F 
ATOM     20  F   UNL     1       3.422   2.234  20.826  0.00  0.00    +0.000 F 
ATOM     21  F   UNL     1       1.316   2.354  21.342  0.00  0.00    +0.000 F 
ENDBRANCH  17  18
BRANCH  17  22
ATOM     22  C   UNL     1       2.112   5.007  20.668  0.00  0.00    +0.000 C 
ATOM     23  F   UNL     1       2.411   4.545  21.913  0.00  0.00    +0.000 F 
ATOM     24  F   UNL     1       3.110   5.873  20.353  0.00  0.00    +0.000 F 
ATOM     25  F   UNL     1       1.004   5.762  20.822  0.00  0.00    +0.000 F 
ENDBRANCH  17  22
BRANCH  17  26
ATOM     26  O   UNL     1       0.650   3.895  19.033  0.00  0.00    +0.000 OA
ATOM     27  H   UNL     1       0.524   4.785  18.653  0.00  0.00    +0.000 HD
ENDBRANCH  17  26
ENDBRANCH   4  17
TORSDOF 6
ENDMDL
MODEL 9
REMARK VINA RESULT:      -7.3      3.888      6.583
REMARK  Name = 
REMARK  7 active torsions:
REMARK  status: ('A' for Active; 'I' for Inactive)
REMARK    1  A    between atoms: C_1  and  N_2
REMARK    2  A    between atoms: N_2  and  C_11
REMARK    3  A    between atoms: C_3  and  C_5
REMARK    4  A    between atoms: C_14  and  C_15
REMARK    5  A    between atoms: C_15  and  O_16
REMARK    6  A    between atoms: C_15  and  C_17
REMARK    7  A    between atoms: C_15  and  C_21
REMARK                            x       y       z     vdW  Elec       q    Type
REMARK                         _______ _______ _______ _____ _____    ______ ____
ROOT
ATOM      1  C   UNL     1       3.466   3.454  18.585  0.00  0.00    +0.000 A 
ATOM      2  C   UNL     1       4.589   3.750  19.354  0.00  0.00    +0.000 A 
ATOM      3  C   UNL     1       5.731   4.260  18.732  0.00  0.00    +0.000 A 
ATOM      4  C   UNL     1       5.769   4.486  17.340  0.00  0.00    +0.000 A 
ATOM      5  C   UNL     1       4.620   4.171  16.588  0.00  0.00    +0.000 A 
ATOM      6  C   UNL     1       3.493   3.622  17.199  0.00  0.00    +0.000 A 
ENDROOT
BRANCH   1   8
ATOM      7  C   UNL     1       2.055   1.655  19.363  0.00  0.00    +0.000 C 
ATOM      8  N   UNL     1       2.252   3.093  19.193  0.00  0.00    +0.000 N 
ATOM      9  C   UNL     1       1.348   3.993  19.786  0.00  0.00    +0.000 C 
ATOM     10  O   UNL     1       0.346   3.584  20.385  0.00  0.00    +0.000 OA
BRANCH   9  11
ATOM     11  C   UNL     1       1.545   5.485  19.759  0.00  0.00    +0.000 A 
ATOM     12  C   UNL     1       1.960   6.236  18.651  0.00  0.00    +0.000 A 
ATOM     13  C   UNL     1       2.204   7.586  18.801  0.00  0.00    +0.000 A 
ATOM     14  N   UNL     1       1.979   8.259  19.943  0.00  0.00    +0.000 NA
ATOM     15  C   UNL     1       1.485   7.548  20.975  0.00  0.00    +0.000 A 
ATOM     16  C   UNL     1       1.261   6.181  20.936  0.00  0.00    +0.000 A 
ENDBRANCH   9  11
ENDBRANCH   1   8
BRANCH   4  17
ATOM     17  C   UNL     1       7.029   5.037  16.636  0.00  0.00    +0.000 C 
BRANCH  17  18
ATOM     18  C   UNL     1       6.893   4.953  15.092  0.00  0.00    +0.000 C 
ATOM     19  F   UNL     1       5.867   5.703  14.617  0.00  0.00    +0.000 F 
ATOM     20  F   UNL     1       7.971   5.294  14.367  0.00  0.00    +0.000 F 
ATOM     21  F   UNL     1       6.577   3.671  14.738  0.00  0.00    +0.000 F 
ENDBRANCH  17  18
BRANCH  17  22
ATOM     22  C   UNL     1       7.360   6.490  17.076  0.00  0.00    +0.000 C 
ATOM     23  F   UNL     1       6.238   7.233  17.280  0.00  0.00    +0.000 F 
ATOM     24  F   UNL     1       8.031   6.515  18.257  0.00  0.00    +0.000 F 
ATOM     25  F   UNL     1       8.110   7.203  16.211  0.00  0.00    +0.000 F 
ENDBRANCH  17  22
BRANCH  17  26
ATOM     26  O   UNL     1       8.133   4.155  17.063  0.00  0.00    +0.000 OA
ATOM     27  H   UNL     1       8.813   4.184  16.364  0.00  0.00    +0.000 HD
ENDBRANCH  17  26
ENDBRANCH   4  17
TORSDOF 6
ENDMDL
