MODEL 1
REMARK VINA RESULT:      -7.5      0.000      0.000
REMARK  Name = 
REMARK  9 active torsions:
REMARK  status: ('A' for Active; 'I' for Inactive)
REMARK    1  A    between atoms: C_1  and  C_2
REMARK    2  A    between atoms: C_2  and  O_3
REMARK    3  A    between atoms: O_3  and  C_4
REMARK    4  A    between atoms: C_6  and  C_7
REMARK    5  A    between atoms: C_8  and  C_9
REMARK    6  A    between atoms: C_10  and  C_11
REMARK    7  A    between atoms: N_14  and  C_15
REMARK    8  A    between atoms: C_20  and  C_21
REMARK    9  A    between atoms: C_25  and  O_26
REMARK                            x       y       z     vdW  Elec       q    Type
REMARK                         _______ _______ _______ _____ _____    ______ ____
ROOT
ATOM      1  C   UNL     1       2.804   5.626  18.324  0.00  0.00    +0.000 A 
ATOM      2  C   UNL     1       3.861   5.794  17.380  0.00  0.00    +0.000 A 
ATOM      3  C   UNL     1       4.363   7.158  16.962  0.00  0.00    +0.000 C 
ATOM      4  C   UNL     1       4.457   4.643  16.821  0.00  0.00    +0.000 A 
ATOM      5  N   UNL     1       3.995   3.389  17.041  0.00  0.00    +0.000 NA
ATOM      6  C   UNL     1       2.958   3.229  17.871  0.00  0.00    +0.000 A 
ATOM      7  N   UNL     1       2.582   1.900  18.068  0.00  0.00    +0.000 N 
ATOM      8  C   UNL     1       2.357   4.293  18.559  0.00  0.00    +0.000 A 
ATOM      9  H   UNL     1       3.125   1.319  17.433  0.00  0.00    +0.000 HD
ATOM     10  H   UNL     1       1.584   1.731  17.992  0.00  0.00    +0.000 HD
ENDROOT
BRANCH   1  13
ATOM     11  C   UNL     1       1.240   9.064  19.111  0.00  0.00    +0.000 A 
ATOM     12  C   UNL     1       1.799   7.976  18.414  0.00  0.00    +0.000 A 
ATOM     13  C   UNL     1       2.217   6.799  19.057  0.00  0.00    +0.000 A 
ATOM     14  C   UNL     1       2.064   6.772  20.459  0.00  0.00    +0.000 A 
ATOM     15  C   UNL     1       1.634   7.891  21.179  0.00  0.00    +0.000 A 
ATOM     16  C   UNL     1       1.225   9.038  20.505  0.00  0.00    +0.000 A 
BRANCH  16  17
ATOM     17  O   UNL     1       0.835  10.129  21.227  0.00  0.00    +0.000 OA
ATOM     18  H   UNL     1       1.473  10.848  21.090  0.00  0.00    +0.000 HD
ENDBRANCH  16  17
BRANCH  11  19
ATOM     19  O   UNL     1       0.792  10.078  18.307  0.00  0.00    +0.000 OA
BRANCH  19  21
ATOM     20  C   UNL     1      -1.246  11.292  18.597  0.00  0.00    +0.000 C 
ATOM     21  C   UNL     1      -0.602  10.059  17.985  0.00  0.00    +0.000 C 
ENDBRANCH  19  21
ENDBRANCH  11  19
ENDBRANCH   1  13
BRANCH   4  22
ATOM     22  C   UNL     1       5.664   4.704  16.006  0.00  0.00    +0.000 A 
ATOM     23  C   UNL     1       7.031   4.706  16.373  0.00  0.00    +0.000 A 
ATOM     24  N   UNL     1       7.855   4.798  15.328  0.00  0.00    +0.000 NA
ATOM     25  N   UNL     1       7.019   4.805  14.274  0.00  0.00    +0.000 N 
ATOM     26  C   UNL     1       7.560   4.888  12.939  0.00  0.00    +0.000 C 
ATOM     27  C   UNL     1       5.701   4.725  14.625  0.00  0.00    +0.000 A 
ENDBRANCH   4  22
BRANCH   8  28
ATOM     28  C   UNL     1       1.302   3.981  19.481  0.00  0.00    +0.000 C 
ATOM     29  N   UNL     1       0.463   3.664  20.218  0.00  0.00    +0.000 NA
ENDBRANCH   8  28
TORSDOF 6
ENDMDL
MODEL 2
REMARK VINA RESULT:      -7.2      1.023      1.914
REMARK  Name = 
REMARK  9 active torsions:
REMARK  status: ('A' for Active; 'I' for Inactive)
REMARK    1  A    between atoms: C_1  and  C_2
REMARK    2  A    between atoms: C_2  and  O_3
REMARK    3  A    between atoms: O_3  and  C_4
REMARK    4  A    between atoms: C_6  and  C_7
REMARK    5  A    between atoms: C_8  and  C_9
REMARK    6  A    between atoms: C_10  and  C_11
REMARK    7  A    between atoms: N_14  and  C_15
REMARK    8  A    between atoms: C_20  and  C_21
REMARK    9  A    between atoms: C_25  and  O_26
REMARK                            x       y       z     vdW  Elec       q    Type
REMARK                         _______ _______ _______ _____ _____    ______ ____
ROOT
ATOM      1  C   UNL     1       2.918   5.946  18.152  0.00  0.00    +0.000 A 
ATOM      2  C   UNL     1       3.895   5.956  17.111  0.00  0.00    +0.000 A 
ATOM      3  C   UNL     1       4.283   7.221  16.380  0.00  0.00    +0.000 C 
ATOM      4  C   UNL     1       4.518   4.740  16.759  0.00  0.00    +0.000 A 
ATOM      5  N   UNL     1       4.148   3.543  17.271  0.00  0.00    +0.000 NA
ATOM      6  C   UNL     1       3.183   3.517  18.198  0.00  0.00    +0.000 A 
ATOM      7  N   UNL     1       2.902   2.245  18.697  0.00  0.00    +0.000 N 
ATOM      8  C   UNL     1       2.569   4.676  18.695  0.00  0.00    +0.000 A 
ATOM      9  H   UNL     1       3.433   1.566  18.155  0.00  0.00    +0.000 HD
ATOM     10  H   UNL     1       1.913   2.020  18.738  0.00  0.00    +0.000 HD
ENDROOT
BRANCH   1  13
ATOM     11  C   UNL     1       1.442   8.630  20.498  0.00  0.00    +0.000 A 
ATOM     12  C   UNL     1       1.998   7.427  20.024  0.00  0.00    +0.000 A 
ATOM     13  C   UNL     1       2.314   7.221  18.670  0.00  0.00    +0.000 A 
ATOM     14  C   UNL     1       2.023   8.290  17.798  0.00  0.00    +0.000 A 
ATOM     15  C   UNL     1       1.352   9.438  18.230  0.00  0.00    +0.000 A 
ATOM     16  C   UNL     1       1.059   9.606  19.580  0.00  0.00    +0.000 A 
BRANCH  16  17
ATOM     17  O   UNL     1       0.379  10.722  19.978  0.00  0.00    +0.000 OA
ATOM     18  H   UNL     1       0.991  11.325  20.431  0.00  0.00    +0.000 HD
ENDBRANCH  16  17
BRANCH  11  19
ATOM     19  O   UNL     1       1.304   8.688  21.860  0.00  0.00    +0.000 OA
BRANCH  19  21
ATOM     20  C   UNL     1      -0.264   9.760  23.310  0.00  0.00    +0.000 C 
ATOM     21  C   UNL     1      -0.032   8.594  22.363  0.00  0.00    +0.000 C 
ENDBRANCH  19  21
ENDBRANCH  11  19
ENDBRANCH   1  13
BRANCH   4  22
ATOM     22  C   UNL     1       5.660   4.679  15.854  0.00  0.00    +0.000 A 
ATOM     23  C   UNL     1       7.047   4.809  16.102  0.00  0.00    +0.000 A 
ATOM     24  N   UNL     1       7.789   4.717  14.998  0.00  0.00    +0.000 NA
ATOM     25  N   UNL     1       6.882   4.476  14.034  0.00  0.00    +0.000 N 
ATOM     26  C   UNL     1       7.322   4.305  12.671  0.00  0.00    +0.000 C 
ATOM     27  C   UNL     1       5.598   4.418  14.498  0.00  0.00    +0.000 A 
ENDBRANCH   4  22
BRANCH   8  28
ATOM     28  C   UNL     1       1.601   4.520  19.743  0.00  0.00    +0.000 C 
ATOM     29  N   UNL     1       0.824   4.328  20.585  0.00  0.00    +0.000 NA
ENDBRANCH   8  28
TORSDOF 6
ENDMDL
MODEL 3
REMARK VINA RESULT:      -7.1      3.368      7.108
REMARK  Name = 
REMARK  9 active torsions:
REMARK  status: ('A' for Active; 'I' for Inactive)
REMARK    1  A    between atoms: C_1  and  C_2
REMARK    2  A    between atoms: C_2  and  O_3
REMARK    3  A    between atoms: O_3  and  C_4
REMARK    4  A    between atoms: C_6  and  C_7
REMARK    5  A    between atoms: C_8  and  C_9
REMARK    6  A    between atoms: C_10  and  C_11
REMARK    7  A    between atoms: N_14  and  C_15
REMARK    8  A    between atoms: C_20  and  C_21
REMARK    9  A    between atoms: C_25  and  O_26
REMARK                            x       y       z     vdW  Elec       q    Type
REMARK                         _______ _______ _______ _____ _____    ______ ____
ROOT
ATOM      1  C   UNL     1       3.522   5.682  18.855  0.00  0.00    +0.000 A 
ATOM      2  C   UNL     1       2.891   6.935  19.120  0.00  0.00    +0.000 A 
ATOM      3  C   UNL     1       3.238   8.193  18.357  0.00  0.00    +0.000 C 
ATOM      4  C   UNL     1       1.906   6.994  20.130  0.00  0.00    +0.000 A 
ATOM      5  N   UNL     1       1.618   5.952  20.945  0.00  0.00    +0.000 NA
ATOM      6  C   UNL     1       2.257   4.793  20.748  0.00  0.00    +0.000 A 
ATOM      7  N   UNL     1       1.863   3.767  21.607  0.00  0.00    +0.000 N 
ATOM      8  C   UNL     1       3.178   4.595  19.708  0.00  0.00    +0.000 A 
ATOM      9  H   UNL     1       1.227   4.160  22.299  0.00  0.00    +0.000 HD
ATOM     10  H   UNL     1       2.631   3.257  22.031  0.00  0.00    +0.000 HD
ENDROOT
BRANCH   1  13
ATOM     11  C   UNL     1       6.562   6.081  16.513  0.00  0.00    +0.000 A 
ATOM     12  C   UNL     1       5.669   6.253  17.588  0.00  0.00    +0.000 A 
ATOM     13  C   UNL     1       4.478   5.516  17.708  0.00  0.00    +0.000 A 
ATOM     14  C   UNL     1       4.212   4.598  16.672  0.00  0.00    +0.000 A 
ATOM     15  C   UNL     1       5.020   4.509  15.534  0.00  0.00    +0.000 A 
ATOM     16  C   UNL     1       6.193   5.253  15.454  0.00  0.00    +0.000 A 
BRANCH  16  17
ATOM     17  O   UNL     1       6.954   5.172  14.323  0.00  0.00    +0.000 OA
ATOM     18  H   UNL     1       6.622   5.808  13.668  0.00  0.00    +0.000 HD
ENDBRANCH  16  17
BRANCH  11  19
ATOM     19  O   UNL     1       7.720   6.805  16.621  0.00  0.00    +0.000 OA
BRANCH  19  21
ATOM     20  C   UNL     1       8.085   8.883  17.742  0.00  0.00    +0.000 C 
ATOM     21  C   UNL     1       7.990   7.375  17.905  0.00  0.00    +0.000 C 
ENDBRANCH  19  21
ENDBRANCH  11  19
ENDBRANCH   1  13
BRANCH   4  22
ATOM     22  C   UNL     1       1.070   8.170  20.340  0.00  0.00    +0.000 A 
ATOM     23  C   UNL     1       0.463   9.053  19.416  0.00  0.00    +0.000 A 
ATOM     24  N   UNL     1      -0.216  10.040  20.001  0.00  0.00    +0.000 NA
ATOM     25  N   UNL     1      -0.091   9.768  21.312  0.00  0.00    +0.000 N 
ATOM     26  C   UNL     1      -0.715  10.635  22.281  0.00  0.00    +0.000 C 
ATOM     27  C   UNL     1       0.647   8.647  21.566  0.00  0.00    +0.000 A 
ENDBRANCH   4  22
BRANCH   8  28
ATOM     28  C   UNL     1       3.739   3.282  19.556  0.00  0.00    +0.000 C 
ATOM     29  N   UNL     1       4.147   2.198  19.476  0.00  0.00    +0.000 NA
ENDBRANCH   8  28
TORSDOF 6
ENDMDL
MODEL 4
REMARK VINA RESULT:      -6.6      3.467      7.307
REMARK  Name = 
REMARK  9 active torsions:
REMARK  status: ('A' for Active; 'I' for Inactive)
REMARK    1  A    between atoms: C_1  and  C_2
REMARK    2  A    between atoms: C_2  and  O_3
REMARK    3  A    between atoms: O_3  and  C_4
REMARK    4  A    between atoms: C_6  and  C_7
REMARK    5  A    between atoms: C_8  and  C_9
REMARK    6  A    between atoms: C_10  and  C_11
REMARK    7  A    between atoms: N_14  and  C_15
REMARK    8  A    between atoms: C_20  and  C_21
REMARK    9  A    between atoms: C_25  and  O_26
REMARK                            x       y       z     vdW  Elec       q    Type
REMARK                         _______ _______ _______ _____ _____    ______ ____
ROOT
ATOM      1  C   UNL     1       3.876   6.005  18.536  0.00  0.00    +0.000 A 
ATOM      2  C   UNL     1       3.156   7.236  18.608  0.00  0.00    +0.000 A 
ATOM      3  C   UNL     1       3.474   8.412  17.713  0.00  0.00    +0.000 C 
ATOM      4  C   UNL     1       2.109   7.351  19.547  0.00  0.00    +0.000 A 
ATOM      5  N   UNL     1       1.833   6.399  20.469  0.00  0.00    +0.000 NA
ATOM      6  C   UNL     1       2.552   5.270  20.454  0.00  0.00    +0.000 A 
ATOM      7  N   UNL     1       2.166   4.333  21.413  0.00  0.00    +0.000 N 
ATOM      8  C   UNL     1       3.545   5.009  19.499  0.00  0.00    +0.000 A 
ATOM      9  H   UNL     1       1.466   4.763  22.014  0.00  0.00    +0.000 HD
ATOM     10  H   UNL     1       2.935   3.931  21.938  0.00  0.00    +0.000 HD
ENDROOT
BRANCH   1  13
ATOM     11  C   UNL     1       5.602   4.911  15.264  0.00  0.00    +0.000 A 
ATOM     12  C   UNL     1       4.626   5.120  16.257  0.00  0.00    +0.000 A 
ATOM     13  C   UNL     1       4.910   5.766  17.473  0.00  0.00    +0.000 A 
ATOM     14  C   UNL     1       6.246   6.181  17.656  0.00  0.00    +0.000 A 
ATOM     15  C   UNL     1       7.252   5.864  16.738  0.00  0.00    +0.000 A 
ATOM     16  C   UNL     1       6.930   5.227  15.543  0.00  0.00    +0.000 A 
BRANCH  16  17
ATOM     17  O   UNL     1       7.932   4.903  14.673  0.00  0.00    +0.000 OA
ATOM     18  H   UNL     1       7.991   5.586  13.986  0.00  0.00    +0.000 HD
ENDBRANCH  16  17
BRANCH  11  19
ATOM     19  O   UNL     1       5.117   4.364  14.105  0.00  0.00    +0.000 OA
BRANCH  19  21
ATOM     20  C   UNL     1       5.358   3.198  12.033  0.00  0.00    +0.000 C 
ATOM     21  C   UNL     1       6.056   3.633  13.311  0.00  0.00    +0.000 C 
ENDBRANCH  19  21
ENDBRANCH  11  19
ENDBRANCH   1  13
BRANCH   4  22
ATOM     22  C   UNL     1       1.192   8.485  19.562  0.00  0.00    +0.000 A 
ATOM     23  C   UNL     1       0.590   9.205  18.502  0.00  0.00    +0.000 A 
ATOM     24  N   UNL     1      -0.181  10.209  18.921  0.00  0.00    +0.000 NA
ATOM     25  N   UNL     1      -0.120  10.109  20.261  0.00  0.00    +0.000 N 
ATOM     26  C   UNL     1      -0.852  11.045  21.078  0.00  0.00    +0.000 C 
ATOM     27  C   UNL     1       0.668   9.080  20.694  0.00  0.00    +0.000 A 
ENDBRANCH   4  22
BRANCH   8  28
ATOM     28  C   UNL     1       4.193   3.728  19.544  0.00  0.00    +0.000 C 
ATOM     29  N   UNL     1       4.663   2.669  19.612  0.00  0.00    +0.000 NA
ENDBRANCH   8  28
TORSDOF 6
ENDMDL
MODEL 5
REMARK VINA RESULT:      -6.5      3.551      7.191
REMARK  Name = 
REMARK  9 active torsions:
REMARK  status: ('A' for Active; 'I' for Inactive)
REMARK    1  A    between atoms: C_1  and  C_2
REMARK    2  A    between atoms: C_2  and  O_3
REMARK    3  A    between atoms: O_3  and  C_4
REMARK    4  A    between atoms: C_6  and  C_7
REMARK    5  A    between atoms: C_8  and  C_9
REMARK    6  A    between atoms: C_10  and  C_11
REMARK    7  A    between atoms: N_14  and  C_15
REMARK    8  A    between atoms: C_20  and  C_21
REMARK    9  A    between atoms: C_25  and  O_26
REMARK                            x       y       z     vdW  Elec       q    Type
REMARK                         _______ _______ _______ _____ _____    ______ ____
ROOT
ATOM      1  C   UNL     1       3.317   4.982  18.853  0.00  0.00    +0.000 A 
ATOM      2  C   UNL     1       2.932   6.292  19.268  0.00  0.00    +0.000 A 
ATOM      3  C   UNL     1       3.685   7.531  18.838  0.00  0.00    +0.000 C 
ATOM      4  C   UNL     1       1.805   6.431  20.107  0.00  0.00    +0.000 A 
ATOM      5  N   UNL     1       1.144   5.376  20.640  0.00  0.00    +0.000 NA
ATOM      6  C   UNL     1       1.544   4.142  20.310  0.00  0.00    +0.000 A 
ATOM      7  N   UNL     1       0.776   3.122  20.873  0.00  0.00    +0.000 N 
ATOM      8  C   UNL     1       2.585   3.891  19.404  0.00  0.00    +0.000 A 
ATOM      9  H   UNL     1       0.117   3.543  21.525  0.00  0.00    +0.000 HD
ATOM     10  H   UNL     1       1.317   2.375  21.296  0.00  0.00    +0.000 HD
ENDROOT
BRANCH   1  13
ATOM     11  C   UNL     1       6.806   4.703  17.231  0.00  0.00    +0.000 A 
ATOM     12  C   UNL     1       5.781   4.914  18.173  0.00  0.00    +0.000 A 
ATOM     13  C   UNL     1       4.420   4.771  17.854  0.00  0.00    +0.000 A 
ATOM     14  C   UNL     1       4.130   4.420  16.520  0.00  0.00    +0.000 A 
ATOM     15  C   UNL     1       5.127   4.336  15.542  0.00  0.00    +0.000 A 
ATOM     16  C   UNL     1       6.464   4.480  15.898  0.00  0.00    +0.000 A 
BRANCH  16  17
ATOM     17  O   UNL     1       7.420   4.422  14.924  0.00  0.00    +0.000 OA
ATOM     18  H   UNL     1       7.512   5.297  14.513  0.00  0.00    +0.000 HD
ENDBRANCH  16  17
BRANCH  11  19
ATOM     19  O   UNL     1       8.072   4.781  17.749  0.00  0.00    +0.000 OA
BRANCH  19  21
ATOM     20  C   UNL     1       8.133   7.036  18.535  0.00  0.00    +0.000 C 
ATOM     21  C   UNL     1       8.222   5.572  18.931  0.00  0.00    +0.000 C 
ENDBRANCH  19  21
ENDBRANCH  11  19
ENDBRANCH   1  13
BRANCH   4  22
ATOM     22  C   UNL     1       1.219   7.727  20.422  0.00  0.00    +0.000 A 
ATOM     23  C   UNL     1       1.030   8.879  19.621  0.00  0.00    +0.000 A 
ATOM     24  N   UNL     1       0.471   9.894  20.283  0.00  0.00    +0.000 NA
ATOM     25  N   UNL     1       0.250   9.381  21.507  0.00  0.00    +0.000 N 
ATOM     26  C   UNL     1      -0.364  10.202  22.521  0.00  0.00    +0.000 C 
ATOM     27  C   UNL     1       0.656   8.082  21.634  0.00  0.00    +0.000 A 
ENDBRANCH   4  22
BRANCH   8  28
ATOM     28  C   UNL     1       2.868   2.522  19.076  0.00  0.00    +0.000 C 
ATOM     29  N   UNL     1       3.067   1.398  18.866  0.00  0.00    +0.000 NA
ENDBRANCH   8  28
TORSDOF 6
ENDMDL
MODEL 6
REMARK VINA RESULT:      -6.5      3.330      6.946
REMARK  Name = 
REMARK  9 active torsions:
REMARK  status: ('A' for Active; 'I' for Inactive)
REMARK    1  A    between atoms: C_1  and  C_2
REMARK    2  A    between atoms: C_2  and  O_3
REMARK    3  A    between atoms: O_3  and  C_4
REMARK    4  A    between atoms: C_6  and  C_7
REMARK    5  A    between atoms: C_8  and  C_9
REMARK    6  A    between atoms: C_10  and  C_11
REMARK    7  A    between atoms: N_14  and  C_15
REMARK    8  A    between atoms: C_20  and  C_21
REMARK    9  A    between atoms: C_25  and  O_26
REMARK                            x       y       z     vdW  Elec       q    Type
REMARK                         _______ _______ _______ _____ _____    ______ ____
ROOT
ATOM      1  C   UNL     1       3.319   5.126  18.831  0.00  0.00    +0.000 A 
ATOM      2  C   UNL     1       2.867   6.421  19.229  0.00  0.00    +0.000 A 
ATOM      3  C   UNL     1       3.495   7.693  18.706  0.00  0.00    +0.000 C 
ATOM      4  C   UNL     1       1.794   6.509  20.143  0.00  0.00    +0.000 A 
ATOM      5  N   UNL     1       1.253   5.431  20.756  0.00  0.00    +0.000 NA
ATOM      6  C   UNL     1       1.719   4.217  20.439  0.00  0.00    +0.000 A 
ATOM      7  N   UNL     1       1.071   3.166  21.090  0.00  0.00    +0.000 N 
ATOM      8  C   UNL     1       2.711   4.008  19.470  0.00  0.00    +0.000 A 
ATOM      9  H   UNL     1       0.429   3.564  21.773  0.00  0.00    +0.000 HD
ATOM     10  H   UNL     1       1.694   2.477  21.497  0.00  0.00    +0.000 HD
ENDROOT
BRANCH   1  13
ATOM     11  C   UNL     1       6.623   5.339  16.851  0.00  0.00    +0.000 A 
ATOM     12  C   UNL     1       5.650   5.514  17.853  0.00  0.00    +0.000 A 
ATOM     13  C   UNL     1       4.363   4.958  17.763  0.00  0.00    +0.000 A 
ATOM     14  C   UNL     1       4.087   4.223  16.592  0.00  0.00    +0.000 A 
ATOM     15  C   UNL     1       4.995   4.151  15.531  0.00  0.00    +0.000 A 
ATOM     16  C   UNL     1       6.262   4.712  15.660  0.00  0.00    +0.000 A 
BRANCH  16  17
ATOM     17  O   UNL     1       7.124   4.654  14.602  0.00  0.00    +0.000 OA
ATOM     18  H   UNL     1       7.144   5.518  14.158  0.00  0.00    +0.000 HD
ENDBRANCH  16  17
BRANCH  11  19
ATOM     19  O   UNL     1       7.851   5.861  17.161  0.00  0.00    +0.000 OA
BRANCH  19  21
ATOM     20  C   UNL     1       7.867   8.207  17.614  0.00  0.00    +0.000 C 
ATOM     21  C   UNL     1       7.881   6.816  18.226  0.00  0.00    +0.000 C 
ENDBRANCH  19  21
ENDBRANCH  11  19
ENDBRANCH   1  13
BRANCH   4  22
ATOM     22  C   UNL     1       1.136   7.772  20.456  0.00  0.00    +0.000 A 
ATOM     23  C   UNL     1       0.426   8.186  21.608  0.00  0.00    +0.000 A 
ATOM     24  N   UNL     1      -0.059   9.425  21.509  0.00  0.00    +0.000 NA
ATOM     25  N   UNL     1       0.382   9.835  20.306  0.00  0.00    +0.000 N 
ATOM     26  C   UNL     1       0.055  11.161  19.844  0.00  0.00    +0.000 C 
ATOM     27  C   UNL     1       1.121   8.893  19.648  0.00  0.00    +0.000 A 
ENDBRANCH   4  22
BRANCH   8  28
ATOM     28  C   UNL     1       3.072   2.651  19.167  0.00  0.00    +0.000 C 
ATOM     29  N   UNL     1       3.312   1.552  18.880  0.00  0.00    +0.000 NA
ENDBRANCH   8  28
TORSDOF 6
ENDMDL
MODEL 7
REMARK VINA RESULT:      -6.5      4.072      8.104
REMARK  Name = 
REMARK  9 active torsions:
REMARK  status: ('A' for Active; 'I' for Inactive)
REMARK    1  A    between atoms: C_1  and  C_2
REMARK    2  A    between atoms: C_2  and  O_3
REMARK    3  A    between atoms: O_3  and  C_4
REMARK    4  A    between atoms: C_6  and  C_7
REMARK    5  A    between atoms: C_8  and  C_9
REMARK    6  A    between atoms: C_10  and  C_11
REMARK    7  A    between atoms: N_14  and  C_15
REMARK    8  A    between atoms: C_20  and  C_21
REMARK    9  A    between atoms: C_25  and  O_26
REMARK                            x       y       z     vdW  Elec       q    Type
REMARK                         _______ _______ _______ _____ _____    ______ ____
ROOT
ATOM      1  C   UNL     1       2.319   7.233  19.178  0.00  0.00    +0.000 A 
ATOM      2  C   UNL     1       1.496   7.662  20.264  0.00  0.00    +0.000 A 
ATOM      3  C   UNL     1       1.058   6.725  21.366  0.00  0.00    +0.000 C 
ATOM      4  C   UNL     1       1.083   9.012  20.304  0.00  0.00    +0.000 A 
ATOM      5  N   UNL     1       1.324   9.890  19.303  0.00  0.00    +0.000 NA
ATOM      6  C   UNL     1       2.035   9.475  18.248  0.00  0.00    +0.000 A 
ATOM      7  N   UNL     1       2.267  10.462  17.289  0.00  0.00    +0.000 N 
ATOM      8  C   UNL     1       2.581   8.187  18.153  0.00  0.00    +0.000 A 
ATOM      9  H   UNL     1       1.736  11.290  17.552  0.00  0.00    +0.000 HD
ATOM     10  H   UNL     1       2.084  10.170  16.335  0.00  0.00    +0.000 HD
ENDROOT
BRANCH   1  13
ATOM     11  C   UNL     1       4.820   4.296  19.206  0.00  0.00    +0.000 A 
ATOM     12  C   UNL     1       4.284   5.598  19.231  0.00  0.00    +0.000 A 
ATOM     13  C   UNL     1       2.905   5.850  19.141  0.00  0.00    +0.000 A 
ATOM     14  C   UNL     1       2.076   4.717  19.002  0.00  0.00    +0.000 A 
ATOM     15  C   UNL     1       2.601   3.430  18.844  0.00  0.00    +0.000 A 
ATOM     16  C   UNL     1       3.973   3.221  18.943  0.00  0.00    +0.000 A 
BRANCH  16  17
ATOM     17  O   UNL     1       4.467   1.961  18.758  0.00  0.00    +0.000 OA
ATOM     18  H   UNL     1       3.745   1.371  18.485  0.00  0.00    +0.000 HD
ENDBRANCH  16  17
BRANCH  11  19
ATOM     19  O   UNL     1       6.173   4.240  19.415  0.00  0.00    +0.000 OA
BRANCH  19  21
ATOM     20  C   UNL     1       7.412   4.613  17.406  0.00  0.00    +0.000 C 
ATOM     21  C   UNL     1       6.959   5.216  18.726  0.00  0.00    +0.000 C 
ENDBRANCH  19  21
ENDBRANCH  11  19
ENDBRANCH   1  13
BRANCH   4  22
ATOM     22  C   UNL     1       0.414   9.590  21.463  0.00  0.00    +0.000 A 
ATOM     23  C   UNL     1       0.631   9.402  22.849  0.00  0.00    +0.000 A 
ATOM     24  N   UNL     1      -0.213  10.098  23.612  0.00  0.00    +0.000 NA
ATOM     25  N   UNL     1      -0.950  10.780  22.717  0.00  0.00    +0.000 N 
ATOM     26  C   UNL     1      -1.987  11.668  23.180  0.00  0.00    +0.000 C 
ATOM     27  C   UNL     1      -0.598  10.531  21.420  0.00  0.00    +0.000 A 
ENDBRANCH   4  22
BRANCH   8  28
ATOM     28  C   UNL     1       3.389   7.888  17.004  0.00  0.00    +0.000 C 
ATOM     29  N   UNL     1       4.090   7.626  16.117  0.00  0.00    +0.000 NA
ENDBRANCH   8  28
TORSDOF 6
ENDMDL
MODEL 8
REMARK VINA RESULT:      -6.3      6.069     11.378
REMARK  Name = 
REMARK  9 active torsions:
REMARK  status: ('A' for Active; 'I' for Inactive)
REMARK    1  A    between atoms: C_1  and  C_2
REMARK    2  A    between atoms: C_2  and  O_3
REMARK    3  A    between atoms: O_3  and  C_4
REMARK    4  A    between atoms: C_6  and  C_7
REMARK    5  A    between atoms: C_8  and  C_9
REMARK    6  A    between atoms: C_10  and  C_11
REMARK    7  A    between atoms: N_14  and  C_15
REMARK    8  A    between atoms: C_20  and  C_21
REMARK    9  A    between atoms: C_25  and  O_26
REMARK                            x       y       z     vdW  Elec       q    Type
REMARK                         _______ _______ _______ _____ _____    ______ ____
ROOT
ATOM      1  C   UNL     1      -2.906  12.136  19.201  0.00  0.00    +0.000 A 
ATOM      2  C   UNL     1      -3.457  12.618  20.427  0.00  0.00    +0.000 A 
ATOM      3  C   UNL     1      -2.591  13.045  21.590  0.00  0.00    +0.000 C 
ATOM      4  C   UNL     1      -4.861  12.699  20.549  0.00  0.00    +0.000 A 
ATOM      5  N   UNL     1      -5.715  12.226  19.611  0.00  0.00    +0.000 NA
ATOM      6  C   UNL     1      -5.204  11.708  18.488  0.00  0.00    +0.000 A 
ATOM      7  N   UNL     1      -6.161  11.287  17.564  0.00  0.00    +0.000 N 
ATOM      8  C   UNL     1      -3.828  11.673  18.219  0.00  0.00    +0.000 A 
ATOM      9  H   UNL     1      -7.078  11.367  17.998  0.00  0.00    +0.000 HD
ATOM     10  H   UNL     1      -5.993  10.364  17.177  0.00  0.00    +0.000 HD
ENDROOT
BRANCH   1  13
ATOM     11  C   UNL     1       0.782  11.046  18.885  0.00  0.00    +0.000 A 
ATOM     12  C   UNL     1      -0.604  11.023  19.133  0.00  0.00    +0.000 A 
ATOM     13  C   UNL     1      -1.424  12.150  18.952  0.00  0.00    +0.000 A 
ATOM     14  C   UNL     1      -0.774  13.326  18.524  0.00  0.00    +0.000 A 
ATOM     15  C   UNL     1       0.617  13.401  18.401  0.00  0.00    +0.000 A 
ATOM     16  C   UNL     1       1.394  12.261  18.584  0.00  0.00    +0.000 A 
BRANCH  16  17
ATOM     17  O   UNL     1       2.753  12.362  18.486  0.00  0.00    +0.000 OA
ATOM     18  H   UNL     1       3.136  11.472  18.419  0.00  0.00    +0.000 HD
ENDBRANCH  16  17
BRANCH  11  19
ATOM     19  O   UNL     1       1.397   9.828  19.011  0.00  0.00    +0.000 OA
BRANCH  19  21
ATOM     20  C   UNL     1       2.385   7.835  18.138  0.00  0.00    +0.000 C 
ATOM     21  C   UNL     1       1.753   9.173  17.790  0.00  0.00    +0.000 C 
ENDBRANCH  19  21
ENDBRANCH  11  19
ENDBRANCH   1  13
BRANCH   4  22
ATOM     22  C   UNL     1      -5.512  13.357  21.676  0.00  0.00    +0.000 A 
ATOM     23  C   UNL     1      -5.907  12.858  22.940  0.00  0.00    +0.000 A 
ATOM     24  N   UNL     1      -6.503  13.775  23.703  0.00  0.00    +0.000 NA
ATOM     25  N   UNL     1      -6.449  14.889  22.950  0.00  0.00    +0.000 N 
ATOM     26  C   UNL     1      -7.003  16.119  23.460  0.00  0.00    +0.000 C 
ATOM     27  C   UNL     1      -5.844  14.697  21.740  0.00  0.00    +0.000 A 
ENDBRANCH   4  22
BRANCH   8  28
ATOM     28  C   UNL     1      -3.410  11.160  16.945  0.00  0.00    +0.000 C 
ATOM     29  N   UNL     1      -3.101  10.687  15.930  0.00  0.00    +0.000 NA
ENDBRANCH   8  28
TORSDOF 6
ENDMDL
MODEL 9
REMARK VINA RESULT:      -6.2      4.142      6.800
REMARK  Name = 
REMARK  9 active torsions:
REMARK  status: ('A' for Active; 'I' for Inactive)
REMARK    1  A    between atoms: C_1  and  C_2
REMARK    2  A    between atoms: C_2  and  O_3
REMARK    3  A    between atoms: O_3  and  C_4
REMARK    4  A    between atoms: C_6  and  C_7
REMARK    5  A    between atoms: C_8  and  C_9
REMARK    6  A    between atoms: C_10  and  C_11
REMARK    7  A    between atoms: N_14  and  C_15
REMARK    8  A    between atoms: C_20  and  C_21
REMARK    9  A    between atoms: C_25  and  O_26
REMARK                            x       y       z     vdW  Elec       q    Type
REMARK                         _______ _______ _______ _____ _____    ______ ____
ROOT
ATOM      1  C   UNL     1       0.644  11.046  20.305  0.00  0.00    +0.000 A 
ATOM      2  C   UNL     1       1.221   9.965  19.572  0.00  0.00    +0.000 A 
ATOM      3  C   UNL     1       1.813  10.147  18.193  0.00  0.00    +0.000 C 
ATOM      4  C   UNL     1       1.237   8.683  20.163  0.00  0.00    +0.000 A 
ATOM      5  N   UNL     1       0.623   8.400  21.336  0.00  0.00    +0.000 NA
ATOM      6  C   UNL     1       0.019   9.395  21.995  0.00  0.00    +0.000 A 
ATOM      7  N   UNL     1      -0.547   9.016  23.213  0.00  0.00    +0.000 N 
ATOM      8  C   UNL     1       0.032  10.725  21.550  0.00  0.00    +0.000 A 
ATOM      9  H   UNL     1      -0.473   8.004  23.295  0.00  0.00    +0.000 HD
ATOM     10  H   UNL     1      -1.494   9.349  23.356  0.00  0.00    +0.000 HD
ENDROOT
BRANCH   1  13
ATOM     11  C   UNL     1       1.854  14.634  19.564  0.00  0.00    +0.000 A 
ATOM     12  C   UNL     1       1.797  13.315  20.055  0.00  0.00    +0.000 A 
ATOM     13  C   UNL     1       0.713  12.459  19.797  0.00  0.00    +0.000 A 
ATOM     14  C   UNL     1      -0.336  13.002  19.028  0.00  0.00    +0.000 A 
ATOM     15  C   UNL     1      -0.354  14.348  18.645  0.00  0.00    +0.000 A 
ATOM     16  C   UNL     1       0.740  15.163  18.916  0.00  0.00    +0.000 A 
BRANCH  16  17
ATOM     17  O   UNL     1       0.690  16.480  18.558  0.00  0.00    +0.000 OA
ATOM     18  H   UNL     1       0.987  16.573  17.638  0.00  0.00    +0.000 HD
ENDBRANCH  16  17
BRANCH  11  19
ATOM     19  O   UNL     1       3.034  15.281  19.824  0.00  0.00    +0.000 OA
BRANCH  19  21
ATOM     20  C   UNL     1       4.180  15.299  17.728  0.00  0.00    +0.000 C 
ATOM     21  C   UNL     1       4.192  14.775  19.154  0.00  0.00    +0.000 C 
ENDBRANCH  19  21
ENDBRANCH  11  19
ENDBRANCH   1  13
BRANCH   4  22
ATOM     22  C   UNL     1       1.973   7.565  19.585  0.00  0.00    +0.000 A 
ATOM     23  C   UNL     1       2.667   7.446  18.357  0.00  0.00    +0.000 A 
ATOM     24  N   UNL     1       3.201   6.239  18.170  0.00  0.00    +0.000 NA
ATOM     25  N   UNL     1       2.896   5.585  19.305  0.00  0.00    +0.000 N 
ATOM     26  C   UNL     1       3.325   4.219  19.476  0.00  0.00    +0.000 C 
ATOM     27  C   UNL     1       2.185   6.342  20.193  0.00  0.00    +0.000 A 
ENDBRANCH   4  22
BRANCH   8  28
ATOM     28  C   UNL     1      -0.588  11.714  22.387  0.00  0.00    +0.000 C 
ATOM     29  N   UNL     1      -1.028  12.534  23.081  0.00  0.00    +0.000 NA
ENDBRANCH   8  28
TORSDOF 6
ENDMDL
