MODEL 1
REMARK VINA RESULT:      -8.2      0.000      0.000
REMARK  Name = 
REMARK  7 active torsions:
REMARK  status: ('A' for Active; 'I' for Inactive)
REMARK    1  A    between atoms: C_1  and  C_2
REMARK    2  A    between atoms: C_4  and  C_5
REMARK    3  A    between atoms: C_7  and  N_8
REMARK    4  A    between atoms: C_9  and  C_11
REMARK    5  A    between atoms: C_11  and  C_12
REMARK    6  A    between atoms: C_12  and  C_13
REMARK    7  A    between atoms: C_13  and  N_14
REMARK                            x       y       z     vdW  Elec       q    Type
REMARK                         _______ _______ _______ _____ _____    ______ ____
ROOT
ATOM      1  C   UNL     1       6.246   4.752  18.190  0.00  0.00    +0.000 C 
ENDROOT
BRANCH   1   2
ATOM      2  N   UNL     1       4.870   4.732  18.691  0.00  0.00    +0.000 N 
ATOM      3  C   UNL     1       4.498   3.634  19.487  0.00  0.00    +0.000 A 
ATOM      4  O   UNL     1       5.276   2.713  19.739  0.00  0.00    +0.000 OA
ATOM      5  C   UNL     1       3.152   3.656  19.995  0.00  0.00    +0.000 A 
ATOM      6  C   UNL     1       2.492   2.726  20.778  0.00  0.00    +0.000 A 
ATOM      7  C   UNL     1       1.188   3.214  21.016  0.00  0.00    +0.000 A 
ATOM      8  C   UNL     1       1.090   4.430  20.374  0.00  0.00    +0.000 A 
ATOM      9  N   UNL     1       2.289   4.695  19.750  0.00  0.00    +0.000 N 
ATOM     10  C   UNL     1       2.668   5.813  18.984  0.00  0.00    +0.000 A 
ATOM     11  C   UNL     1       1.772   6.869  18.758  0.00  0.00    +0.000 A 
ATOM     12  C   UNL     1       2.178   7.971  18.010  0.00  0.00    +0.000 A 
ATOM     13  C   UNL     1       3.469   8.018  17.494  0.00  0.00    +0.000 A 
ATOM     14  C   UNL     1       4.360   6.962  17.720  0.00  0.00    +0.000 A 
ATOM     15  C   UNL     1       3.976   5.834  18.461  0.00  0.00    +0.000 A 
ENDBRANCH   1   2
BRANCH   1  16
ATOM     16  C   UNL     1       6.308   4.326  16.724  0.00  0.00    +0.000 C 
BRANCH  16  17
ATOM     17  C   UNL     1       7.108   5.298  15.862  0.00  0.00    +0.000 C 
BRANCH  17  19
ATOM     18  N   UNL     1       5.773   4.144  14.193  0.00  0.00    +0.000 N 
ATOM     19  C   UNL     1       6.869   4.963  14.404  0.00  0.00    +0.000 C 
ATOM     20  O   UNL     1       7.643   5.384  13.549  0.00  0.00    +0.000 OA
ATOM     21  H   UNL     1       5.104   4.050  14.948  0.00  0.00    +0.000 HD
BRANCH  18  28
ATOM     22  C   UNL     1       6.447   0.442  10.992  0.00  0.00    +0.000 C 
ATOM     23  C   UNL     1       5.758   1.721  11.373  0.00  0.00    +0.000 A 
ATOM     24  C   UNL     1       4.764   2.263  10.550  0.00  0.00    +0.000 A 
ATOM     25  C   UNL     1       4.110   3.444  10.912  0.00  0.00    +0.000 A 
ATOM     26  C   UNL     1       3.057   4.058  10.038  0.00  0.00    +0.000 C 
ATOM     27  C   UNL     1       4.444   4.070  12.120  0.00  0.00    +0.000 A 
ATOM     28  C   UNL     1       5.420   3.540  12.965  0.00  0.00    +0.000 A 
ATOM     29  C   UNL     1       6.095   2.377  12.570  0.00  0.00    +0.000 A 
ENDBRANCH  18  28
ENDBRANCH  17  19
ENDBRANCH  16  17
ENDBRANCH   1  16
TORSDOF 5
ENDMDL
MODEL 2
REMARK VINA RESULT:      -8.2      4.582      8.369
REMARK  Name = 
REMARK  7 active torsions:
REMARK  status: ('A' for Active; 'I' for Inactive)
REMARK    1  A    between atoms: C_1  and  C_2
REMARK    2  A    between atoms: C_4  and  C_5
REMARK    3  A    between atoms: C_7  and  N_8
REMARK    4  A    between atoms: C_9  and  C_11
REMARK    5  A    between atoms: C_11  and  C_12
REMARK    6  A    between atoms: C_12  and  C_13
REMARK    7  A    between atoms: C_13  and  N_14
REMARK                            x       y       z     vdW  Elec       q    Type
REMARK                         _______ _______ _______ _____ _____    ______ ____
ROOT
ATOM      1  C   UNL     1       2.558   7.666  19.734  0.00  0.00    +0.000 C 
ENDROOT
BRANCH   1   2
ATOM      2  N   UNL     1       2.658   6.296  19.226  0.00  0.00    +0.000 N 
ATOM      3  C   UNL     1       1.837   5.330  19.834  0.00  0.00    +0.000 A 
ATOM      4  O   UNL     1       1.082   5.604  20.767  0.00  0.00    +0.000 OA
ATOM      5  C   UNL     1       1.929   3.999  19.294  0.00  0.00    +0.000 A 
ATOM      6  C   UNL     1       1.275   2.845  19.682  0.00  0.00    +0.000 A 
ATOM      7  C   UNL     1       1.702   1.802  18.830  0.00  0.00    +0.000 A 
ATOM      8  C   UNL     1       2.603   2.352  17.943  0.00  0.00    +0.000 A 
ATOM      9  N   UNL     1       2.741   3.691  18.231  0.00  0.00    +0.000 N 
ATOM     10  C   UNL     1       3.539   4.662  17.596  0.00  0.00    +0.000 A 
ATOM     11  C   UNL     1       4.350   4.324  16.502  0.00  0.00    +0.000 A 
ATOM     12  C   UNL     1       5.117   5.308  15.883  0.00  0.00    +0.000 A 
ATOM     13  C   UNL     1       5.070   6.618  16.350  0.00  0.00    +0.000 A 
ATOM     14  C   UNL     1       4.260   6.950  17.442  0.00  0.00    +0.000 A 
ATOM     15  C   UNL     1       3.485   5.979  18.093  0.00  0.00    +0.000 A 
ENDBRANCH   1   2
BRANCH   1  16
ATOM     16  C   UNL     1       1.439   8.436  19.033  0.00  0.00    +0.000 C 
BRANCH  16  17
ATOM     17  C   UNL     1       1.001   9.674  19.811  0.00  0.00    +0.000 C 
BRANCH  17  19
ATOM     18  N   UNL     1      -1.167   9.816  18.723  0.00  0.00    +0.000 N 
ATOM     19  C   UNL     1       0.033  10.466  18.955  0.00  0.00    +0.000 C 
ATOM     20  O   UNL     1       0.371  11.560  18.511  0.00  0.00    +0.000 OA
ATOM     21  H   UNL     1      -1.396   9.028  19.318  0.00  0.00    +0.000 HD
BRANCH  18  28
ATOM     22  C   UNL     1      -5.394  12.275  18.028  0.00  0.00    +0.000 C 
ATOM     23  C   UNL     1      -4.271  11.442  17.482  0.00  0.00    +0.000 A 
ATOM     24  C   UNL     1      -4.210  11.142  16.115  0.00  0.00    +0.000 A 
ATOM     25  C   UNL     1      -3.156  10.381  15.602  0.00  0.00    +0.000 A 
ATOM     26  C   UNL     1      -3.079  10.027  14.147  0.00  0.00    +0.000 C 
ATOM     27  C   UNL     1      -2.145   9.939  16.466  0.00  0.00    +0.000 A 
ATOM     28  C   UNL     1      -2.175  10.240  17.829  0.00  0.00    +0.000 A 
ATOM     29  C   UNL     1      -3.259  10.969  18.336  0.00  0.00    +0.000 A 
ENDBRANCH  18  28
ENDBRANCH  17  19
ENDBRANCH  16  17
ENDBRANCH   1  16
TORSDOF 5
ENDMDL
MODEL 3
REMARK VINA RESULT:      -8.2      4.584      8.308
REMARK  Name = 
REMARK  7 active torsions:
REMARK  status: ('A' for Active; 'I' for Inactive)
REMARK    1  A    between atoms: C_1  and  C_2
REMARK    2  A    between atoms: C_4  and  C_5
REMARK    3  A    between atoms: C_7  and  N_8
REMARK    4  A    between atoms: C_9  and  C_11
REMARK    5  A    between atoms: C_11  and  C_12
REMARK    6  A    between atoms: C_12  and  C_13
REMARK    7  A    between atoms: C_13  and  N_14
REMARK                            x       y       z     vdW  Elec       q    Type
REMARK                         _______ _______ _______ _____ _____    ______ ____
ROOT
ATOM      1  C   UNL     1       2.783   7.813  19.384  0.00  0.00    +0.000 C 
ENDROOT
BRANCH   1   2
ATOM      2  N   UNL     1       2.824   6.386  19.059  0.00  0.00    +0.000 N 
ATOM      3  C   UNL     1       1.993   5.538  19.813  0.00  0.00    +0.000 A 
ATOM      4  O   UNL     1       1.277   5.958  20.722  0.00  0.00    +0.000 OA
ATOM      5  C   UNL     1       2.026   4.145  19.451  0.00  0.00    +0.000 A 
ATOM      6  C   UNL     1       1.348   3.075  20.007  0.00  0.00    +0.000 A 
ATOM      7  C   UNL     1       1.714   1.915  19.288  0.00  0.00    +0.000 A 
ATOM      8  C   UNL     1       2.603   2.311  18.312  0.00  0.00    +0.000 A 
ATOM      9  N   UNL     1       2.792   3.671  18.416  0.00  0.00    +0.000 N 
ATOM     10  C   UNL     1       3.599   4.522  17.635  0.00  0.00    +0.000 A 
ATOM     11  C   UNL     1       4.364   4.014  16.574  0.00  0.00    +0.000 A 
ATOM     12  C   UNL     1       5.141   4.880  15.809  0.00  0.00    +0.000 A 
ATOM     13  C   UNL     1       5.150   6.241  16.100  0.00  0.00    +0.000 A 
ATOM     14  C   UNL     1       4.386   6.742  17.160  0.00  0.00    +0.000 A 
ATOM     15  C   UNL     1       3.603   5.893  17.956  0.00  0.00    +0.000 A 
ENDBRANCH   1   2
BRANCH   1  16
ATOM     16  C   UNL     1       1.523   8.473  18.825  0.00  0.00    +0.000 C 
BRANCH  16  17
ATOM     17  C   UNL     1       0.990   9.581  19.728  0.00  0.00    +0.000 C 
BRANCH  17  19
ATOM     18  N   UNL     1      -1.206   9.793  18.711  0.00  0.00    +0.000 N 
ATOM     19  C   UNL     1       0.007  10.421  18.936  0.00  0.00    +0.000 C 
ATOM     20  O   UNL     1       0.345  11.530  18.531  0.00  0.00    +0.000 OA
ATOM     21  H   UNL     1      -1.428   8.983  19.277  0.00  0.00    +0.000 HD
BRANCH  18  28
ATOM     22  C   UNL     1      -3.106  10.055  14.159  0.00  0.00    +0.000 C 
ATOM     23  C   UNL     1      -3.170  10.412  15.616  0.00  0.00    +0.000 A 
ATOM     24  C   UNL     1      -4.248  11.152  16.118  0.00  0.00    +0.000 A 
ATOM     25  C   UNL     1      -4.318  11.470  17.477  0.00  0.00    +0.000 A 
ATOM     26  C   UNL     1      -5.450  12.281  18.036  0.00  0.00    +0.000 C 
ATOM     27  C   UNL     1      -3.309  11.021  18.340  0.00  0.00    +0.000 A 
ATOM     28  C   UNL     1      -2.234  10.267  17.865  0.00  0.00    +0.000 A 
ATOM     29  C   UNL     1      -2.156   9.990  16.494  0.00  0.00    +0.000 A 
ENDBRANCH  18  28
ENDBRANCH  17  19
ENDBRANCH  16  17
ENDBRANCH   1  16
TORSDOF 5
ENDMDL
MODEL 4
REMARK VINA RESULT:      -8.1      4.646      8.790
REMARK  Name = 
REMARK  7 active torsions:
REMARK  status: ('A' for Active; 'I' for Inactive)
REMARK    1  A    between atoms: C_1  and  C_2
REMARK    2  A    between atoms: C_4  and  C_5
REMARK    3  A    between atoms: C_7  and  N_8
REMARK    4  A    between atoms: C_9  and  C_11
REMARK    5  A    between atoms: C_11  and  C_12
REMARK    6  A    between atoms: C_12  and  C_13
REMARK    7  A    between atoms: C_13  and  N_14
REMARK                            x       y       z     vdW  Elec       q    Type
REMARK                         _______ _______ _______ _____ _____    ______ ____
ROOT
ATOM      1  C   UNL     1       2.040   7.738  19.706  0.00  0.00    +0.000 C 
ENDROOT
BRANCH   1   2
ATOM      2  N   UNL     1       2.606   6.596  18.985  0.00  0.00    +0.000 N 
ATOM      3  C   UNL     1       3.522   6.882  17.957  0.00  0.00    +0.000 A 
ATOM      4  O   UNL     1       3.825   8.035  17.650  0.00  0.00    +0.000 OA
ATOM      5  C   UNL     1       4.090   5.741  17.288  0.00  0.00    +0.000 A 
ATOM      6  C   UNL     1       4.990   5.694  16.239  0.00  0.00    +0.000 A 
ATOM      7  C   UNL     1       5.242   4.334  15.951  0.00  0.00    +0.000 A 
ATOM      8  C   UNL     1       4.489   3.590  16.834  0.00  0.00    +0.000 A 
ATOM      9  N   UNL     1       3.786   4.451  17.646  0.00  0.00    +0.000 N 
ATOM     10  C   UNL     1       2.897   4.159  18.698  0.00  0.00    +0.000 A 
ATOM     11  C   UNL     1       2.613   2.832  19.053  0.00  0.00    +0.000 A 
ATOM     12  C   UNL     1       1.742   2.572  20.108  0.00  0.00    +0.000 A 
ATOM     13  C   UNL     1       1.163   3.629  20.803  0.00  0.00    +0.000 A 
ATOM     14  C   UNL     1       1.448   4.951  20.445  0.00  0.00    +0.000 A 
ATOM     15  C   UNL     1       2.313   5.245  19.380  0.00  0.00    +0.000 A 
ENDBRANCH   1   2
BRANCH   1  16
ATOM     16  C   UNL     1       1.409   8.743  18.742  0.00  0.00    +0.000 C 
BRANCH  16  17
ATOM     17  C   UNL     1       1.344  10.152  19.323  0.00  0.00    +0.000 C 
BRANCH  17  19
ATOM     18  N   UNL     1      -0.894  10.009  18.388  0.00  0.00    +0.000 N 
ATOM     19  C   UNL     1       0.139  10.862  18.738  0.00  0.00    +0.000 C 
ATOM     20  O   UNL     1       0.169  12.079  18.582  0.00  0.00    +0.000 OA
ATOM     21  H   UNL     1      -0.876   9.069  18.765  0.00  0.00    +0.000 HD
BRANCH  18  28
ATOM     22  C   UNL     1      -5.297  12.250  18.396  0.00  0.00    +0.000 C 
ATOM     23  C   UNL     1      -4.238  11.467  17.673  0.00  0.00    +0.000 A 
ATOM     24  C   UNL     1      -4.390  11.155  16.317  0.00  0.00    +0.000 A 
ATOM     25  C   UNL     1      -3.398  10.441  15.638  0.00  0.00    +0.000 A 
ATOM     26  C   UNL     1      -3.546  10.075  14.191  0.00  0.00    +0.000 C 
ATOM     27  C   UNL     1      -2.237  10.059  16.324  0.00  0.00    +0.000 A 
ATOM     28  C   UNL     1      -2.057  10.374  17.672  0.00  0.00    +0.000 A 
ATOM     29  C   UNL     1      -3.077  11.055  18.349  0.00  0.00    +0.000 A 
ENDBRANCH  18  28
ENDBRANCH  17  19
ENDBRANCH  16  17
ENDBRANCH   1  16
TORSDOF 5
ENDMDL
MODEL 5
REMARK VINA RESULT:      -8.0      4.700      9.177
REMARK  Name = 
REMARK  7 active torsions:
REMARK  status: ('A' for Active; 'I' for Inactive)
REMARK    1  A    between atoms: C_1  and  C_2
REMARK    2  A    between atoms: C_4  and  C_5
REMARK    3  A    between atoms: C_7  and  N_8
REMARK    4  A    between atoms: C_9  and  C_11
REMARK    5  A    between atoms: C_11  and  C_12
REMARK    6  A    between atoms: C_12  and  C_13
REMARK    7  A    between atoms: C_13  and  N_14
REMARK                            x       y       z     vdW  Elec       q    Type
REMARK                         _______ _______ _______ _____ _____    ______ ____
ROOT
ATOM      1  C   UNL     1       2.892   7.933  18.820  0.00  0.00    +0.000 C 
ENDROOT
BRANCH   1   2
ATOM      2  N   UNL     1       2.927   6.469  18.785  0.00  0.00    +0.000 N 
ATOM      3  C   UNL     1       2.105   5.791  19.702  0.00  0.00    +0.000 A 
ATOM      4  O   UNL     1       1.401   6.386  20.517  0.00  0.00    +0.000 OA
ATOM      5  C   UNL     1       2.131   4.354  19.623  0.00  0.00    +0.000 A 
ATOM      6  C   UNL     1       1.459   3.418  20.389  0.00  0.00    +0.000 A 
ATOM      7  C   UNL     1       1.815   2.137  19.910  0.00  0.00    +0.000 A 
ATOM      8  C   UNL     1       2.692   2.328  18.864  0.00  0.00    +0.000 A 
ATOM      9  N   UNL     1       2.885   3.681  18.694  0.00  0.00    +0.000 N 
ATOM     10  C   UNL     1       3.682   4.356  17.751  0.00  0.00    +0.000 A 
ATOM     11  C   UNL     1       4.434   3.646  16.802  0.00  0.00    +0.000 A 
ATOM     12  C   UNL     1       5.202   4.340  15.871  0.00  0.00    +0.000 A 
ATOM     13  C   UNL     1       5.217   5.731  15.886  0.00  0.00    +0.000 A 
ATOM     14  C   UNL     1       4.467   6.436  16.834  0.00  0.00    +0.000 A 
ATOM     15  C   UNL     1       3.692   5.765  17.792  0.00  0.00    +0.000 A 
ENDBRANCH   1   2
BRANCH   1  16
ATOM     16  C   UNL     1       1.858   8.486  17.841  0.00  0.00    +0.000 C 
BRANCH  16  17
ATOM     17  C   UNL     1       1.608   9.979  18.030  0.00  0.00    +0.000 C 
BRANCH  17  19
ATOM     18  N   UNL     1      -0.587  11.019  18.083  0.00  0.00    +0.000 N 
ATOM     19  C   UNL     1       0.280  10.162  18.739  0.00  0.00    +0.000 C 
ATOM     20  O   UNL     1       0.083   9.600  19.812  0.00  0.00    +0.000 OA
ATOM     21  H   UNL     1      -0.388  11.239  17.115  0.00  0.00    +0.000 HD
BRANCH  18  28
ATOM     22  C   UNL     1      -5.506  11.236  17.683  0.00  0.00    +0.000 C 
ATOM     23  C   UNL     1      -4.242  11.624  18.395  0.00  0.00    +0.000 A 
ATOM     24  C   UNL     1      -4.293  12.401  19.558  0.00  0.00    +0.000 A 
ATOM     25  C   UNL     1      -3.118  12.749  20.232  0.00  0.00    +0.000 A 
ATOM     26  C   UNL     1      -3.144  13.599  21.467  0.00  0.00    +0.000 C 
ATOM     27  C   UNL     1      -1.887  12.292  19.743  0.00  0.00    +0.000 A 
ATOM     28  C   UNL     1      -1.812  11.501  18.595  0.00  0.00    +0.000 A 
ATOM     29  C   UNL     1      -2.995  11.195  17.908  0.00  0.00    +0.000 A 
ENDBRANCH  18  28
ENDBRANCH  17  19
ENDBRANCH  16  17
ENDBRANCH   1  16
TORSDOF 5
ENDMDL
MODEL 6
REMARK VINA RESULT:      -8.0      4.744      9.207
REMARK  Name = 
REMARK  7 active torsions:
REMARK  status: ('A' for Active; 'I' for Inactive)
REMARK    1  A    between atoms: C_1  and  C_2
REMARK    2  A    between atoms: C_4  and  C_5
REMARK    3  A    between atoms: C_7  and  N_8
REMARK    4  A    between atoms: C_9  and  C_11
REMARK    5  A    between atoms: C_11  and  C_12
REMARK    6  A    between atoms: C_12  and  C_13
REMARK    7  A    between atoms: C_13  and  N_14
REMARK                            x       y       z     vdW  Elec       q    Type
REMARK                         _______ _______ _______ _____ _____    ______ ____
ROOT
ATOM      1  C   UNL     1       3.028   8.074  18.609  0.00  0.00    +0.000 C 
ENDROOT
BRANCH   1   2
ATOM      2  N   UNL     1       3.009   6.620  18.788  0.00  0.00    +0.000 N 
ATOM      3  C   UNL     1       2.194   6.116  19.817  0.00  0.00    +0.000 A 
ATOM      4  O   UNL     1       1.539   6.851  20.555  0.00  0.00    +0.000 OA
ATOM      5  C   UNL     1       2.167   4.683  19.949  0.00  0.00    +0.000 A 
ATOM      6  C   UNL     1       1.488   3.896  20.862  0.00  0.00    +0.000 A 
ATOM      7  C   UNL     1       1.783   2.546  20.567  0.00  0.00    +0.000 A 
ATOM      8  C   UNL     1       2.631   2.547  19.481  0.00  0.00    +0.000 A 
ATOM      9  N   UNL     1       2.865   3.852  19.108  0.00  0.00    +0.000 N 
ATOM     10  C   UNL     1       3.654   4.351  18.054  0.00  0.00    +0.000 A 
ATOM     11  C   UNL     1       4.348   3.480  17.200  0.00  0.00    +0.000 A 
ATOM     12  C   UNL     1       5.109   4.000  16.156  0.00  0.00    +0.000 A 
ATOM     13  C   UNL     1       5.174   5.377  15.966  0.00  0.00    +0.000 A 
ATOM     14  C   UNL     1       4.481   6.242  16.821  0.00  0.00    +0.000 A 
ATOM     15  C   UNL     1       3.715   5.749  17.888  0.00  0.00    +0.000 A 
ENDBRANCH   1   2
BRANCH   1  16
ATOM     16  C   UNL     1       1.808   8.550  17.821  0.00  0.00    +0.000 C 
BRANCH  16  17
ATOM     17  C   UNL     1       1.523  10.035  18.021  0.00  0.00    +0.000 C 
BRANCH  17  19
ATOM     18  N   UNL     1      -0.687  11.045  18.057  0.00  0.00    +0.000 N 
ATOM     19  C   UNL     1       0.180  10.183  18.707  0.00  0.00    +0.000 C 
ATOM     20  O   UNL     1      -0.031   9.591  19.763  0.00  0.00    +0.000 OA
ATOM     21  H   UNL     1      -0.472  11.292  17.099  0.00  0.00    +0.000 HD
BRANCH  18  28
ATOM     22  C   UNL     1      -3.131  13.717  21.417  0.00  0.00    +0.000 C 
ATOM     23  C   UNL     1      -3.141  12.806  20.223  0.00  0.00    +0.000 A 
ATOM     24  C   UNL     1      -4.350  12.462  19.606  0.00  0.00    +0.000 A 
ATOM     25  C   UNL     1      -4.360  11.627  18.484  0.00  0.00    +0.000 A 
ATOM     26  C   UNL     1      -5.643  11.225  17.817  0.00  0.00    +0.000 C 
ATOM     27  C   UNL     1      -3.146  11.155  17.969  0.00  0.00    +0.000 A 
ATOM     28  C   UNL     1      -1.928  11.499  18.558  0.00  0.00    +0.000 A 
ATOM     29  C   UNL     1      -1.935  12.303  19.705  0.00  0.00    +0.000 A 
ENDBRANCH  18  28
ENDBRANCH  17  19
ENDBRANCH  16  17
ENDBRANCH   1  16
TORSDOF 5
ENDMDL
MODEL 7
REMARK VINA RESULT:      -7.9      4.365      7.267
REMARK  Name = 
REMARK  7 active torsions:
REMARK  status: ('A' for Active; 'I' for Inactive)
REMARK    1  A    between atoms: C_1  and  C_2
REMARK    2  A    between atoms: C_4  and  C_5
REMARK    3  A    between atoms: C_7  and  N_8
REMARK    4  A    between atoms: C_9  and  C_11
REMARK    5  A    between atoms: C_11  and  C_12
REMARK    6  A    between atoms: C_12  and  C_13
REMARK    7  A    between atoms: C_13  and  N_14
REMARK                            x       y       z     vdW  Elec       q    Type
REMARK                         _______ _______ _______ _____ _____    ______ ____
ROOT
ATOM      1  C   UNL     1       5.920   4.886  17.373  0.00  0.00    +0.000 C 
ENDROOT
BRANCH   1   2
ATOM      2  N   UNL     1       4.741   4.875  18.242  0.00  0.00    +0.000 N 
ATOM      3  C   UNL     1       4.579   3.759  19.081  0.00  0.00    +0.000 A 
ATOM      4  O   UNL     1       5.371   2.817  19.080  0.00  0.00    +0.000 OA
ATOM      5  C   UNL     1       3.432   3.789  19.950  0.00  0.00    +0.000 A 
ATOM      6  C   UNL     1       2.995   2.847  20.863  0.00  0.00    +0.000 A 
ATOM      7  C   UNL     1       1.824   3.351  21.472  0.00  0.00    +0.000 A 
ATOM      8  C   UNL     1       1.581   4.588  20.915  0.00  0.00    +0.000 A 
ATOM      9  N   UNL     1       2.562   4.851  19.985  0.00  0.00    +0.000 N 
ATOM     10  C   UNL     1       2.740   5.986  19.171  0.00  0.00    +0.000 A 
ATOM     11  C   UNL     1       1.844   7.064  19.235  0.00  0.00    +0.000 A 
ATOM     12  C   UNL     1       2.052   8.182  18.431  0.00  0.00    +0.000 A 
ATOM     13  C   UNL     1       3.146   8.222  17.573  0.00  0.00    +0.000 A 
ATOM     14  C   UNL     1       4.036   7.144  17.511  0.00  0.00    +0.000 A 
ATOM     15  C   UNL     1       3.847   6.000  18.301  0.00  0.00    +0.000 A 
ENDBRANCH   1   2
BRANCH   1  16
ATOM     16  C   UNL     1       7.080   5.637  18.024  0.00  0.00    +0.000 C 
BRANCH  16  17
ATOM     17  C   UNL     1       7.391   6.958  17.327  0.00  0.00    +0.000 C 
BRANCH  17  19
ATOM     18  N   UNL     1       8.199   9.172  17.917  0.00  0.00    +0.000 N 
ATOM     19  C   UNL     1       8.177   7.836  18.280  0.00  0.00    +0.000 C 
ATOM     20  O   UNL     1       8.748   7.329  19.242  0.00  0.00    +0.000 OA
ATOM     21  H   UNL     1       7.518   9.485  17.235  0.00  0.00    +0.000 HD
BRANCH  18  28
ATOM     22  C   UNL     1      11.782  12.540  17.444  0.00  0.00    +0.000 C 
ATOM     23  C   UNL     1      10.768  11.833  18.296  0.00  0.00    +0.000 A 
ATOM     24  C   UNL     1      10.586  12.201  19.635  0.00  0.00    +0.000 A 
ATOM     25  C   UNL     1       9.631  11.555  20.425  0.00  0.00    +0.000 A 
ATOM     26  C   UNL     1       9.432  11.915  21.867  0.00  0.00    +0.000 C 
ATOM     27  C   UNL     1       8.838  10.549  19.857  0.00  0.00    +0.000 A 
ATOM     28  C   UNL     1       8.988  10.177  18.520  0.00  0.00    +0.000 A 
ATOM     29  C   UNL     1       9.978  10.805  17.751  0.00  0.00    +0.000 A 
ENDBRANCH  18  28
ENDBRANCH  17  19
ENDBRANCH  16  17
ENDBRANCH   1  16
TORSDOF 5
ENDMDL
MODEL 8
REMARK VINA RESULT:      -7.9      4.524      8.596
REMARK  Name = 
REMARK  7 active torsions:
REMARK  status: ('A' for Active; 'I' for Inactive)
REMARK    1  A    between atoms: C_1  and  C_2
REMARK    2  A    between atoms: C_4  and  C_5
REMARK    3  A    between atoms: C_7  and  N_8
REMARK    4  A    between atoms: C_9  and  C_11
REMARK    5  A    between atoms: C_11  and  C_12
REMARK    6  A    between atoms: C_12  and  C_13
REMARK    7  A    between atoms: C_13  and  N_14
REMARK                            x       y       z     vdW  Elec       q    Type
REMARK                         _______ _______ _______ _____ _____    ______ ____
ROOT
ATOM      1  C   UNL     1       2.488   7.488  19.406  0.00  0.00    +0.000 C 
ENDROOT
BRANCH   1   2
ATOM      2  N   UNL     1       2.977   6.325  18.662  0.00  0.00    +0.000 N 
ATOM      3  C   UNL     1       3.990   6.554  17.714  0.00  0.00    +0.000 A 
ATOM      4  O   UNL     1       4.438   7.679  17.492  0.00  0.00    +0.000 OA
ATOM      5  C   UNL     1       4.477   5.390  17.023  0.00  0.00    +0.000 A 
ATOM      6  C   UNL     1       5.440   5.292  16.035  0.00  0.00    +0.000 A 
ATOM      7  C   UNL     1       5.562   3.927  15.689  0.00  0.00    +0.000 A 
ATOM      8  C   UNL     1       4.672   3.231  16.478  0.00  0.00    +0.000 A 
ATOM      9  N   UNL     1       4.010   4.127  17.288  0.00  0.00    +0.000 N 
ATOM     10  C   UNL     1       3.021   3.887  18.262  0.00  0.00    +0.000 A 
ATOM     11  C   UNL     1       2.570   2.585  18.524  0.00  0.00    +0.000 A 
ATOM     12  C   UNL     1       1.602   2.375  19.503  0.00  0.00    +0.000 A 
ATOM     13  C   UNL     1       1.093   3.456  20.215  0.00  0.00    +0.000 A 
ATOM     14  C   UNL     1       1.545   4.753  19.950  0.00  0.00    +0.000 A 
ATOM     15  C   UNL     1       2.511   4.998  18.962  0.00  0.00    +0.000 A 
ENDBRANCH   1   2
BRANCH   1  16
ATOM     16  C   UNL     1       1.413   8.236  18.618  0.00  0.00    +0.000 C 
BRANCH  16  17
ATOM     17  C   UNL     1       1.722   9.723  18.469  0.00  0.00    +0.000 C 
BRANCH  17  19
ATOM     18  N   UNL     1      -0.603   9.717  17.764  0.00  0.00    +0.000 N 
ATOM     19  C   UNL     1       0.416  10.476  18.315  0.00  0.00    +0.000 C 
ATOM     20  O   UNL     1       0.356  11.660  18.634  0.00  0.00    +0.000 OA
ATOM     21  H   UNL     1      -0.485   8.711  17.750  0.00  0.00    +0.000 HD
BRANCH  18  28
ATOM     22  C   UNL     1      -3.960  10.157  14.167  0.00  0.00    +0.000 C 
ATOM     23  C   UNL     1      -3.520  10.438  15.575  0.00  0.00    +0.000 A 
ATOM     24  C   UNL     1      -4.364  11.122  16.458  0.00  0.00    +0.000 A 
ATOM     25  C   UNL     1      -3.963  11.369  17.775  0.00  0.00    +0.000 A 
ATOM     26  C   UNL     1      -4.838  12.119  18.734  0.00  0.00    +0.000 C 
ATOM     27  C   UNL     1      -2.715  10.904  18.210  0.00  0.00    +0.000 A 
ATOM     28  C   UNL     1      -1.864  10.205  17.352  0.00  0.00    +0.000 A 
ATOM     29  C   UNL     1      -2.262  10.000  16.025  0.00  0.00    +0.000 A 
ENDBRANCH  18  28
ENDBRANCH  17  19
ENDBRANCH  16  17
ENDBRANCH   1  16
TORSDOF 5
ENDMDL
MODEL 9
REMARK VINA RESULT:      -7.8      4.463      8.865
REMARK  Name = 
REMARK  7 active torsions:
REMARK  status: ('A' for Active; 'I' for Inactive)
REMARK    1  A    between atoms: C_1  and  C_2
REMARK    2  A    between atoms: C_4  and  C_5
REMARK    3  A    between atoms: C_7  and  N_8
REMARK    4  A    between atoms: C_9  and  C_11
REMARK    5  A    between atoms: C_11  and  C_12
REMARK    6  A    between atoms: C_12  and  C_13
REMARK    7  A    between atoms: C_13  and  N_14
REMARK                            x       y       z     vdW  Elec       q    Type
REMARK                         _______ _______ _______ _____ _____    ______ ____
ROOT
ATOM      1  C   UNL     1       2.658   7.534  19.289  0.00  0.00    +0.000 C 
ENDROOT
BRANCH   1   2
ATOM      2  N   UNL     1       2.886   6.137  18.913  0.00  0.00    +0.000 N 
ATOM      3  C   UNL     1       2.156   5.162  19.615  0.00  0.00    +0.000 A 
ATOM      4  O   UNL     1       1.376   5.453  20.521  0.00  0.00    +0.000 OA
ATOM      5  C   UNL     1       2.373   3.800  19.204  0.00  0.00    +0.000 A 
ATOM      6  C   UNL     1       1.827   2.632  19.704  0.00  0.00    +0.000 A 
ATOM      7  C   UNL     1       2.351   1.557  18.953  0.00  0.00    +0.000 A 
ATOM      8  C   UNL     1       3.201   2.100  18.013  0.00  0.00    +0.000 A 
ATOM      9  N   UNL     1       3.213   3.468  18.171  0.00  0.00    +0.000 N 
ATOM     10  C   UNL     1       3.920   4.443  17.441  0.00  0.00    +0.000 A 
ATOM     11  C   UNL     1       4.763   4.079  16.381  0.00  0.00    +0.000 A 
ATOM     12  C   UNL     1       5.438   5.066  15.666  0.00  0.00    +0.000 A 
ATOM     13  C   UNL     1       5.268   6.404  16.007  0.00  0.00    +0.000 A 
ATOM     14  C   UNL     1       4.427   6.763  17.066  0.00  0.00    +0.000 A 
ATOM     15  C   UNL     1       3.743   5.791  17.811  0.00  0.00    +0.000 A 
ENDBRANCH   1   2
BRANCH   1  16
ATOM     16  C   UNL     1       1.675   8.211  18.334  0.00  0.00    +0.000 C 
BRANCH  16  17
ATOM     17  C   UNL     1       2.133   9.601  17.906  0.00  0.00    +0.000 C 
BRANCH  17  19
ATOM     18  N   UNL     1      -0.134  10.094  18.627  0.00  0.00    +0.000 N 
ATOM     19  C   UNL     1       1.129  10.619  18.408  0.00  0.00    +0.000 C 
ATOM     20  O   UNL     1       1.468  11.791  18.543  0.00  0.00    +0.000 OA
ATOM     21  H   UNL     1      -0.220   9.086  18.684  0.00  0.00    +0.000 HD
BRANCH  18  28
ATOM     22  C   UNL     1      -2.448  13.193  21.700  0.00  0.00    +0.000 C 
ATOM     23  C   UNL     1      -2.449  12.360  20.450  0.00  0.00    +0.000 A 
ATOM     24  C   UNL     1      -3.556  12.369  19.593  0.00  0.00    +0.000 A 
ATOM     25  C   UNL     1      -3.552  11.607  18.421  0.00  0.00    +0.000 A 
ATOM     26  C   UNL     1      -4.734  11.582  17.497  0.00  0.00    +0.000 C 
ATOM     27  C   UNL     1      -2.417  10.851  18.099  0.00  0.00    +0.000 A 
ATOM     28  C   UNL     1      -1.295  10.840  18.929  0.00  0.00    +0.000 A 
ATOM     29  C   UNL     1      -1.329  11.576  20.121  0.00  0.00    +0.000 A 
ENDBRANCH  18  28
ENDBRANCH  17  19
ENDBRANCH  16  17
ENDBRANCH   1  16
TORSDOF 5
ENDMDL
