MODEL 1
REMARK VINA RESULT:      -7.0      0.000      0.000
REMARK  Name = 
REMARK  7 active torsions:
REMARK  status: ('A' for Active; 'I' for Inactive)
REMARK    1  A    between atoms: C_1  and  C_2
REMARK    2  A    between atoms: C_2  and  O_3
REMARK    3  A    between atoms: O_3  and  C_4
REMARK    4  A    between atoms: C_6  and  C_7
REMARK    5  A    between atoms: N_8  and  N_9
REMARK    6  A    between atoms: C_10  and  C_12
REMARK    7  A    between atoms: C_21  and  O_22
REMARK                            x       y       z     vdW  Elec       q    Type
REMARK                         _______ _______ _______ _____ _____    ______ ____
ROOT
ATOM      1  C   UNL     1       4.756   4.470  19.133  0.00  0.00    +0.000 A 
ATOM      2  C   UNL     1       4.190   5.733  19.345  0.00  0.00    +0.000 A 
ATOM      3  C   UNL     1       2.807   5.894  19.398  0.00  0.00    +0.000 A 
ATOM      4  C   UNL     1       1.956   4.802  19.235  0.00  0.00    +0.000 A 
ATOM      5  C   UNL     1       2.507   3.540  19.020  0.00  0.00    +0.000 A 
ATOM      6 BR   UNL     1       1.336   2.063  18.804  0.00  0.00    +0.000 Br
ATOM      7  C   UNL     1       3.900   3.369  18.970  0.00  0.00    +0.000 A 
ENDROOT
BRANCH   3   8
ATOM      8  C   UNL     1       2.286   7.251  19.649  0.00  0.00    +0.000 C 
ATOM      9  N   UNL     1       1.642   7.518  20.733  0.00  0.00    +0.000 NA
BRANCH   9  10
ATOM     10  N   UNL     1       1.211   8.803  20.888  0.00  0.00    +0.000 N 
ATOM     11  C   UNL     1      -0.030   9.000  21.472  0.00  0.00    +0.000 C 
ATOM     12  O   UNL     1      -0.767   8.101  21.868  0.00  0.00    +0.000 OA
ATOM     13  H   UNL     1       1.840   9.571  20.685  0.00  0.00    +0.000 HD
BRANCH  11  14
ATOM     14  C   UNL     1      -0.471  10.406  21.650  0.00  0.00    +0.000 A 
ATOM     15  C   UNL     1      -0.461  11.343  20.618  0.00  0.00    +0.000 A 
ATOM     16  C   UNL     1      -0.948  12.610  20.896  0.00  0.00    +0.000 A 
ATOM     17  N   UNL     1      -1.424  12.987  22.103  0.00  0.00    +0.000 NA
ATOM     18  C   UNL     1      -1.433  12.056  23.078  0.00  0.00    +0.000 A 
ATOM     19  C   UNL     1      -0.973  10.766  22.903  0.00  0.00    +0.000 A 
ENDBRANCH  11  14
ENDBRANCH   9  10
ENDBRANCH   3   8
BRANCH   7  20
ATOM     20  O   UNL     1       4.444   2.127  18.764  0.00  0.00    +0.000 OA
ATOM     21  H   UNL     1       4.973   1.899  19.551  0.00  0.00    +0.000 HD
ENDBRANCH   7  20
BRANCH   1  22
ATOM     22  O   UNL     1       6.114   4.247  19.082  0.00  0.00    +0.000 OA
BRANCH  22  24
ATOM     23  C   UNL     1       7.903   5.883  19.037  0.00  0.00    +0.000 C 
ATOM     24  C   UNL     1       6.854   5.135  18.241  0.00  0.00    +0.000 C 
ENDBRANCH  22  24
ENDBRANCH   1  22
TORSDOF 6
ENDMDL
MODEL 2
REMARK VINA RESULT:      -6.9      5.509      7.890
REMARK  Name = 
REMARK  7 active torsions:
REMARK  status: ('A' for Active; 'I' for Inactive)
REMARK    1  A    between atoms: C_1  and  C_2
REMARK    2  A    between atoms: C_2  and  O_3
REMARK    3  A    between atoms: O_3  and  C_4
REMARK    4  A    between atoms: C_6  and  C_7
REMARK    5  A    between atoms: N_8  and  N_9
REMARK    6  A    between atoms: C_10  and  C_12
REMARK    7  A    between atoms: C_21  and  O_22
REMARK                            x       y       z     vdW  Elec       q    Type
REMARK                         _______ _______ _______ _____ _____    ______ ____
ROOT
ATOM      1  C   UNL     1       5.051   4.304  18.659  0.00  0.00    +0.000 A 
ATOM      2  C   UNL     1       6.016   5.227  19.081  0.00  0.00    +0.000 A 
ATOM      3  C   UNL     1       6.947   5.745  18.182  0.00  0.00    +0.000 A 
ATOM      4  C   UNL     1       6.942   5.350  16.845  0.00  0.00    +0.000 A 
ATOM      5  C   UNL     1       5.989   4.429  16.414  0.00  0.00    +0.000 A 
ATOM      6 BR   UNL     1       5.992   3.906  14.590  0.00  0.00    +0.000 Br
ATOM      7  C   UNL     1       5.045   3.907  17.313  0.00  0.00    +0.000 A 
ENDROOT
BRANCH   3   8
ATOM      8  C   UNL     1       7.916   6.731  18.695  0.00  0.00    +0.000 C 
ATOM      9  N   UNL     1       7.999   7.905  18.172  0.00  0.00    +0.000 NA
BRANCH   9  10
ATOM     10  N   UNL     1       8.913   8.757  18.721  0.00  0.00    +0.000 N 
ATOM     11  C   UNL     1       8.854  10.091  18.349  0.00  0.00    +0.000 C 
ATOM     12  O   UNL     1       8.033  10.563  17.566  0.00  0.00    +0.000 OA
ATOM     13  H   UNL     1       9.525   8.429  19.458  0.00  0.00    +0.000 HD
BRANCH  11  14
ATOM     14  C   UNL     1       9.844  11.005  18.973  0.00  0.00    +0.000 A 
ATOM     15  C   UNL     1      10.890  11.592  18.264  0.00  0.00    +0.000 A 
ATOM     16  C   UNL     1      11.716  12.469  18.947  0.00  0.00    +0.000 A 
ATOM     17  N   UNL     1      11.568  12.783  20.253  0.00  0.00    +0.000 NA
ATOM     18  C   UNL     1      10.539  12.209  20.910  0.00  0.00    +0.000 A 
ATOM     19  C   UNL     1       9.659  11.324  20.321  0.00  0.00    +0.000 A 
ENDBRANCH  11  14
ENDBRANCH   9  10
ENDBRANCH   3   8
BRANCH   7  20
ATOM     20  O   UNL     1       4.102   3.005  16.889  0.00  0.00    +0.000 OA
ATOM     21  H   UNL     1       3.534   3.452  16.235  0.00  0.00    +0.000 HD
ENDBRANCH   7  20
BRANCH   1  22
ATOM     22  O   UNL     1       4.099   3.766  19.497  0.00  0.00    +0.000 OA
BRANCH  22  24
ATOM     23  C   UNL     1       2.109   5.064  19.016  0.00  0.00    +0.000 C 
ATOM     24  C   UNL     1       3.160   4.696  20.042  0.00  0.00    +0.000 C 
ENDBRANCH  22  24
ENDBRANCH   1  22
TORSDOF 6
ENDMDL
MODEL 3
REMARK VINA RESULT:      -6.9      6.527      8.115
REMARK  Name = 
REMARK  7 active torsions:
REMARK  status: ('A' for Active; 'I' for Inactive)
REMARK    1  A    between atoms: C_1  and  C_2
REMARK    2  A    between atoms: C_2  and  O_3
REMARK    3  A    between atoms: O_3  and  C_4
REMARK    4  A    between atoms: C_6  and  C_7
REMARK    5  A    between atoms: N_8  and  N_9
REMARK    6  A    between atoms: C_10  and  C_12
REMARK    7  A    between atoms: C_21  and  O_22
REMARK                            x       y       z     vdW  Elec       q    Type
REMARK                         _______ _______ _______ _____ _____    ______ ____
ROOT
ATOM      1  C   UNL     1       5.744   4.976  16.150  0.00  0.00    +0.000 A 
ATOM      2  C   UNL     1       6.699   5.869  16.652  0.00  0.00    +0.000 A 
ATOM      3  C   UNL     1       6.913   5.986  18.024  0.00  0.00    +0.000 A 
ATOM      4  C   UNL     1       6.177   5.221  18.928  0.00  0.00    +0.000 A 
ATOM      5  C   UNL     1       5.221   4.331  18.441  0.00  0.00    +0.000 A 
ATOM      6 BR   UNL     1       4.231   3.294  19.683  0.00  0.00    +0.000 Br
ATOM      7  C   UNL     1       5.003   4.205  17.060  0.00  0.00    +0.000 A 
ENDROOT
BRANCH   3   8
ATOM      8  C   UNL     1       7.953   6.930  18.475  0.00  0.00    +0.000 C 
ATOM      9  N   UNL     1       7.938   8.159  18.089  0.00  0.00    +0.000 NA
BRANCH   9  10
ATOM     10  N   UNL     1       8.929   8.964  18.569  0.00  0.00    +0.000 N 
ATOM     11  C   UNL     1       8.874  10.312  18.252  0.00  0.00    +0.000 C 
ATOM     12  O   UNL     1       7.991  10.837  17.577  0.00  0.00    +0.000 OA
ATOM     13  H   UNL     1       9.604   8.591  19.225  0.00  0.00    +0.000 HD
BRANCH  11  14
ATOM     14  C   UNL     1       9.951  11.174  18.801  0.00  0.00    +0.000 A 
ATOM     15  C   UNL     1      10.087  11.449  20.161  0.00  0.00    +0.000 A 
ATOM     16  C   UNL     1      11.164  12.225  20.554  0.00  0.00    +0.000 A 
ATOM     17  N   UNL     1      12.083  12.729  19.701  0.00  0.00    +0.000 NA
ATOM     18  C   UNL     1      11.932  12.436  18.393  0.00  0.00    +0.000 A 
ATOM     19  C   UNL     1      10.895  11.671  17.899  0.00  0.00    +0.000 A 
ENDBRANCH  11  14
ENDBRANCH   9  10
ENDBRANCH   3   8
BRANCH   7  20
ATOM     20  O   UNL     1       4.066   3.325  16.578  0.00  0.00    +0.000 OA
ATOM     21  H   UNL     1       3.199   3.586  16.939  0.00  0.00    +0.000 HD
ENDBRANCH   7  20
BRANCH   1  22
ATOM     22  O   UNL     1       5.495   4.810  14.806  0.00  0.00    +0.000 OA
BRANCH  22  24
ATOM     23  C   UNL     1       5.898   3.547  12.776  0.00  0.00    +0.000 C 
ATOM     24  C   UNL     1       6.465   4.042  14.089  0.00  0.00    +0.000 C 
ENDBRANCH  22  24
ENDBRANCH   1  22
TORSDOF 6
ENDMDL
MODEL 4
REMARK VINA RESULT:      -6.8      6.361      8.033
REMARK  Name = 
REMARK  7 active torsions:
REMARK  status: ('A' for Active; 'I' for Inactive)
REMARK    1  A    between atoms: C_1  and  C_2
REMARK    2  A    between atoms: C_2  and  O_3
REMARK    3  A    between atoms: O_3  and  C_4
REMARK    4  A    between atoms: C_6  and  C_7
REMARK    5  A    between atoms: N_8  and  N_9
REMARK    6  A    between atoms: C_10  and  C_12
REMARK    7  A    between atoms: C_21  and  O_22
REMARK                            x       y       z     vdW  Elec       q    Type
REMARK                         _______ _______ _______ _____ _____    ______ ____
ROOT
ATOM      1  C   UNL     1       5.573   5.009  16.063  0.00  0.00    +0.000 A 
ATOM      2  C   UNL     1       6.578   5.863  16.532  0.00  0.00    +0.000 A 
ATOM      3  C   UNL     1       6.752   6.074  17.899  0.00  0.00    +0.000 A 
ATOM      4  C   UNL     1       5.926   5.443  18.829  0.00  0.00    +0.000 A 
ATOM      5  C   UNL     1       4.919   4.593  18.373  0.00  0.00    +0.000 A 
ATOM      6 BR   UNL     1       3.807   3.739  19.650  0.00  0.00    +0.000 Br
ATOM      7  C   UNL     1       4.741   4.373  16.998  0.00  0.00    +0.000 A 
ENDROOT
BRANCH   3   8
ATOM      8  C   UNL     1       7.848   6.968  18.318  0.00  0.00    +0.000 C 
ATOM      9  N   UNL     1       7.847   8.212  17.980  0.00  0.00    +0.000 NA
BRANCH   9  10
ATOM     10  N   UNL     1       8.891   8.968  18.425  0.00  0.00    +0.000 N 
ATOM     11  C   UNL     1       8.846  10.332  18.188  0.00  0.00    +0.000 C 
ATOM     12  O   UNL     1       7.929  10.912  17.611  0.00  0.00    +0.000 OA
ATOM     13  H   UNL     1       9.604   8.545  19.007  0.00  0.00    +0.000 HD
BRANCH  11  14
ATOM     14  C   UNL     1       9.983  11.140  18.698  0.00  0.00    +0.000 A 
ATOM     15  C   UNL     1      10.946  11.709  17.867  0.00  0.00    +0.000 A 
ATOM     16  C   UNL     1      11.927  12.486  18.460  0.00  0.00    +0.000 A 
ATOM     17  N   UNL     1      12.006  12.719  19.788  0.00  0.00    +0.000 NA
ATOM     18  C   UNL     1      11.053  12.165  20.566  0.00  0.00    +0.000 A 
ATOM     19  C   UNL     1      10.032  11.377  20.074  0.00  0.00    +0.000 A 
ENDBRANCH  11  14
ENDBRANCH   9  10
ENDBRANCH   3   8
BRANCH   7  20
ATOM     20  O   UNL     1       3.755   3.532  16.548  0.00  0.00    +0.000 OA
ATOM     21  H   UNL     1       3.681   2.794  17.180  0.00  0.00    +0.000 HD
ENDBRANCH   7  20
BRANCH   1  22
ATOM     22  O   UNL     1       5.359   4.754  14.727  0.00  0.00    +0.000 OA
BRANCH  22  24
ATOM     23  C   UNL     1       5.897   3.552  12.691  0.00  0.00    +0.000 C 
ATOM     24  C   UNL     1       6.331   3.917  14.095  0.00  0.00    +0.000 C 
ENDBRANCH  22  24
ENDBRANCH   1  22
TORSDOF 6
ENDMDL
MODEL 5
REMARK VINA RESULT:      -6.8      2.808      3.739
REMARK  Name = 
REMARK  7 active torsions:
REMARK  status: ('A' for Active; 'I' for Inactive)
REMARK    1  A    between atoms: C_1  and  C_2
REMARK    2  A    between atoms: C_2  and  O_3
REMARK    3  A    between atoms: O_3  and  C_4
REMARK    4  A    between atoms: C_6  and  C_7
REMARK    5  A    between atoms: N_8  and  N_9
REMARK    6  A    between atoms: C_10  and  C_12
REMARK    7  A    between atoms: C_21  and  O_22
REMARK                            x       y       z     vdW  Elec       q    Type
REMARK                         _______ _______ _______ _____ _____    ______ ____
ROOT
ATOM      1  C   UNL     1       4.284   4.435  18.650  0.00  0.00    +0.000 A 
ATOM      2  C   UNL     1       3.185   5.291  18.505  0.00  0.00    +0.000 A 
ATOM      3  C   UNL     1       3.352   6.585  18.013  0.00  0.00    +0.000 A 
ATOM      4  C   UNL     1       4.616   7.058  17.662  0.00  0.00    +0.000 A 
ATOM      5  C   UNL     1       5.717   6.215  17.806  0.00  0.00    +0.000 A 
ATOM      6 BR   UNL     1       7.429   6.871  17.319  0.00  0.00    +0.000 Br
ATOM      7  C   UNL     1       5.557   4.910  18.296  0.00  0.00    +0.000 A 
ENDROOT
BRANCH   3   8
ATOM      8  C   UNL     1       2.144   7.420  17.865  0.00  0.00    +0.000 C 
ATOM      9  N   UNL     1       2.222   8.705  17.921  0.00  0.00    +0.000 NA
BRANCH   9  10
ATOM     10  N   UNL     1       1.058   9.396  17.757  0.00  0.00    +0.000 N 
ATOM     11  C   UNL     1       0.380   9.796  18.899  0.00  0.00    +0.000 C 
ATOM     12  O   UNL     1       0.758   9.579  20.048  0.00  0.00    +0.000 OA
ATOM     13  H   UNL     1       0.778   9.696  16.832  0.00  0.00    +0.000 HD
BRANCH  11  14
ATOM     14  C   UNL     1      -0.874  10.564  18.699  0.00  0.00    +0.000 A 
ATOM     15  C   UNL     1      -1.726  10.362  17.614  0.00  0.00    +0.000 A 
ATOM     16  C   UNL     1      -2.893  11.106  17.568  0.00  0.00    +0.000 A 
ATOM     17  N   UNL     1      -3.250  12.010  18.505  0.00  0.00    +0.000 NA
ATOM     18  C   UNL     1      -2.412  12.175  19.550  0.00  0.00    +0.000 A 
ATOM     19  C   UNL     1      -1.226  11.483  19.690  0.00  0.00    +0.000 A 
ENDBRANCH  11  14
ENDBRANCH   9  10
ENDBRANCH   3   8
BRANCH   7  20
ATOM     20  O   UNL     1       6.639   4.077  18.433  0.00  0.00    +0.000 OA
ATOM     21  H   UNL     1       7.283   4.309  17.738  0.00  0.00    +0.000 HD
ENDBRANCH   7  20
BRANCH   1  22
ATOM     22  O   UNL     1       4.181   3.144  19.120  0.00  0.00    +0.000 OA
BRANCH  22  24
ATOM     23  C   UNL     1       2.065   1.967  19.004  0.00  0.00    +0.000 C 
ATOM     24  C   UNL     1       3.387   2.260  18.326  0.00  0.00    +0.000 C 
ENDBRANCH  22  24
ENDBRANCH   1  22
TORSDOF 6
ENDMDL
MODEL 6
REMARK VINA RESULT:      -6.8      0.605      1.274
REMARK  Name = 
REMARK  7 active torsions:
REMARK  status: ('A' for Active; 'I' for Inactive)
REMARK    1  A    between atoms: C_1  and  C_2
REMARK    2  A    between atoms: C_2  and  O_3
REMARK    3  A    between atoms: O_3  and  C_4
REMARK    4  A    between atoms: C_6  and  C_7
REMARK    5  A    between atoms: N_8  and  N_9
REMARK    6  A    between atoms: C_10  and  C_12
REMARK    7  A    between atoms: C_21  and  O_22
REMARK                            x       y       z     vdW  Elec       q    Type
REMARK                         _______ _______ _______ _____ _____    ______ ____
ROOT
ATOM      1  C   UNL     1       4.607   4.384  19.092  0.00  0.00    +0.000 A 
ATOM      2  C   UNL     1       4.118   5.663  19.385  0.00  0.00    +0.000 A 
ATOM      3  C   UNL     1       2.748   5.892  19.501  0.00  0.00    +0.000 A 
ATOM      4  C   UNL     1       1.835   4.854  19.322  0.00  0.00    +0.000 A 
ATOM      5  C   UNL     1       2.310   3.577  19.027  0.00  0.00    +0.000 A 
ATOM      6 BR   UNL     1       1.054   2.174  18.792  0.00  0.00    +0.000 Br
ATOM      7  C   UNL     1       3.688   3.338  18.913  0.00  0.00    +0.000 A 
ENDROOT
BRANCH   3   8
ATOM      8  C   UNL     1       2.310   7.260  19.835  0.00  0.00    +0.000 C 
ATOM      9  N   UNL     1       1.688   7.501  20.938  0.00  0.00    +0.000 NA
BRANCH   9  10
ATOM     10  N   UNL     1       1.336   8.798  21.171  0.00  0.00    +0.000 N 
ATOM     11  C   UNL     1       0.059   9.042  21.651  0.00  0.00    +0.000 C 
ATOM     12  O   UNL     1      -0.777   8.172  21.890  0.00  0.00    +0.000 OA
ATOM     13  H   UNL     1       2.034   9.528  21.100  0.00  0.00    +0.000 HD
BRANCH  11  14
ATOM     14  C   UNL     1      -0.299  10.457  21.918  0.00  0.00    +0.000 A 
ATOM     15  C   UNL     1      -1.171  10.844  22.934  0.00  0.00    +0.000 A 
ATOM     16  C   UNL     1      -1.384  12.200  23.117  0.00  0.00    +0.000 A 
ATOM     17  N   UNL     1      -0.801  13.162  22.370  0.00  0.00    +0.000 NA
ATOM     18  C   UNL     1       0.048  12.759  21.402  0.00  0.00    +0.000 A 
ATOM     19  C   UNL     1       0.329  11.433  21.140  0.00  0.00    +0.000 A 
ENDBRANCH  11  14
ENDBRANCH   9  10
ENDBRANCH   3   8
BRANCH   7  20
ATOM     20  O   UNL     1       4.158   2.081  18.628  0.00  0.00    +0.000 OA
ATOM     21  H   UNL     1       4.824   1.852  19.303  0.00  0.00    +0.000 HD
ENDBRANCH   7  20
BRANCH   1  22
ATOM     22  O   UNL     1       5.949   4.095  18.975  0.00  0.00    +0.000 OA
BRANCH  22  24
ATOM     23  C   UNL     1       6.018   4.353  16.566  0.00  0.00    +0.000 C 
ATOM     24  C   UNL     1       6.628   4.740  17.896  0.00  0.00    +0.000 C 
ENDBRANCH  22  24
ENDBRANCH   1  22
TORSDOF 6
ENDMDL
MODEL 7
REMARK VINA RESULT:      -6.8      2.687      3.087
REMARK  Name = 
REMARK  7 active torsions:
REMARK  status: ('A' for Active; 'I' for Inactive)
REMARK    1  A    between atoms: C_1  and  C_2
REMARK    2  A    between atoms: C_2  and  O_3
REMARK    3  A    between atoms: O_3  and  C_4
REMARK    4  A    between atoms: C_6  and  C_7
REMARK    5  A    between atoms: N_8  and  N_9
REMARK    6  A    between atoms: C_10  and  C_12
REMARK    7  A    between atoms: C_21  and  O_22
REMARK                            x       y       z     vdW  Elec       q    Type
REMARK                         _______ _______ _______ _____ _____    ______ ____
ROOT
ATOM      1  C   UNL     1       4.955   4.924  17.356  0.00  0.00    +0.000 A 
ATOM      2  C   UNL     1       4.607   6.280  17.347  0.00  0.00    +0.000 A 
ATOM      3  C   UNL     1       3.325   6.688  17.711  0.00  0.00    +0.000 A 
ATOM      4  C   UNL     1       2.360   5.755  18.087  0.00  0.00    +0.000 A 
ATOM      5  C   UNL     1       2.694   4.401  18.096  0.00  0.00    +0.000 A 
ATOM      6 BR   UNL     1       1.371   3.144  18.614  0.00  0.00    +0.000 Br
ATOM      7  C   UNL     1       3.984   3.983  17.734  0.00  0.00    +0.000 A 
ENDROOT
BRANCH   3   8
ATOM      8  C   UNL     1       3.040   8.135  17.701  0.00  0.00    +0.000 C 
ATOM      9  N   UNL     1       1.826   8.567  17.689  0.00  0.00    +0.000 NA
BRANCH   9  10
ATOM     10  N   UNL     1       1.657   9.920  17.696  0.00  0.00    +0.000 N 
ATOM     11  C   UNL     1       0.969  10.478  18.762  0.00  0.00    +0.000 C 
ATOM     12  O   UNL     1       0.508   9.841  19.707  0.00  0.00    +0.000 OA
ATOM     13  H   UNL     1       2.125  10.488  17.000  0.00  0.00    +0.000 HD
BRANCH  11  14
ATOM     14  C   UNL     1       0.814  11.954  18.762  0.00  0.00    +0.000 A 
ATOM     15  C   UNL     1      -0.414  12.590  18.938  0.00  0.00    +0.000 A 
ATOM     16  C   UNL     1      -0.421  13.974  18.971  0.00  0.00    +0.000 A 
ATOM     17  N   UNL     1       0.686  14.738  18.840  0.00  0.00    +0.000 NA
ATOM     18  C   UNL     1       1.861  14.095  18.684  0.00  0.00    +0.000 A 
ATOM     19  C   UNL     1       1.976  12.720  18.639  0.00  0.00    +0.000 A 
ENDBRANCH  11  14
ENDBRANCH   9  10
ENDBRANCH   3   8
BRANCH   7  20
ATOM     20  O   UNL     1       4.317   2.652  17.749  0.00  0.00    +0.000 OA
ATOM     21  H   UNL     1       3.628   2.168  17.258  0.00  0.00    +0.000 HD
ENDBRANCH   7  20
BRANCH   1  22
ATOM     22  O   UNL     1       6.207   4.461  17.016  0.00  0.00    +0.000 OA
BRANCH  22  24
ATOM     23  C   UNL     1       6.135   3.991  14.639  0.00  0.00    +0.000 C 
ATOM     24  C   UNL     1       6.692   4.873  15.736  0.00  0.00    +0.000 C 
ENDBRANCH  22  24
ENDBRANCH   1  22
TORSDOF 6
ENDMDL
MODEL 8
REMARK VINA RESULT:      -6.8      2.494      3.035
REMARK  Name = 
REMARK  7 active torsions:
REMARK  status: ('A' for Active; 'I' for Inactive)
REMARK    1  A    between atoms: C_1  and  C_2
REMARK    2  A    between atoms: C_2  and  O_3
REMARK    3  A    between atoms: O_3  and  C_4
REMARK    4  A    between atoms: C_6  and  C_7
REMARK    5  A    between atoms: N_8  and  N_9
REMARK    6  A    between atoms: C_10  and  C_12
REMARK    7  A    between atoms: C_21  and  O_22
REMARK                            x       y       z     vdW  Elec       q    Type
REMARK                         _______ _______ _______ _____ _____    ______ ____
ROOT
ATOM      1  C   UNL     1       5.761   6.208  17.508  0.00  0.00    +0.000 A 
ATOM      2  C   UNL     1       4.595   6.981  17.449  0.00  0.00    +0.000 A 
ATOM      3  C   UNL     1       3.400   6.509  17.989  0.00  0.00    +0.000 A 
ATOM      4  C   UNL     1       3.337   5.255  18.593  0.00  0.00    +0.000 A 
ATOM      5  C   UNL     1       4.491   4.475  18.655  0.00  0.00    +0.000 A 
ATOM      6 BR   UNL     1       4.391   2.772  19.486  0.00  0.00    +0.000 Br
ATOM      7  C   UNL     1       5.699   4.945  18.118  0.00  0.00    +0.000 A 
ENDROOT
BRANCH   3   8
ATOM      8  C   UNL     1       2.220   7.391  17.910  0.00  0.00    +0.000 C 
ATOM      9  N   UNL     1       2.358   8.671  17.858  0.00  0.00    +0.000 NA
BRANCH   9  10
ATOM     10  N   UNL     1       1.212   9.407  17.770  0.00  0.00    +0.000 N 
ATOM     11  C   UNL     1       0.546   9.704  18.949  0.00  0.00    +0.000 C 
ATOM     12  O   UNL     1       0.917   9.359  20.068  0.00  0.00    +0.000 OA
ATOM     13  H   UNL     1       0.942   9.809  16.882  0.00  0.00    +0.000 HD
BRANCH  11  14
ATOM     14  C   UNL     1      -0.687  10.523  18.833  0.00  0.00    +0.000 A 
ATOM     15  C   UNL     1      -0.984  11.576  19.696  0.00  0.00    +0.000 A 
ATOM     16  C   UNL     1      -2.140  12.299  19.453  0.00  0.00    +0.000 A 
ATOM     17  N   UNL     1      -2.991  12.041  18.436  0.00  0.00    +0.000 NA
ATOM     18  C   UNL     1      -2.672  11.024  17.610  0.00  0.00    +0.000 A 
ATOM     19  C   UNL     1      -1.543  10.244  17.765  0.00  0.00    +0.000 A 
ENDBRANCH  11  14
ENDBRANCH   9  10
ENDBRANCH   3   8
BRANCH   7  20
ATOM     20  O   UNL     1       6.837   4.181  18.184  0.00  0.00    +0.000 OA
ATOM     21  H   UNL     1       6.586   3.257  18.003  0.00  0.00    +0.000 HD
ENDBRANCH   7  20
BRANCH   1  22
ATOM     22  O   UNL     1       6.973   6.625  17.003  0.00  0.00    +0.000 OA
BRANCH  22  24
ATOM     23  C   UNL     1       7.935   8.743  17.684  0.00  0.00    +0.000 C 
ATOM     24  C   UNL     1       7.849   7.254  17.941  0.00  0.00    +0.000 C 
ENDBRANCH  22  24
ENDBRANCH   1  22
TORSDOF 6
ENDMDL
MODEL 9
REMARK VINA RESULT:      -6.8      1.902      2.863
REMARK  Name = 
REMARK  7 active torsions:
REMARK  status: ('A' for Active; 'I' for Inactive)
REMARK    1  A    between atoms: C_1  and  C_2
REMARK    2  A    between atoms: C_2  and  O_3
REMARK    3  A    between atoms: O_3  and  C_4
REMARK    4  A    between atoms: C_6  and  C_7
REMARK    5  A    between atoms: N_8  and  N_9
REMARK    6  A    between atoms: C_10  and  C_12
REMARK    7  A    between atoms: C_21  and  O_22
REMARK                            x       y       z     vdW  Elec       q    Type
REMARK                         _______ _______ _______ _____ _____    ______ ____
ROOT
ATOM      1  C   UNL     1       2.963   4.008  18.899  0.00  0.00    +0.000 A 
ATOM      2  C   UNL     1       2.459   5.274  19.224  0.00  0.00    +0.000 A 
ATOM      3  C   UNL     1       2.892   6.409  18.539  0.00  0.00    +0.000 A 
ATOM      4  C   UNL     1       3.839   6.310  17.521  0.00  0.00    +0.000 A 
ATOM      5  C   UNL     1       4.350   5.055  17.192  0.00  0.00    +0.000 A 
ATOM      6 BR   UNL     1       5.635   4.936  15.801  0.00  0.00    +0.000 Br
ATOM      7  C   UNL     1       3.916   3.907  17.874  0.00  0.00    +0.000 A 
ENDROOT
BRANCH   3   8
ATOM      8  C   UNL     1       2.298   7.704  18.921  0.00  0.00    +0.000 C 
ATOM      9  N   UNL     1       1.707   7.847  20.057  0.00  0.00    +0.000 NA
BRANCH   9  10
ATOM     10  N   UNL     1       1.201   9.084  20.332  0.00  0.00    +0.000 N 
ATOM     11  C   UNL     1       0.112   9.159  21.187  0.00  0.00    +0.000 C 
ATOM     12  O   UNL     1      -0.426   8.191  21.721  0.00  0.00    +0.000 OA
ATOM     13  H   UNL     1       1.690   9.909  20.008  0.00  0.00    +0.000 HD
BRANCH  11  14
ATOM     14  C   UNL     1      -0.410  10.515  21.490  0.00  0.00    +0.000 A 
ATOM     15  C   UNL     1      -0.481  11.532  20.539  0.00  0.00    +0.000 A 
ATOM     16  C   UNL     1      -1.038  12.739  20.931  0.00  0.00    +0.000 A 
ATOM     17  N   UNL     1      -1.509  12.984  22.173  0.00  0.00    +0.000 NA
ATOM     18  C   UNL     1      -1.439  11.977  23.067  0.00  0.00    +0.000 A 
ATOM     19  C   UNL     1      -0.905  10.737  22.777  0.00  0.00    +0.000 A 
ENDBRANCH  11  14
ENDBRANCH   9  10
ENDBRANCH   3   8
BRANCH   7  20
ATOM     20  O   UNL     1       4.414   2.671  17.547  0.00  0.00    +0.000 OA
ATOM     21  H   UNL     1       3.805   2.000  17.907  0.00  0.00    +0.000 HD
ENDBRANCH   7  20
BRANCH   1  22
ATOM     22  O   UNL     1       2.567   2.851  19.532  0.00  0.00    +0.000 OA
BRANCH  22  24
ATOM     23  C   UNL     1       1.422   2.655  21.660  0.00  0.00    +0.000 C 
ATOM     24  C   UNL     1       1.290   2.903  20.172  0.00  0.00    +0.000 C 
ENDBRANCH  22  24
ENDBRANCH   1  22
TORSDOF 6
ENDMDL
