MODEL 1
REMARK VINA RESULT:      -8.1      0.000      0.000
REMARK  Name = 
REMARK  4 active torsions:
REMARK  status: ('A' for Active; 'I' for Inactive)
REMARK    1  A    between atoms: C_1  and  C_2
REMARK    2  A    between atoms: C_2  and  C_3
REMARK    3  A    between atoms: N_14  and  C_15
REMARK    4  A    between atoms: C_15  and  C_16
REMARK                            x       y       z     vdW  Elec       q    Type
REMARK                         _______ _______ _______ _____ _____    ______ ____
ROOT
ATOM      1  C   UNL     1       2.756   2.985  18.707  0.00  0.00    +0.000 C 
ATOM      2  O   UNL     1       2.955   3.038  17.499  0.00  0.00    +0.000 OA
ATOM      3  N   UNL     1       3.407   3.749  19.662  0.00  0.00    +0.000 N 
ATOM      4  C   UNL     1       4.408   4.604  19.263  0.00  0.00    +0.000 A 
ATOM      5  N   UNL     1       5.607   4.573  19.797  0.00  0.00    +0.000 NA
ATOM      6  C   UNL     1       6.346   5.486  19.092  0.00  0.00    +0.000 A 
ATOM      7  C   UNL     1       7.717   5.770  19.165  0.00  0.00    +0.000 A 
ATOM      8  C   UNL     1       8.239   6.785  18.355  0.00  0.00    +0.000 A 
ATOM      9  C   UNL     1       7.408   7.524  17.514  0.00  0.00    +0.000 A 
ATOM     10  C   UNL     1       6.039   7.250  17.422  0.00  0.00    +0.000 A 
ATOM     11  C   UNL     1       5.546   6.197  18.201  0.00  0.00    +0.000 A 
ATOM     12  N   UNL     1       4.297   5.621  18.336  0.00  0.00    +0.000 N 
ATOM     13  H   UNL     1       3.626   3.267  20.525  0.00  0.00    +0.000 HD
ENDROOT
BRANCH   1  15
ATOM     14  C   UNL     1       1.126   2.647  20.582  0.00  0.00    +0.000 C 
ATOM     15  C   UNL     1       1.727   2.055  19.317  0.00  0.00    +0.000 C 
ENDBRANCH   1  15
BRANCH  12  16
ATOM     16  C   UNL     1       3.090   6.104  17.679  0.00  0.00    +0.000 C 
BRANCH  16  17
ATOM     17  C   UNL     1       2.431   7.262  18.400  0.00  0.00    +0.000 A 
ATOM     18  C   UNL     1       2.072   8.447  17.741  0.00  0.00    +0.000 A 
ATOM     19  C   UNL     1       1.490   9.506  18.442  0.00  0.00    +0.000 A 
ATOM     20  C   UNL     1       1.233   9.377  19.804  0.00  0.00    +0.000 A 
ATOM     21 CL   UNL     1       0.558  10.697  20.676  0.00  0.00    +0.000 Cl
ATOM     22  C   UNL     1       1.527   8.187  20.465  0.00  0.00    +0.000 A 
ATOM     23  C   UNL     1       2.117   7.132  19.764  0.00  0.00    +0.000 A 
ENDBRANCH  16  17
ENDBRANCH  12  16
TORSDOF 3
ENDMDL
MODEL 2
REMARK VINA RESULT:      -8.1      0.144      1.039
REMARK  Name = 
REMARK  4 active torsions:
REMARK  status: ('A' for Active; 'I' for Inactive)
REMARK    1  A    between atoms: C_1  and  C_2
REMARK    2  A    between atoms: C_2  and  C_3
REMARK    3  A    between atoms: N_14  and  C_15
REMARK    4  A    between atoms: C_15  and  C_16
REMARK                            x       y       z     vdW  Elec       q    Type
REMARK                         _______ _______ _______ _____ _____    ______ ____
ROOT
ATOM      1  C   UNL     1       2.619   3.032  18.527  0.00  0.00    +0.000 C 
ATOM      2  O   UNL     1       2.833   3.125  17.325  0.00  0.00    +0.000 OA
ATOM      3  N   UNL     1       3.281   3.739  19.518  0.00  0.00    +0.000 N 
ATOM      4  C   UNL     1       4.311   4.578  19.162  0.00  0.00    +0.000 A 
ATOM      5  N   UNL     1       5.503   4.490  19.707  0.00  0.00    +0.000 NA
ATOM      6  C   UNL     1       6.276   5.407  19.046  0.00  0.00    +0.000 A 
ATOM      7  C   UNL     1       7.654   5.647  19.144  0.00  0.00    +0.000 A 
ATOM      8  C   UNL     1       8.215   6.676  18.380  0.00  0.00    +0.000 A 
ATOM      9  C   UNL     1       7.417   7.472  17.559  0.00  0.00    +0.000 A 
ATOM     10  C   UNL     1       6.041   7.243  17.442  0.00  0.00    +0.000 A 
ATOM     11  C   UNL     1       5.508   6.175  18.175  0.00  0.00    +0.000 A 
ATOM     12  N   UNL     1       4.241   5.633  18.275  0.00  0.00    +0.000 N 
ATOM     13  H   UNL     1       3.475   3.217  20.364  0.00  0.00    +0.000 HD
ENDROOT
BRANCH   1  15
ATOM     14  C   UNL     1       1.087   2.576  20.459  0.00  0.00    +0.000 C 
ATOM     15  C   UNL     1       1.555   2.110  19.090  0.00  0.00    +0.000 C 
ENDBRANCH   1  15
BRANCH  12  16
ATOM     16  C   UNL     1       3.056   6.177  17.624  0.00  0.00    +0.000 C 
BRANCH  16  17
ATOM     17  C   UNL     1       2.392   7.289  18.410  0.00  0.00    +0.000 A 
ATOM     18  C   UNL     1       2.138   7.183  19.786  0.00  0.00    +0.000 A 
ATOM     19  C   UNL     1       1.500   8.217  20.474  0.00  0.00    +0.000 A 
ATOM     20  C   UNL     1       1.136   9.379  19.800  0.00  0.00    +0.000 A 
ATOM     21 CL   UNL     1       0.309  10.632  20.638  0.00  0.00    +0.000 Cl
ATOM     22  C   UNL     1       1.432   9.528  18.447  0.00  0.00    +0.000 A 
ATOM     23  C   UNL     1       2.063   8.489  17.757  0.00  0.00    +0.000 A 
ENDBRANCH  16  17
ENDBRANCH  12  16
TORSDOF 3
ENDMDL
MODEL 3
REMARK VINA RESULT:      -7.8      1.649      4.823
REMARK  Name = 
REMARK  4 active torsions:
REMARK  status: ('A' for Active; 'I' for Inactive)
REMARK    1  A    between atoms: C_1  and  C_2
REMARK    2  A    between atoms: C_2  and  C_3
REMARK    3  A    between atoms: N_14  and  C_15
REMARK    4  A    between atoms: C_15  and  C_16
REMARK                            x       y       z     vdW  Elec       q    Type
REMARK                         _______ _______ _______ _____ _____    ______ ____
ROOT
ATOM      1  C   UNL     1       6.239   5.916  17.888  0.00  0.00    +0.000 C 
ATOM      2  O   UNL     1       6.372   5.615  19.068  0.00  0.00    +0.000 OA
ATOM      3  N   UNL     1       5.103   5.697  17.127  0.00  0.00    +0.000 N 
ATOM      4  C   UNL     1       4.039   5.034  17.693  0.00  0.00    +0.000 A 
ATOM      5  N   UNL     1       3.501   3.973  17.137  0.00  0.00    +0.000 NA
ATOM      6  C   UNL     1       2.548   3.540  18.021  0.00  0.00    +0.000 A 
ATOM      7  C   UNL     1       1.758   2.382  17.984  0.00  0.00    +0.000 A 
ATOM      8  C   UNL     1       0.818   2.174  18.999  0.00  0.00    +0.000 A 
ATOM      9  C   UNL     1       0.644   3.115  20.013  0.00  0.00    +0.000 A 
ATOM     10  C   UNL     1       1.427   4.273  20.071  0.00  0.00    +0.000 A 
ATOM     11  C   UNL     1       2.398   4.437  19.076  0.00  0.00    +0.000 A 
ATOM     12  N   UNL     1       3.360   5.401  18.839  0.00  0.00    +0.000 N 
ATOM     13  H   UNL     1       5.272   5.418  16.168  0.00  0.00    +0.000 HD
ENDROOT
BRANCH   1  15
ATOM     14  C   UNL     1       7.776   7.893  17.769  0.00  0.00    +0.000 C 
ATOM     15  C   UNL     1       7.337   6.601  17.099  0.00  0.00    +0.000 C 
ENDBRANCH   1  15
BRANCH  12  16
ATOM     16  C   UNL     1       3.520   6.618  19.622  0.00  0.00    +0.000 C 
BRANCH  16  17
ATOM     17  C   UNL     1       2.468   7.668  19.329  0.00  0.00    +0.000 A 
ATOM     18  C   UNL     1       1.633   8.189  20.328  0.00  0.00    +0.000 A 
ATOM     19  C   UNL     1       0.655   9.137  20.018  0.00  0.00    +0.000 A 
ATOM     20  C   UNL     1       0.524   9.596  18.710  0.00  0.00    +0.000 A 
ATOM     21 CL   UNL     1      -0.709  10.729  18.320  0.00  0.00    +0.000 Cl
ATOM     22  C   UNL     1       1.382   9.135  17.715  0.00  0.00    +0.000 A 
ATOM     23  C   UNL     1       2.354   8.180  18.025  0.00  0.00    +0.000 A 
ENDBRANCH  16  17
ENDBRANCH  12  16
TORSDOF 3
ENDMDL
MODEL 4
REMARK VINA RESULT:      -7.7      1.664      2.050
REMARK  Name = 
REMARK  4 active torsions:
REMARK  status: ('A' for Active; 'I' for Inactive)
REMARK    1  A    between atoms: C_1  and  C_2
REMARK    2  A    between atoms: C_2  and  C_3
REMARK    3  A    between atoms: N_14  and  C_15
REMARK    4  A    between atoms: C_15  and  C_16
REMARK                            x       y       z     vdW  Elec       q    Type
REMARK                         _______ _______ _______ _____ _____    ______ ____
ROOT
ATOM      1  C   UNL     1       3.191   2.814  20.219  0.00  0.00    +0.000 C 
ATOM      2  O   UNL     1       2.752   2.274  19.210  0.00  0.00    +0.000 OA
ATOM      3  N   UNL     1       4.166   3.797  20.243  0.00  0.00    +0.000 N 
ATOM      4  C   UNL     1       4.756   4.180  19.060  0.00  0.00    +0.000 A 
ATOM      5  N   UNL     1       6.059   4.181  18.898  0.00  0.00    +0.000 NA
ATOM      6  C   UNL     1       6.264   4.522  17.587  0.00  0.00    +0.000 A 
ATOM      7  C   UNL     1       7.458   4.556  16.852  0.00  0.00    +0.000 A 
ATOM      8  C   UNL     1       7.416   4.978  15.518  0.00  0.00    +0.000 A 
ATOM      9  C   UNL     1       6.216   5.388  14.937  0.00  0.00    +0.000 A 
ATOM     10  C   UNL     1       5.014   5.355  15.653  0.00  0.00    +0.000 A 
ATOM     11  C   UNL     1       5.069   4.880  16.970  0.00  0.00    +0.000 A 
ATOM     12  N   UNL     1       4.109   4.665  17.941  0.00  0.00    +0.000 N 
ATOM     13  H   UNL     1       4.828   3.731  21.006  0.00  0.00    +0.000 HD
ENDROOT
BRANCH   1  15
ATOM     14  C   UNL     1       1.200   2.739  21.740  0.00  0.00    +0.000 C 
ATOM     15  C   UNL     1       2.689   2.466  21.606  0.00  0.00    +0.000 C 
ENDBRANCH   1  15
BRANCH  12  16
ATOM     16  C   UNL     1       2.700   5.004  17.798  0.00  0.00    +0.000 C 
BRANCH  16  17
ATOM     17  C   UNL     1       2.323   6.312  18.463  0.00  0.00    +0.000 A 
ATOM     18  C   UNL     1       2.033   6.398  19.833  0.00  0.00    +0.000 A 
ATOM     19  C   UNL     1       1.662   7.616  20.408  0.00  0.00    +0.000 A 
ATOM     20  C   UNL     1       1.608   8.765  19.625  0.00  0.00    +0.000 A 
ATOM     21 CL   UNL     1       1.108  10.255  20.324  0.00  0.00    +0.000 Cl
ATOM     22  C   UNL     1       1.950   8.713  18.276  0.00  0.00    +0.000 A 
ATOM     23  C   UNL     1       2.312   7.492  17.699  0.00  0.00    +0.000 A 
ENDBRANCH  16  17
ENDBRANCH  12  16
TORSDOF 3
ENDMDL
MODEL 5
REMARK VINA RESULT:      -7.7      1.578      4.703
REMARK  Name = 
REMARK  4 active torsions:
REMARK  status: ('A' for Active; 'I' for Inactive)
REMARK    1  A    between atoms: C_1  and  C_2
REMARK    2  A    between atoms: C_2  and  C_3
REMARK    3  A    between atoms: N_14  and  C_15
REMARK    4  A    between atoms: C_15  and  C_16
REMARK                            x       y       z     vdW  Elec       q    Type
REMARK                         _______ _______ _______ _____ _____    ______ ____
ROOT
ATOM      1  C   UNL     1       6.392   5.576  18.381  0.00  0.00    +0.000 C 
ATOM      2  O   UNL     1       6.386   5.277  19.569  0.00  0.00    +0.000 OA
ATOM      3  N   UNL     1       5.332   5.407  17.505  0.00  0.00    +0.000 N 
ATOM      4  C   UNL     1       4.183   4.802  17.958  0.00  0.00    +0.000 A 
ATOM      5  N   UNL     1       3.654   3.764  17.351  0.00  0.00    +0.000 NA
ATOM      6  C   UNL     1       2.594   3.384  18.131  0.00  0.00    +0.000 A 
ATOM      7  C   UNL     1       1.756   2.266  18.013  0.00  0.00    +0.000 A 
ATOM      8  C   UNL     1       0.706   2.111  18.924  0.00  0.00    +0.000 A 
ATOM      9  C   UNL     1       0.474   3.067  19.913  0.00  0.00    +0.000 A 
ATOM     10  C   UNL     1       1.303   4.185  20.051  0.00  0.00    +0.000 A 
ATOM     11  C   UNL     1       2.380   4.295  19.162  0.00  0.00    +0.000 A 
ATOM     12  N   UNL     1       3.407   5.208  19.026  0.00  0.00    +0.000 N 
ATOM     13  H   UNL     1       5.586   5.114  16.570  0.00  0.00    +0.000 HD
ENDROOT
BRANCH   1  15
ATOM     14  C   UNL     1       7.536   7.719  17.761  0.00  0.00    +0.000 C 
ATOM     15  C   UNL     1       7.599   6.201  17.710  0.00  0.00    +0.000 C 
ENDBRANCH   1  15
BRANCH  12  16
ATOM     16  C   UNL     1       3.544   6.422  19.820  0.00  0.00    +0.000 C 
BRANCH  16  17
ATOM     17  C   UNL     1       2.558   7.508  19.439  0.00  0.00    +0.000 A 
ATOM     18  C   UNL     1       2.447   7.989  18.125  0.00  0.00    +0.000 A 
ATOM     19  C   UNL     1       1.546   9.009  17.814  0.00  0.00    +0.000 A 
ATOM     20  C   UNL     1       0.726   9.538  18.807  0.00  0.00    +0.000 A 
ATOM     21 CL   UNL     1      -0.350  10.826  18.433  0.00  0.00    +0.000 Cl
ATOM     22  C   UNL     1       0.780   9.034  20.104  0.00  0.00    +0.000 A 
ATOM     23  C   UNL     1       1.688   8.018  20.416  0.00  0.00    +0.000 A 
ENDBRANCH  16  17
ENDBRANCH  12  16
TORSDOF 3
ENDMDL
MODEL 6
REMARK VINA RESULT:      -7.6      1.986      4.778
REMARK  Name = 
REMARK  4 active torsions:
REMARK  status: ('A' for Active; 'I' for Inactive)
REMARK    1  A    between atoms: C_1  and  C_2
REMARK    2  A    between atoms: C_2  and  C_3
REMARK    3  A    between atoms: N_14  and  C_15
REMARK    4  A    between atoms: C_15  and  C_16
REMARK                            x       y       z     vdW  Elec       q    Type
REMARK                         _______ _______ _______ _____ _____    ______ ____
ROOT
ATOM      1  C   UNL     1       5.983   4.712  16.736  0.00  0.00    +0.000 C 
ATOM      2  O   UNL     1       6.390   4.546  17.880  0.00  0.00    +0.000 OA
ATOM      3  N   UNL     1       4.662   4.610  16.331  0.00  0.00    +0.000 N 
ATOM      4  C   UNL     1       3.711   4.233  17.250  0.00  0.00    +0.000 A 
ATOM      5  N   UNL     1       2.894   3.227  17.038  0.00  0.00    +0.000 NA
ATOM      6  C   UNL     1       2.169   3.094  18.192  0.00  0.00    +0.000 A 
ATOM      7  C   UNL     1       1.241   2.107  18.553  0.00  0.00    +0.000 A 
ATOM      8  C   UNL     1       0.596   2.208  19.791  0.00  0.00    +0.000 A 
ATOM      9  C   UNL     1       0.843   3.288  20.638  0.00  0.00    +0.000 A 
ATOM     10  C   UNL     1       1.770   4.279  20.298  0.00  0.00    +0.000 A 
ATOM     11  C   UNL     1       2.444   4.132  19.079  0.00  0.00    +0.000 A 
ATOM     12  N   UNL     1       3.432   4.863  18.447  0.00  0.00    +0.000 N 
ATOM     13  H   UNL     1       4.520   4.183  15.424  0.00  0.00    +0.000 HD
ENDROOT
BRANCH   1  15
ATOM     14  C   UNL     1       6.444   4.457  14.284  0.00  0.00    +0.000 C 
ATOM     15  C   UNL     1       6.910   5.075  15.592  0.00  0.00    +0.000 C 
ENDBRANCH   1  15
BRANCH  12  16
ATOM     16  C   UNL     1       3.974   6.121  18.944  0.00  0.00    +0.000 C 
BRANCH  16  17
ATOM     17  C   UNL     1       2.978   7.262  18.912  0.00  0.00    +0.000 A 
ATOM     18  C   UNL     1       2.207   7.612  20.031  0.00  0.00    +0.000 A 
ATOM     19  C   UNL     1       1.278   8.653  19.959  0.00  0.00    +0.000 A 
ATOM     20  C   UNL     1       1.134   9.374  18.777  0.00  0.00    +0.000 A 
ATOM     21 CL   UNL     1      -0.041  10.626  18.676  0.00  0.00    +0.000 Cl
ATOM     22  C   UNL     1       1.932   9.081  17.674  0.00  0.00    +0.000 A 
ATOM     23  C   UNL     1       2.855   8.033  17.744  0.00  0.00    +0.000 A 
ENDBRANCH  16  17
ENDBRANCH  12  16
TORSDOF 3
ENDMDL
MODEL 7
REMARK VINA RESULT:      -7.5      1.860      4.692
REMARK  Name = 
REMARK  4 active torsions:
REMARK  status: ('A' for Active; 'I' for Inactive)
REMARK    1  A    between atoms: C_1  and  C_2
REMARK    2  A    between atoms: C_2  and  C_3
REMARK    3  A    between atoms: N_14  and  C_15
REMARK    4  A    between atoms: C_15  and  C_16
REMARK                            x       y       z     vdW  Elec       q    Type
REMARK                         _______ _______ _______ _____ _____    ______ ____
ROOT
ATOM      1  C   UNL     1       5.998   5.125  17.058  0.00  0.00    +0.000 C 
ATOM      2  O   UNL     1       6.344   4.915  18.215  0.00  0.00    +0.000 OA
ATOM      3  N   UNL     1       4.712   4.979  16.566  0.00  0.00    +0.000 N 
ATOM      4  C   UNL     1       3.729   4.502  17.402  0.00  0.00    +0.000 A 
ATOM      5  N   UNL     1       2.983   3.469  17.084  0.00  0.00    +0.000 NA
ATOM      6  C   UNL     1       2.198   3.233  18.181  0.00  0.00    +0.000 A 
ATOM      7  C   UNL     1       1.305   2.180  18.428  0.00  0.00    +0.000 A 
ATOM      8  C   UNL     1       0.582   2.176  19.626  0.00  0.00    +0.000 A 
ATOM      9  C   UNL     1       0.719   3.217  20.545  0.00  0.00    +0.000 A 
ATOM     10  C   UNL     1       1.609   4.272  20.319  0.00  0.00    +0.000 A 
ATOM     11  C   UNL     1       2.362   4.230  19.139  0.00  0.00    +0.000 A 
ATOM     12  N   UNL     1       3.345   5.046  18.611  0.00  0.00    +0.000 N 
ATOM     13  H   UNL     1       4.648   4.599  15.630  0.00  0.00    +0.000 HD
ENDROOT
BRANCH   1  15
ATOM     14  C   UNL     1       6.882   4.748  14.743  0.00  0.00    +0.000 C 
ATOM     15  C   UNL     1       6.971   5.601  15.997  0.00  0.00    +0.000 C 
ENDBRANCH   1  15
BRANCH  12  16
ATOM     16  C   UNL     1       3.786   6.299  19.209  0.00  0.00    +0.000 C 
BRANCH  16  17
ATOM     17  C   UNL     1       2.787   7.428  19.053  0.00  0.00    +0.000 A 
ATOM     18  C   UNL     1       2.594   8.091  17.832  0.00  0.00    +0.000 A 
ATOM     19  C   UNL     1       1.683   9.146  17.730  0.00  0.00    +0.000 A 
ATOM     20  C   UNL     1       0.936   9.526  18.841  0.00  0.00    +0.000 A 
ATOM     21 CL   UNL     1      -0.152  10.854  18.727  0.00  0.00    +0.000 Cl
ATOM     22  C   UNL     1       1.070   8.842  20.046  0.00  0.00    +0.000 A 
ATOM     23  C   UNL     1       1.987   7.792  20.149  0.00  0.00    +0.000 A 
ENDBRANCH  16  17
ENDBRANCH  12  16
TORSDOF 3
ENDMDL
MODEL 8
REMARK VINA RESULT:      -7.5      1.685      1.803
REMARK  Name = 
REMARK  4 active torsions:
REMARK  status: ('A' for Active; 'I' for Inactive)
REMARK    1  A    between atoms: C_1  and  C_2
REMARK    2  A    between atoms: C_2  and  C_3
REMARK    3  A    between atoms: N_14  and  C_15
REMARK    4  A    between atoms: C_15  and  C_16
REMARK                            x       y       z     vdW  Elec       q    Type
REMARK                         _______ _______ _______ _____ _____    ______ ____
ROOT
ATOM      1  C   UNL     1       3.173   2.694  20.176  0.00  0.00    +0.000 C 
ATOM      2  O   UNL     1       2.729   2.186  19.154  0.00  0.00    +0.000 OA
ATOM      3  N   UNL     1       4.145   3.680  20.225  0.00  0.00    +0.000 N 
ATOM      4  C   UNL     1       4.725   4.103  19.052  0.00  0.00    +0.000 A 
ATOM      5  N   UNL     1       6.027   4.113  18.881  0.00  0.00    +0.000 NA
ATOM      6  C   UNL     1       6.223   4.498  17.581  0.00  0.00    +0.000 A 
ATOM      7  C   UNL     1       7.411   4.561  16.839  0.00  0.00    +0.000 A 
ATOM      8  C   UNL     1       7.358   5.025  15.520  0.00  0.00    +0.000 A 
ATOM      9  C   UNL     1       6.153   5.450  14.961  0.00  0.00    +0.000 A 
ATOM     10  C   UNL     1       4.956   5.389  15.683  0.00  0.00    +0.000 A 
ATOM     11  C   UNL     1       5.022   4.872  16.983  0.00  0.00    +0.000 A 
ATOM     12  N   UNL     1       4.070   4.622  17.953  0.00  0.00    +0.000 N 
ATOM     13  H   UNL     1       4.813   3.591  20.982  0.00  0.00    +0.000 HD
ENDROOT
BRANCH   1  15
ATOM     14  C   UNL     1       1.293   2.854  21.827  0.00  0.00    +0.000 C 
ATOM     15  C   UNL     1       2.682   2.300  21.555  0.00  0.00    +0.000 C 
ENDBRANCH   1  15
BRANCH  12  16
ATOM     16  C   UNL     1       2.658   4.961  17.831  0.00  0.00    +0.000 C 
BRANCH  16  17
ATOM     17  C   UNL     1       2.274   6.224  18.573  0.00  0.00    +0.000 A 
ATOM     18  C   UNL     1       2.279   7.484  17.956  0.00  0.00    +0.000 A 
ATOM     19  C   UNL     1       1.944   8.633  18.677  0.00  0.00    +0.000 A 
ATOM     20  C   UNL     1       1.571   8.529  20.013  0.00  0.00    +0.000 A 
ATOM     21 CL   UNL     1       1.203   9.948  20.912  0.00  0.00    +0.000 Cl
ATOM     22  C   UNL     1       1.502   7.281  20.628  0.00  0.00    +0.000 A 
ATOM     23  C   UNL     1       1.845   6.133  19.908  0.00  0.00    +0.000 A 
ENDBRANCH  16  17
ENDBRANCH  12  16
TORSDOF 3
ENDMDL
MODEL 9
REMARK VINA RESULT:      -7.1      3.071      5.829
REMARK  Name = 
REMARK  4 active torsions:
REMARK  status: ('A' for Active; 'I' for Inactive)
REMARK    1  A    between atoms: C_1  and  C_2
REMARK    2  A    between atoms: C_2  and  C_3
REMARK    3  A    between atoms: N_14  and  C_15
REMARK    4  A    between atoms: C_15  and  C_16
REMARK                            x       y       z     vdW  Elec       q    Type
REMARK                         _______ _______ _______ _____ _____    ______ ____
ROOT
ATOM      1  C   UNL     1       1.827   7.945  19.939  0.00  0.00    +0.000 C 
ATOM      2  O   UNL     1       2.164   7.945  18.761  0.00  0.00    +0.000 OA
ATOM      3  N   UNL     1       1.761   6.828  20.755  0.00  0.00    +0.000 N 
ATOM      4  C   UNL     1       2.029   5.592  20.215  0.00  0.00    +0.000 A 
ATOM      5  N   UNL     1       1.191   4.586  20.324  0.00  0.00    +0.000 NA
ATOM      6  C   UNL     1       1.745   3.568  19.594  0.00  0.00    +0.000 A 
ATOM      7  C   UNL     1       1.215   2.310  19.274  0.00  0.00    +0.000 A 
ATOM      8  C   UNL     1       1.998   1.417  18.533  0.00  0.00    +0.000 A 
ATOM      9  C   UNL     1       3.294   1.756  18.147  0.00  0.00    +0.000 A 
ATOM     10  C   UNL     1       3.838   3.009  18.451  0.00  0.00    +0.000 A 
ATOM     11  C   UNL     1       3.019   3.908  19.147  0.00  0.00    +0.000 A 
ATOM     12  N   UNL     1       3.189   5.212  19.569  0.00  0.00    +0.000 N 
ATOM     13  H   UNL     1       0.983   6.812  21.403  0.00  0.00    +0.000 HD
ENDROOT
BRANCH   1  15
ATOM     14  C   UNL     1       0.271   8.985  21.607  0.00  0.00    +0.000 C 
ATOM     15  C   UNL     1       1.446   9.217  20.670  0.00  0.00    +0.000 C 
ENDBRANCH   1  15
BRANCH  12  16
ATOM     16  C   UNL     1       4.424   5.972  19.429  0.00  0.00    +0.000 C 
BRANCH  16  17
ATOM     17  C   UNL     1       5.124   5.748  18.105  0.00  0.00    +0.000 A 
ATOM     18  C   UNL     1       4.605   6.230  16.894  0.00  0.00    +0.000 A 
ATOM     19  C   UNL     1       5.263   5.983  15.687  0.00  0.00    +0.000 A 
ATOM     20  C   UNL     1       6.463   5.277  15.683  0.00  0.00    +0.000 A 
ATOM     21 CL   UNL     1       7.249   4.934  14.193  0.00  0.00    +0.000 Cl
ATOM     22  C   UNL     1       7.025   4.841  16.880  0.00  0.00    +0.000 A 
ATOM     23  C   UNL     1       6.362   5.082  18.086  0.00  0.00    +0.000 A 
ENDBRANCH  16  17
ENDBRANCH  12  16
TORSDOF 3
ENDMDL
