MODEL 1
REMARK VINA RESULT:      -6.8      0.000      0.000
REMARK  Name = 
REMARK  4 active torsions:
REMARK  status: ('A' for Active; 'I' for Inactive)
REMARK    1  A    between atoms: C_1  and  C_2
REMARK    2  A    between atoms: C_6  and  C_7
REMARK    3  A    between atoms: N_13  and  C_14
REMARK    4  A    between atoms: N_22  and  C_23
REMARK                            x       y       z     vdW  Elec       q    Type
REMARK                         _______ _______ _______ _____ _____    ______ ____
ROOT
ATOM      1  C   UNL     1       1.916  13.616  19.343  0.00  0.00    +0.000 A 
ATOM      2  N   UNL     1       1.879  12.309  19.280  0.00  0.00    +0.000 NA
ATOM      3  C   UNL     1       0.663  11.736  19.462  0.00  0.00    +0.000 A 
ATOM      4  C   UNL     1      -0.506  12.400  19.716  0.00  0.00    +0.000 A 
ATOM      5  C   UNL     1      -1.500  11.427  19.782  0.00  0.00    +0.000 A 
ATOM      6  N   UNL     1      -1.012  10.200  19.585  0.00  0.00    +0.000 NA
ATOM      7  N   UNL     1       0.340  10.380  19.409  0.00  0.00    +0.000 N 
ATOM      8  C   UNL     1      -0.514  13.828  19.822  0.00  0.00    +0.000 A 
ATOM      9  O   UNL     1      -1.554  14.435  20.063  0.00  0.00    +0.000 OA
ATOM     10  N   UNL     1       0.753  14.412  19.573  0.00  0.00    +0.000 N 
ENDROOT
BRANCH   1  16
ATOM     11  C   UNL     1       6.010  15.572  21.547  0.00  0.00    +0.000 C 
ATOM     12  C   UNL     1       5.285  15.156  20.299  0.00  0.00    +0.000 A 
ATOM     13  C   UNL     1       5.854  15.397  19.046  0.00  0.00    +0.000 A 
ATOM     14  C   UNL     1       5.136  15.121  17.887  0.00  0.00    +0.000 A 
ATOM     15  C   UNL     1       3.843  14.602  17.974  0.00  0.00    +0.000 A 
ATOM     16  C   UNL     1       3.290  14.244  19.208  0.00  0.00    +0.000 A 
ATOM     17  C   UNL     1       4.012  14.562  20.374  0.00  0.00    +0.000 A 
ENDBRANCH   1  16
BRANCH  10  18
ATOM     18  C   UNL     1       0.752  15.834  19.468  0.00  0.00    +0.000 A 
ATOM     19  C   UNL     1       0.942  16.640  20.598  0.00  0.00    +0.000 A 
ATOM     20  C   UNL     1       0.881  18.030  20.485  0.00  0.00    +0.000 A 
ATOM     21  C   UNL     1       0.619  18.620  19.247  0.00  0.00    +0.000 A 
ATOM     22  C   UNL     1       0.434  17.820  18.121  0.00  0.00    +0.000 A 
ATOM     23 CL   UNL     1       0.054  18.543  16.608  0.00  0.00    +0.000 Cl
ATOM     24  C   UNL     1       0.517  16.434  18.220  0.00  0.00    +0.000 A 
ENDBRANCH  10  18
BRANCH   7  25
ATOM     25  C   UNL     1       1.187   9.252  19.196  0.00  0.00    +0.000 A 
ATOM     26  C   UNL     1       1.396   8.338  20.238  0.00  0.00    +0.000 A 
ATOM     27  C   UNL     1       2.188   7.205  20.035  0.00  0.00    +0.000 A 
ATOM     28  C   UNL     1       2.786   6.982  18.797  0.00  0.00    +0.000 A 
ATOM     29  C   UNL     1       2.606   7.900  17.765  0.00  0.00    +0.000 A 
ATOM     30  C   UNL     1       1.812   9.031  17.961  0.00  0.00    +0.000 A 
ENDBRANCH   7  25
TORSDOF 3
ENDMDL
MODEL 2
REMARK VINA RESULT:      -6.8      2.338      6.321
REMARK  Name = 
REMARK  4 active torsions:
REMARK  status: ('A' for Active; 'I' for Inactive)
REMARK    1  A    between atoms: C_1  and  C_2
REMARK    2  A    between atoms: C_6  and  C_7
REMARK    3  A    between atoms: N_13  and  C_14
REMARK    4  A    between atoms: N_22  and  C_23
REMARK                            x       y       z     vdW  Elec       q    Type
REMARK                         _______ _______ _______ _____ _____    ______ ____
ROOT
ATOM      1  C   UNL     1       1.599  12.855  18.903  0.00  0.00    +0.000 A 
ATOM      2  N   UNL     1       2.797  13.384  18.914  0.00  0.00    +0.000 NA
ATOM      3  C   UNL     1       2.854  14.734  18.804  0.00  0.00    +0.000 A 
ATOM      4  C   UNL     1       1.782  15.574  18.672  0.00  0.00    +0.000 A 
ATOM      5  C   UNL     1       2.301  16.867  18.643  0.00  0.00    +0.000 A 
ATOM      6  N   UNL     1       3.631  16.873  18.750  0.00  0.00    +0.000 NA
ATOM      7  N   UNL     1       3.987  15.547  18.826  0.00  0.00    +0.000 N 
ATOM      8  C   UNL     1       0.453  15.042  18.627  0.00  0.00    +0.000 A 
ATOM      9  O   UNL     1      -0.517  15.784  18.495  0.00  0.00    +0.000 OA
ATOM     10  N   UNL     1       0.409  13.637  18.800  0.00  0.00    +0.000 N 
ENDROOT
BRANCH   1  16
ATOM     11  C   UNL     1       0.571   8.653  21.497  0.00  0.00    +0.000 C 
ATOM     12  C   UNL     1       1.006   9.312  20.220  0.00  0.00    +0.000 A 
ATOM     13  C   UNL     1       1.403   8.533  19.130  0.00  0.00    +0.000 A 
ATOM     14  C   UNL     1       1.917   9.138  17.988  0.00  0.00    +0.000 A 
ATOM     15  C   UNL     1       2.039  10.527  17.929  0.00  0.00    +0.000 A 
ATOM     16  C   UNL     1       1.547  11.339  18.956  0.00  0.00    +0.000 A 
ATOM     17  C   UNL     1       1.063  10.714  20.120  0.00  0.00    +0.000 A 
ENDBRANCH   1  16
BRANCH  10  18
ATOM     18  C   UNL     1      -0.897  13.089  18.964  0.00  0.00    +0.000 A 
ATOM     19  C   UNL     1      -1.612  13.276  20.155  0.00  0.00    +0.000 A 
ATOM     20  C   UNL     1      -2.866  12.684  20.318  0.00  0.00    +0.000 A 
ATOM     21  C   UNL     1      -3.406  11.896  19.300  0.00  0.00    +0.000 A 
ATOM     22  C   UNL     1      -2.698  11.714  18.113  0.00  0.00    +0.000 A 
ATOM     23 CL   UNL     1      -3.336  10.696  16.882  0.00  0.00    +0.000 Cl
ATOM     24  C   UNL     1      -1.457  12.319  17.932  0.00  0.00    +0.000 A 
ENDBRANCH  10  18
BRANCH   7  25
ATOM     25  C   UNL     1       5.364  15.184  18.924  0.00  0.00    +0.000 A 
ATOM     26  C   UNL     1       6.030  14.687  17.794  0.00  0.00    +0.000 A 
ATOM     27  C   UNL     1       7.388  14.366  17.860  0.00  0.00    +0.000 A 
ATOM     28  C   UNL     1       8.088  14.526  19.053  0.00  0.00    +0.000 A 
ATOM     29  C   UNL     1       7.427  14.993  20.187  0.00  0.00    +0.000 A 
ATOM     30  C   UNL     1       6.071  15.319  20.126  0.00  0.00    +0.000 A 
ENDBRANCH   7  25
TORSDOF 3
ENDMDL
MODEL 3
REMARK VINA RESULT:      -6.7      3.049      8.018
REMARK  Name = 
REMARK  4 active torsions:
REMARK  status: ('A' for Active; 'I' for Inactive)
REMARK    1  A    between atoms: C_1  and  C_2
REMARK    2  A    between atoms: C_6  and  C_7
REMARK    3  A    between atoms: N_13  and  C_14
REMARK    4  A    between atoms: N_22  and  C_23
REMARK                            x       y       z     vdW  Elec       q    Type
REMARK                         _______ _______ _______ _____ _____    ______ ____
ROOT
ATOM      1  C   UNL     1      -0.216  12.731  19.380  0.00  0.00    +0.000 A 
ATOM      2  N   UNL     1       0.017  13.933  18.914  0.00  0.00    +0.000 NA
ATOM      3  C   UNL     1       1.137  14.544  19.375  0.00  0.00    +0.000 A 
ATOM      4  C   UNL     1       2.020  14.023  20.281  0.00  0.00    +0.000 A 
ATOM      5  C   UNL     1       3.035  14.967  20.422  0.00  0.00    +0.000 A 
ATOM      6  N   UNL     1       2.829  16.041  19.655  0.00  0.00    +0.000 NA
ATOM      7  N   UNL     1       1.635  15.797  19.018  0.00  0.00    +0.000 N 
ATOM      8  C   UNL     1       1.795  12.725  20.841  0.00  0.00    +0.000 A 
ATOM      9  O   UNL     1       2.573  12.252  21.665  0.00  0.00    +0.000 OA
ATOM     10  N   UNL     1       0.653  12.078  20.307  0.00  0.00    +0.000 N 
ENDROOT
BRANCH   1  16
ATOM     11  C   UNL     1      -2.620   9.783  16.069  0.00  0.00    +0.000 C 
ATOM     12  C   UNL     1      -2.647  10.618  17.317  0.00  0.00    +0.000 A 
ATOM     13  C   UNL     1      -3.852  10.827  17.994  0.00  0.00    +0.000 A 
ATOM     14  C   UNL     1      -3.902  11.692  19.081  0.00  0.00    +0.000 A 
ATOM     15  C   UNL     1      -2.747  12.356  19.499  0.00  0.00    +0.000 A 
ATOM     16  C   UNL     1      -1.506  12.083  18.914  0.00  0.00    +0.000 A 
ATOM     17  C   UNL     1      -1.475  11.233  17.793  0.00  0.00    +0.000 A 
ENDBRANCH   1  16
BRANCH  10  18
ATOM     18  C   UNL     1       0.503  10.711  20.682  0.00  0.00    +0.000 A 
ATOM     19  C   UNL     1      -0.355  10.340  21.725  0.00  0.00    +0.000 A 
ATOM     20  C   UNL     1      -0.446   9.003  22.115  0.00  0.00    +0.000 A 
ATOM     21  C   UNL     1       0.327   8.033  21.473  0.00  0.00    +0.000 A 
ATOM     22  C   UNL     1       1.177   8.400  20.431  0.00  0.00    +0.000 A 
ATOM     23 CL   UNL     1       2.172   7.216  19.679  0.00  0.00    +0.000 Cl
ATOM     24  C   UNL     1       1.256   9.728  20.020  0.00  0.00    +0.000 A 
ENDBRANCH  10  18
BRANCH   7  25
ATOM     25  C   UNL     1       1.093  16.769  18.125  0.00  0.00    +0.000 A 
ATOM     26  C   UNL     1       1.918  17.348  17.149  0.00  0.00    +0.000 A 
ATOM     27  C   UNL     1       1.395  18.270  16.239  0.00  0.00    +0.000 A 
ATOM     28  C   UNL     1       0.051  18.631  16.304  0.00  0.00    +0.000 A 
ATOM     29  C   UNL     1      -0.768  18.082  17.287  0.00  0.00    +0.000 A 
ATOM     30  C   UNL     1      -0.252  17.157  18.196  0.00  0.00    +0.000 A 
ENDBRANCH   7  25
TORSDOF 3
ENDMDL
MODEL 4
REMARK VINA RESULT:      -6.6      2.297      6.372
REMARK  Name = 
REMARK  4 active torsions:
REMARK  status: ('A' for Active; 'I' for Inactive)
REMARK    1  A    between atoms: C_1  and  C_2
REMARK    2  A    between atoms: C_6  and  C_7
REMARK    3  A    between atoms: N_13  and  C_14
REMARK    4  A    between atoms: N_22  and  C_23
REMARK                            x       y       z     vdW  Elec       q    Type
REMARK                         _______ _______ _______ _____ _____    ______ ____
ROOT
ATOM      1  C   UNL     1       1.562  12.791  18.949  0.00  0.00    +0.000 A 
ATOM      2  N   UNL     1       2.751  13.340  18.960  0.00  0.00    +0.000 NA
ATOM      3  C   UNL     1       2.783  14.693  18.870  0.00  0.00    +0.000 A 
ATOM      4  C   UNL     1       1.696  15.516  18.758  0.00  0.00    +0.000 A 
ATOM      5  C   UNL     1       2.192  16.818  18.745  0.00  0.00    +0.000 A 
ATOM      6  N   UNL     1       3.523  16.845  18.843  0.00  0.00    +0.000 NA
ATOM      7  N   UNL     1       3.902  15.525  18.897  0.00  0.00    +0.000 N 
ATOM      8  C   UNL     1       0.376  14.962  18.713  0.00  0.00    +0.000 A 
ATOM      9  O   UNL     1      -0.608  15.689  18.598  0.00  0.00    +0.000 OA
ATOM     10  N   UNL     1       0.358  13.553  18.865  0.00  0.00    +0.000 N 
ENDROOT
BRANCH   1  16
ATOM     11  C   UNL     1       0.655   8.533  21.497  0.00  0.00    +0.000 C 
ATOM     12  C   UNL     1       1.055   9.219  20.221  0.00  0.00    +0.000 A 
ATOM     13  C   UNL     1       1.444   8.463  19.112  0.00  0.00    +0.000 A 
ATOM     14  C   UNL     1       1.925   9.094  17.970  0.00  0.00    +0.000 A 
ATOM     15  C   UNL     1       2.022  10.486  17.930  0.00  0.00    +0.000 A 
ATOM     16  C   UNL     1       1.537  11.274  18.979  0.00  0.00    +0.000 A 
ATOM     17  C   UNL     1       1.086  10.623  20.142  0.00  0.00    +0.000 A 
ENDBRANCH   1  16
BRANCH  10  18
ATOM     18  C   UNL     1      -0.938  12.981  19.029  0.00  0.00    +0.000 A 
ATOM     19  C   UNL     1      -1.536  12.245  17.998  0.00  0.00    +0.000 A 
ATOM     20  C   UNL     1      -2.828  11.740  18.157  0.00  0.00    +0.000 A 
ATOM     21  C   UNL     1      -3.531  11.977  19.340  0.00  0.00    +0.000 A 
ATOM     22  C   UNL     1      -2.935  12.705  20.368  0.00  0.00    +0.000 A 
ATOM     23 CL   UNL     1      -3.821  13.047  21.802  0.00  0.00    +0.000 Cl
ATOM     24  C   UNL     1      -1.638  13.192  20.228  0.00  0.00    +0.000 A 
ENDBRANCH  10  18
BRANCH   7  25
ATOM     25  C   UNL     1       5.285  15.185  18.981  0.00  0.00    +0.000 A 
ATOM     26  C   UNL     1       5.967  14.770  17.827  0.00  0.00    +0.000 A 
ATOM     27  C   UNL     1       7.331  14.473  17.881  0.00  0.00    +0.000 A 
ATOM     28  C   UNL     1       8.022  14.576  19.086  0.00  0.00    +0.000 A 
ATOM     29  C   UNL     1       7.347  14.960  20.242  0.00  0.00    +0.000 A 
ATOM     30  C   UNL     1       5.984  15.261  20.193  0.00  0.00    +0.000 A 
ENDBRANCH   7  25
TORSDOF 3
ENDMDL
MODEL 5
REMARK VINA RESULT:      -6.6      2.730      4.808
REMARK  Name = 
REMARK  4 active torsions:
REMARK  status: ('A' for Active; 'I' for Inactive)
REMARK    1  A    between atoms: C_1  and  C_2
REMARK    2  A    between atoms: C_6  and  C_7
REMARK    3  A    between atoms: N_13  and  C_14
REMARK    4  A    between atoms: N_22  and  C_23
REMARK                            x       y       z     vdW  Elec       q    Type
REMARK                         _______ _______ _______ _____ _____    ______ ____
ROOT
ATOM      1  C   UNL     1      -0.094  14.699  19.448  0.00  0.00    +0.000 A 
ATOM      2  N   UNL     1      -0.761  13.693  18.941  0.00  0.00    +0.000 NA
ATOM      3  C   UNL     1      -0.337  12.455  19.298  0.00  0.00    +0.000 A 
ATOM      4  C   UNL     1       0.722  12.175  20.118  0.00  0.00    +0.000 A 
ATOM      5  C   UNL     1       0.761  10.788  20.244  0.00  0.00    +0.000 A 
ATOM      6  N   UNL     1      -0.212  10.196  19.548  0.00  0.00    +0.000 NA
ATOM      7  N   UNL     1      -0.886  11.225  18.935  0.00  0.00    +0.000 N 
ATOM      8  C   UNL     1       1.500  13.240  20.676  0.00  0.00    +0.000 A 
ATOM      9  O   UNL     1       2.461  13.002  21.403  0.00  0.00    +0.000 OA
ATOM     10  N   UNL     1       1.009  14.525  20.339  0.00  0.00    +0.000 N 
ENDROOT
BRANCH   1  16
ATOM     11  C   UNL     1       0.547  18.626  16.349  0.00  0.00    +0.000 C 
ATOM     12  C   UNL     1      -0.226  17.958  17.450  0.00  0.00    +0.000 A 
ATOM     13  C   UNL     1      -1.288  18.627  18.065  0.00  0.00    +0.000 A 
ATOM     14  C   UNL     1      -1.930  18.060  19.161  0.00  0.00    +0.000 A 
ATOM     15  C   UNL     1      -1.514  16.821  19.650  0.00  0.00    +0.000 A 
ATOM     16  C   UNL     1      -0.530  16.078  18.990  0.00  0.00    +0.000 A 
ATOM     17  C   UNL     1       0.136  16.677  17.904  0.00  0.00    +0.000 A 
ENDBRANCH   1  16
BRANCH  10  18
ATOM     18  C   UNL     1       1.626  15.608  21.031  0.00  0.00    +0.000 A 
ATOM     19  C   UNL     1       1.069  16.121  22.210  0.00  0.00    +0.000 A 
ATOM     20  C   UNL     1       1.657  17.217  22.843  0.00  0.00    +0.000 A 
ATOM     21  C   UNL     1       2.794  17.813  22.296  0.00  0.00    +0.000 A 
ATOM     22  C   UNL     1       3.353  17.302  21.126  0.00  0.00    +0.000 A 
ATOM     23 CL   UNL     1       4.719  18.071  20.420  0.00  0.00    +0.000 Cl
ATOM     24  C   UNL     1       2.787  16.193  20.501  0.00  0.00    +0.000 A 
ENDBRANCH  10  18
BRANCH   7  25
ATOM     25  C   UNL     1      -1.991  10.941  18.077  0.00  0.00    +0.000 A 
ATOM     26  C   UNL     1      -3.253  11.475  18.376  0.00  0.00    +0.000 A 
ATOM     27  C   UNL     1      -4.337  11.242  17.525  0.00  0.00    +0.000 A 
ATOM     28  C   UNL     1      -4.173  10.468  16.378  0.00  0.00    +0.000 A 
ATOM     29  C   UNL     1      -2.929   9.912  16.089  0.00  0.00    +0.000 A 
ATOM     30  C   UNL     1      -1.842  10.144  16.934  0.00  0.00    +0.000 A 
ENDBRANCH   7  25
TORSDOF 3
ENDMDL
MODEL 6
REMARK VINA RESULT:      -6.6      2.911      4.890
REMARK  Name = 
REMARK  4 active torsions:
REMARK  status: ('A' for Active; 'I' for Inactive)
REMARK    1  A    between atoms: C_1  and  C_2
REMARK    2  A    between atoms: C_6  and  C_7
REMARK    3  A    between atoms: N_13  and  C_14
REMARK    4  A    between atoms: N_22  and  C_23
REMARK                            x       y       z     vdW  Elec       q    Type
REMARK                         _______ _______ _______ _____ _____    ______ ____
ROOT
ATOM      1  C   UNL     1       0.033  14.791  19.421  0.00  0.00    +0.000 A 
ATOM      2  N   UNL     1      -0.631  13.753  18.977  0.00  0.00    +0.000 NA
ATOM      3  C   UNL     1      -0.190  12.540  19.394  0.00  0.00    +0.000 A 
ATOM      4  C   UNL     1       0.881  12.314  20.215  0.00  0.00    +0.000 A 
ATOM      5  C   UNL     1       0.935  10.937  20.414  0.00  0.00    +0.000 A 
ATOM      6  N   UNL     1      -0.040  10.299  19.763  0.00  0.00    +0.000 NA
ATOM      7  N   UNL     1      -0.732  11.288  19.104  0.00  0.00    +0.000 N 
ATOM      8  C   UNL     1       1.656  13.414  20.705  0.00  0.00    +0.000 A 
ATOM      9  O   UNL     1       2.628  13.224  21.431  0.00  0.00    +0.000 OA
ATOM     10  N   UNL     1       1.148  14.675  20.306  0.00  0.00    +0.000 N 
ENDROOT
BRANCH   1  16
ATOM     11  C   UNL     1       0.701  18.631  16.219  0.00  0.00    +0.000 C 
ATOM     12  C   UNL     1      -0.103  17.976  17.306  0.00  0.00    +0.000 A 
ATOM     13  C   UNL     1      -1.212  18.631  17.848  0.00  0.00    +0.000 A 
ATOM     14  C   UNL     1      -1.887  18.081  18.932  0.00  0.00    +0.000 A 
ATOM     15  C   UNL     1      -1.457  16.873  19.484  0.00  0.00    +0.000 A 
ATOM     16  C   UNL     1      -0.423  16.139  18.895  0.00  0.00    +0.000 A 
ATOM     17  C   UNL     1       0.275  16.723  17.821  0.00  0.00    +0.000 A 
ENDBRANCH   1  16
BRANCH  10  18
ATOM     18  C   UNL     1       1.764  15.799  20.931  0.00  0.00    +0.000 A 
ATOM     19  C   UNL     1       2.892  16.409  20.368  0.00  0.00    +0.000 A 
ATOM     20  C   UNL     1       3.514  17.472  21.024  0.00  0.00    +0.000 A 
ATOM     21  C   UNL     1       3.020  17.923  22.249  0.00  0.00    +0.000 A 
ATOM     22  C   UNL     1       1.894  17.321  22.809  0.00  0.00    +0.000 A 
ATOM     23 CL   UNL     1       1.320  17.838  24.345  0.00  0.00    +0.000 Cl
ATOM     24  C   UNL     1       1.253  16.276  22.149  0.00  0.00    +0.000 A 
ENDBRANCH  10  18
BRANCH   7  25
ATOM     25  C   UNL     1      -1.844  10.949  18.277  0.00  0.00    +0.000 A 
ATOM     26  C   UNL     1      -3.089  11.553  18.509  0.00  0.00    +0.000 A 
ATOM     27  C   UNL     1      -4.178  11.266  17.684  0.00  0.00    +0.000 A 
ATOM     28  C   UNL     1      -4.039  10.365  16.630  0.00  0.00    +0.000 A 
ATOM     29  C   UNL     1      -2.814   9.739  16.410  0.00  0.00    +0.000 A 
ATOM     30  C   UNL     1      -1.721  10.026  17.229  0.00  0.00    +0.000 A 
ENDBRANCH   7  25
TORSDOF 3
ENDMDL
MODEL 7
REMARK VINA RESULT:      -6.6      2.341      6.347
REMARK  Name = 
REMARK  4 active torsions:
REMARK  status: ('A' for Active; 'I' for Inactive)
REMARK    1  A    between atoms: C_1  and  C_2
REMARK    2  A    between atoms: C_6  and  C_7
REMARK    3  A    between atoms: N_13  and  C_14
REMARK    4  A    between atoms: N_22  and  C_23
REMARK                            x       y       z     vdW  Elec       q    Type
REMARK                         _______ _______ _______ _____ _____    ______ ____
ROOT
ATOM      1  C   UNL     1       1.444  13.060  19.364  0.00  0.00    +0.000 A 
ATOM      2  N   UNL     1       2.660  13.534  19.260  0.00  0.00    +0.000 NA
ATOM      3  C   UNL     1       2.763  14.844  18.923  0.00  0.00    +0.000 A 
ATOM      4  C   UNL     1       1.719  15.693  18.675  0.00  0.00    +0.000 A 
ATOM      5  C   UNL     1       2.284  16.940  18.419  0.00  0.00    +0.000 A 
ATOM      6  N   UNL     1       3.617  16.909  18.493  0.00  0.00    +0.000 NA
ATOM      7  N   UNL     1       3.926  15.601  18.783  0.00  0.00    +0.000 N 
ATOM      8  C   UNL     1       0.371  15.216  18.750  0.00  0.00    +0.000 A 
ATOM      9  O   UNL     1      -0.574  15.965  18.517  0.00  0.00    +0.000 OA
ATOM     10  N   UNL     1       0.281  13.862  19.157  0.00  0.00    +0.000 N 
ENDROOT
BRANCH   1  16
ATOM     11  C   UNL     1       1.793   8.282  17.784  0.00  0.00    +0.000 C 
ATOM     12  C   UNL     1       1.549   9.265  18.894  0.00  0.00    +0.000 A 
ATOM     13  C   UNL     1       1.182   8.810  20.164  0.00  0.00    +0.000 A 
ATOM     14  C   UNL     1       0.843   9.718  21.160  0.00  0.00    +0.000 A 
ATOM     15  C   UNL     1       0.868  11.088  20.895  0.00  0.00    +0.000 A 
ATOM     16  C   UNL     1       1.338  11.578  19.672  0.00  0.00    +0.000 A 
ATOM     17  C   UNL     1       1.644  10.648  18.660  0.00  0.00    +0.000 A 
ENDBRANCH   1  16
BRANCH  10  18
ATOM     18  C   UNL     1      -1.040  13.404  19.440  0.00  0.00    +0.000 A 
ATOM     19  C   UNL     1      -1.713  13.817  20.597  0.00  0.00    +0.000 A 
ATOM     20  C   UNL     1      -2.983  13.313  20.885  0.00  0.00    +0.000 A 
ATOM     21  C   UNL     1      -3.579  12.388  20.027  0.00  0.00    +0.000 A 
ATOM     22  C   UNL     1      -2.913  11.980  18.874  0.00  0.00    +0.000 A 
ATOM     23 CL   UNL     1      -3.622  10.796  17.846  0.00  0.00    +0.000 Cl
ATOM     24  C   UNL     1      -1.657  12.495  18.566  0.00  0.00    +0.000 A 
ENDBRANCH  10  18
BRANCH   7  25
ATOM     25  C   UNL     1       5.290  15.203  18.910  0.00  0.00    +0.000 A 
ATOM     26  C   UNL     1       5.973  14.707  17.789  0.00  0.00    +0.000 A 
ATOM     27  C   UNL     1       7.321  14.353  17.885  0.00  0.00    +0.000 A 
ATOM     28  C   UNL     1       7.993  14.478  19.098  0.00  0.00    +0.000 A 
ATOM     29  C   UNL     1       7.315  14.943  20.222  0.00  0.00    +0.000 A 
ATOM     30  C   UNL     1       5.969  15.303  20.132  0.00  0.00    +0.000 A 
ENDBRANCH   7  25
TORSDOF 3
ENDMDL
MODEL 8
REMARK VINA RESULT:      -6.5      2.812      6.834
REMARK  Name = 
REMARK  4 active torsions:
REMARK  status: ('A' for Active; 'I' for Inactive)
REMARK    1  A    between atoms: C_1  and  C_2
REMARK    2  A    between atoms: C_6  and  C_7
REMARK    3  A    between atoms: N_13  and  C_14
REMARK    4  A    between atoms: N_22  and  C_23
REMARK                            x       y       z     vdW  Elec       q    Type
REMARK                         _______ _______ _______ _____ _____    ______ ____
ROOT
ATOM      1  C   UNL     1       0.623  12.899  21.026  0.00  0.00    +0.000 A 
ATOM      2  N   UNL     1       1.654  13.507  21.558  0.00  0.00    +0.000 NA
ATOM      3  C   UNL     1       1.985  14.705  21.016  0.00  0.00    +0.000 A 
ATOM      4  C   UNL     1       1.350  15.315  19.969  0.00  0.00    +0.000 A 
ATOM      5  C   UNL     1       1.991  16.538  19.783  0.00  0.00    +0.000 A 
ATOM      6  N   UNL     1       2.986  16.718  20.655  0.00  0.00    +0.000 NA
ATOM      7  N   UNL     1       3.006  15.570  21.412  0.00  0.00    +0.000 N 
ATOM      8  C   UNL     1       0.234  14.679  19.335  0.00  0.00    +0.000 A 
ATOM      9  O   UNL     1      -0.336  15.209  18.385  0.00  0.00    +0.000 OA
ATOM     10  N   UNL     1      -0.132  13.456  19.950  0.00  0.00    +0.000 N 
ENDROOT
BRANCH   1  16
ATOM     11  C   UNL     1       1.268   7.899  20.865  0.00  0.00    +0.000 C 
ATOM     12  C   UNL     1       0.659   9.106  21.520  0.00  0.00    +0.000 A 
ATOM     13  C   UNL     1      -0.224   8.950  22.592  0.00  0.00    +0.000 A 
ATOM     14  C   UNL     1      -0.879  10.054  23.124  0.00  0.00    +0.000 A 
ATOM     15  C   UNL     1      -0.658  11.324  22.588  0.00  0.00    +0.000 A 
ATOM     16  C   UNL     1       0.303  11.528  21.592  0.00  0.00    +0.000 A 
ATOM     17  C   UNL     1       0.932  10.398  21.037  0.00  0.00    +0.000 A 
ENDBRANCH   1  16
BRANCH  10  18
ATOM     18  C   UNL     1      -1.355  12.889  19.484  0.00  0.00    +0.000 A 
ATOM     19  C   UNL     1      -2.559  13.117  20.164  0.00  0.00    +0.000 A 
ATOM     20  C   UNL     1      -3.736  12.507  19.725  0.00  0.00    +0.000 A 
ATOM     21  C   UNL     1      -3.714  11.661  18.615  0.00  0.00    +0.000 A 
ATOM     22  C   UNL     1      -2.518  11.437  17.936  0.00  0.00    +0.000 A 
ATOM     23 CL   UNL     1      -2.478  10.349  16.604  0.00  0.00    +0.000 Cl
ATOM     24  C   UNL     1      -1.344  12.060  18.351  0.00  0.00    +0.000 A 
ENDBRANCH  10  18
BRANCH   7  25
ATOM     25  C   UNL     1       3.981  15.413  22.441  0.00  0.00    +0.000 A 
ATOM     26  C   UNL     1       3.978  16.290  23.536  0.00  0.00    +0.000 A 
ATOM     27  C   UNL     1       4.898  16.126  24.574  0.00  0.00    +0.000 A 
ATOM     28  C   UNL     1       5.834  15.096  24.523  0.00  0.00    +0.000 A 
ATOM     29  C   UNL     1       5.862  14.237  23.427  0.00  0.00    +0.000 A 
ATOM     30  C   UNL     1       4.942  14.394  22.388  0.00  0.00    +0.000 A 
ENDBRANCH   7  25
TORSDOF 3
ENDMDL
MODEL 9
REMARK VINA RESULT:      -6.5      3.118      6.048
REMARK  Name = 
REMARK  4 active torsions:
REMARK  status: ('A' for Active; 'I' for Inactive)
REMARK    1  A    between atoms: C_1  and  C_2
REMARK    2  A    between atoms: C_6  and  C_7
REMARK    3  A    between atoms: N_13  and  C_14
REMARK    4  A    between atoms: N_22  and  C_23
REMARK                            x       y       z     vdW  Elec       q    Type
REMARK                         _______ _______ _______ _____ _____    ______ ____
ROOT
ATOM      1  C   UNL     1      -0.987  12.541  20.054  0.00  0.00    +0.000 A 
ATOM      2  N   UNL     1      -2.285  12.365  20.076  0.00  0.00    +0.000 NA
ATOM      3  C   UNL     1      -3.027  13.441  20.436  0.00  0.00    +0.000 A 
ATOM      4  C   UNL     1      -2.539  14.671  20.786  0.00  0.00    +0.000 A 
ATOM      5  C   UNL     1      -3.650  15.476  21.030  0.00  0.00    +0.000 A 
ATOM      6  N   UNL     1      -4.795  14.813  20.851  0.00  0.00    +0.000 NA
ATOM      7  N   UNL     1      -4.416  13.537  20.505  0.00  0.00    +0.000 N 
ATOM      8  C   UNL     1      -1.126  14.906  20.804  0.00  0.00    +0.000 A 
ATOM      9  O   UNL     1      -0.675  16.001  21.129  0.00  0.00    +0.000 OA
ATOM     10  N   UNL     1      -0.370  13.789  20.371  0.00  0.00    +0.000 N 
ENDROOT
BRANCH   1  16
ATOM     11  C   UNL     1       1.229   8.273  21.577  0.00  0.00    +0.000 C 
ATOM     12  C   UNL     1       0.876   9.225  20.470  0.00  0.00    +0.000 A 
ATOM     13  C   UNL     1       1.349   9.000  19.175  0.00  0.00    +0.000 A 
ATOM     14  C   UNL     1       1.123   9.939  18.175  0.00  0.00    +0.000 A 
ATOM     15  C   UNL     1       0.422  11.111  18.463  0.00  0.00    +0.000 A 
ATOM     16  C   UNL     1      -0.161  11.313  19.718  0.00  0.00    +0.000 A 
ATOM     17  C   UNL     1       0.106  10.373  20.731  0.00  0.00    +0.000 A 
ENDBRANCH   1  16
BRANCH  10  18
ATOM     18  C   UNL     1       1.021  14.039  20.180  0.00  0.00    +0.000 A 
ATOM     19  C   UNL     1       1.944  13.795  21.206  0.00  0.00    +0.000 A 
ATOM     20  C   UNL     1       3.293  14.100  21.019  0.00  0.00    +0.000 A 
ATOM     21  C   UNL     1       3.724  14.657  19.814  0.00  0.00    +0.000 A 
ATOM     22  C   UNL     1       2.808  14.896  18.791  0.00  0.00    +0.000 A 
ATOM     23 CL   UNL     1       3.328  15.636  17.329  0.00  0.00    +0.000 Cl
ATOM     24  C   UNL     1       1.464  14.573  18.960  0.00  0.00    +0.000 A 
ENDBRANCH  10  18
BRANCH   7  25
ATOM     25  C   UNL     1      -5.409  12.542  20.262  0.00  0.00    +0.000 A 
ATOM     26  C   UNL     1      -5.400  11.838  19.049  0.00  0.00    +0.000 A 
ATOM     27  C   UNL     1      -6.338  10.830  18.811  0.00  0.00    +0.000 A 
ATOM     28  C   UNL     1      -7.298  10.526  19.774  0.00  0.00    +0.000 A 
ATOM     29  C   UNL     1      -7.331  11.239  20.970  0.00  0.00    +0.000 A 
ATOM     30  C   UNL     1      -6.393  12.244  21.215  0.00  0.00    +0.000 A 
ENDBRANCH   7  25
TORSDOF 3
ENDMDL
