MODEL 1
REMARK VINA RESULT:      -8.2      0.000      0.000
REMARK  Name = 
REMARK  3 active torsions:
REMARK  status: ('A' for Active; 'I' for Inactive)
REMARK    1  A    between atoms: C_1  and  O_2
REMARK    2  A    between atoms: O_2  and  C_3
REMARK    3  A    between atoms: N_23  and  C_24
REMARK                            x       y       z     vdW  Elec       q    Type
REMARK                         _______ _______ _______ _____ _____    ______ ____
ROOT
ATOM      1  C   UNL     1       2.665   4.641  19.656  0.00  0.00    +0.000 A 
ATOM      2  C   UNL     1       2.999   4.836  18.311  0.00  0.00    +0.000 A 
ATOM      3  C   UNL     1       3.001   6.142  17.718  0.00  0.00    +0.000 A 
ATOM      4  C   UNL     1       2.610   7.236  18.511  0.00  0.00    +0.000 A 
ATOM      5  N   UNL     1       2.363   8.607  18.251  0.00  0.00    +0.000 N 
ATOM      6  C   UNL     1       1.744   9.236  19.353  0.00  0.00    +0.000 A 
ATOM      7  C   UNL     1       1.554   8.181  20.243  0.00  0.00    +0.000 A 
ATOM      8  C   UNL     1       2.226   7.016  19.816  0.00  0.00    +0.000 A 
ATOM      9  C   UNL     1       2.303   5.740  20.434  0.00  0.00    +0.000 A 
ATOM     10  C   UNL     1       0.523   8.177  21.271  0.00  0.00    +0.000 C 
ATOM     11  C   UNL     1      -0.462   9.310  21.012  0.00  0.00    +0.000 C 
ATOM     12  N   UNL     1      -0.425  10.065  19.704  0.00  0.00    +0.000 N 
ATOM     13  C   UNL     1      -1.405  11.098  19.480  0.00  0.00    +0.000 C 
ATOM     14  O   UNL     1      -2.499  10.876  18.970  0.00  0.00    +0.000 OA
ATOM     15  C   UNL     1      -1.015  12.504  19.983  0.00  0.00    +0.000 A 
ATOM     16  C   UNL     1      -1.979  13.468  20.310  0.00  0.00    +0.000 A 
ATOM     17  C   UNL     1      -2.451  13.563  21.620  0.00  0.00    +0.000 A 
ATOM     18  C   UNL     1      -1.958  12.664  22.544  0.00  0.00    +0.000 A 
ATOM     19  C   UNL     1      -0.742  12.025  22.255  0.00  0.00    +0.000 A 
ATOM     20  C   UNL     1      -0.130  12.169  20.984  0.00  0.00    +0.000 A 
ATOM     21  N   UNL     1       1.178  11.669  20.497  0.00  0.00    +0.000 N 
ATOM     22  C   UNL     1       0.920  10.556  19.412  0.00  0.00    +0.000 C 
ATOM     23  H   UNL     1       2.445   9.007  17.324  0.00  0.00    +0.000 HD
ENDROOT
BRANCH  21  24
ATOM     24  C   UNL     1       1.967  12.801  19.999  0.00  0.00    +0.000 A 
ATOM     25  C   UNL     1       2.266  12.830  18.603  0.00  0.00    +0.000 A 
ATOM     26  C   UNL     1       3.242  13.668  18.052  0.00  0.00    +0.000 A 
ATOM     27  C   UNL     1       3.906  14.566  18.870  0.00  0.00    +0.000 A 
ATOM     28  C   UNL     1       3.552  14.631  20.214  0.00  0.00    +0.000 A 
ATOM     29  F   UNL     1       4.191  15.511  21.000  0.00  0.00    +0.000 F 
ATOM     30  C   UNL     1       2.592  13.775  20.783  0.00  0.00    +0.000 A 
ENDBRANCH  21  24
BRANCH   1  32
ATOM     31  C   UNL     1       1.439   3.309  21.196  0.00  0.00    +0.000 C 
ATOM     32  O   UNL     1       2.513   3.448  20.300  0.00  0.00    +0.000 OA
ENDBRANCH   1  32
TORSDOF 2
ENDMDL
MODEL 2
REMARK VINA RESULT:      -8.1      0.834      1.196
REMARK  Name = 
REMARK  3 active torsions:
REMARK  status: ('A' for Active; 'I' for Inactive)
REMARK    1  A    between atoms: C_1  and  O_2
REMARK    2  A    between atoms: O_2  and  C_3
REMARK    3  A    between atoms: N_23  and  C_24
REMARK                            x       y       z     vdW  Elec       q    Type
REMARK                         _______ _______ _______ _____ _____    ______ ____
ROOT
ATOM      1  C   UNL     1       2.524   4.782  19.579  0.00  0.00    +0.000 A 
ATOM      2  C   UNL     1       2.896   5.010  18.250  0.00  0.00    +0.000 A 
ATOM      3  C   UNL     1       2.940   6.333  17.697  0.00  0.00    +0.000 A 
ATOM      4  C   UNL     1       2.552   7.411  18.515  0.00  0.00    +0.000 A 
ATOM      5  N   UNL     1       2.341   8.794  18.290  0.00  0.00    +0.000 N 
ATOM      6  C   UNL     1       1.709   9.403  19.396  0.00  0.00    +0.000 A 
ATOM      7  C   UNL     1       1.474   8.326  20.249  0.00  0.00    +0.000 A 
ATOM      8  C   UNL     1       2.132   7.160  19.802  0.00  0.00    +0.000 A 
ATOM      9  C   UNL     1       2.166   5.865  20.383  0.00  0.00    +0.000 A 
ATOM     10  C   UNL     1       0.418   8.314  21.250  0.00  0.00    +0.000 C 
ATOM     11  C   UNL     1      -0.536   9.475  21.003  0.00  0.00    +0.000 C 
ATOM     12  N   UNL     1      -0.451  10.269  19.720  0.00  0.00    +0.000 N 
ATOM     13  C   UNL     1      -1.403  11.329  19.504  0.00  0.00    +0.000 C 
ATOM     14  O   UNL     1      -2.489  11.147  18.962  0.00  0.00    +0.000 OA
ATOM     15  C   UNL     1      -0.996  12.710  20.060  0.00  0.00    +0.000 A 
ATOM     16  C   UNL     1      -1.947  13.685  20.393  0.00  0.00    +0.000 A 
ATOM     17  C   UNL     1      -2.450  13.750  21.693  0.00  0.00    +0.000 A 
ATOM     18  C   UNL     1      -1.998  12.813  22.600  0.00  0.00    +0.000 A 
ATOM     19  C   UNL     1      -0.789  12.156  22.321  0.00  0.00    +0.000 A 
ATOM     20  C   UNL     1      -0.143  12.325  21.071  0.00  0.00    +0.000 A 
ATOM     21  N   UNL     1       1.166  11.812  20.600  0.00  0.00    +0.000 N 
ATOM     22  C   UNL     1       0.911  10.739  19.475  0.00  0.00    +0.000 C 
ATOM     23  H   UNL     1       2.454   9.220  17.378  0.00  0.00    +0.000 HD
ENDROOT
BRANCH  21  24
ATOM     24  C   UNL     1       1.990  12.941  20.156  0.00  0.00    +0.000 A 
ATOM     25  C   UNL     1       2.309  13.943  21.121  0.00  0.00    +0.000 A 
ATOM     26  C   UNL     1       2.819  15.199  20.775  0.00  0.00    +0.000 A 
ATOM     27  C   UNL     1       3.101  15.473  19.448  0.00  0.00    +0.000 A 
ATOM     28  C   UNL     1       2.902  14.472  18.502  0.00  0.00    +0.000 A 
ATOM     29  F   UNL     1       3.188  14.739  17.219  0.00  0.00    +0.000 F 
ATOM     30  C   UNL     1       2.364  13.216  18.837  0.00  0.00    +0.000 A 
ENDBRANCH  21  24
BRANCH   1  32
ATOM     31  C   UNL     1       2.106   3.553  21.571  0.00  0.00    +0.000 C 
ATOM     32  O   UNL     1       2.331   3.573  20.183  0.00  0.00    +0.000 OA
ENDBRANCH   1  32
TORSDOF 2
ENDMDL
MODEL 3
REMARK VINA RESULT:      -7.9      2.738      4.655
REMARK  Name = 
REMARK  3 active torsions:
REMARK  status: ('A' for Active; 'I' for Inactive)
REMARK    1  A    between atoms: C_1  and  O_2
REMARK    2  A    between atoms: O_2  and  C_3
REMARK    3  A    between atoms: N_23  and  C_24
REMARK                            x       y       z     vdW  Elec       q    Type
REMARK                         _______ _______ _______ _____ _____    ______ ____
ROOT
ATOM      1  C   UNL     1       3.134   6.687  18.114  0.00  0.00    +0.000 A 
ATOM      2  C   UNL     1       3.009   6.124  19.389  0.00  0.00    +0.000 A 
ATOM      3  C   UNL     1       2.209   6.738  20.408  0.00  0.00    +0.000 A 
ATOM      4  C   UNL     1       1.578   7.962  20.114  0.00  0.00    +0.000 A 
ATOM      5  N   UNL     1       0.846   8.903  20.879  0.00  0.00    +0.000 N 
ATOM      6  C   UNL     1       0.641  10.100  20.159  0.00  0.00    +0.000 A 
ATOM      7  C   UNL     1       1.344   9.875  18.977  0.00  0.00    +0.000 A 
ATOM      8  C   UNL     1       1.762   8.531  18.874  0.00  0.00    +0.000 A 
ATOM      9  C   UNL     1       2.482   7.888  17.832  0.00  0.00    +0.000 A 
ATOM     10  C   UNL     1       1.878  10.944  18.148  0.00  0.00    +0.000 C 
ATOM     11  C   UNL     1       1.825  12.261  18.912  0.00  0.00    +0.000 C 
ATOM     12  N   UNL     1       1.512  12.270  20.390  0.00  0.00    +0.000 N 
ATOM     13  C   UNL     1       1.518  13.532  21.086  0.00  0.00    +0.000 C 
ATOM     14  O   UNL     1       2.527  13.998  21.607  0.00  0.00    +0.000 OA
ATOM     15  C   UNL     1       0.179  14.299  21.080  0.00  0.00    +0.000 A 
ATOM     16  C   UNL     1       0.123  15.691  21.240  0.00  0.00    +0.000 A 
ATOM     17  C   UNL     1       0.148  16.521  20.118  0.00  0.00    +0.000 A 
ATOM     18  C   UNL     1       0.261  15.919  18.881  0.00  0.00    +0.000 A 
ATOM     19  C   UNL     1      -0.090  14.564  18.774  0.00  0.00    +0.000 A 
ATOM     20  C   UNL     1      -0.386  13.798  19.929  0.00  0.00    +0.000 A 
ATOM     21  N   UNL     1      -0.862  12.398  20.045  0.00  0.00    +0.000 N 
ATOM     22  C   UNL     1       0.287  11.526  20.678  0.00  0.00    +0.000 C 
ATOM     23  H   UNL     1       0.679   8.786  21.871  0.00  0.00    +0.000 HD
ENDROOT
BRANCH  21  24
ATOM     24  C   UNL     1      -2.106  12.379  20.820  0.00  0.00    +0.000 A 
ATOM     25  C   UNL     1      -3.297  12.811  20.163  0.00  0.00    +0.000 A 
ATOM     26  C   UNL     1      -4.474  13.128  20.851  0.00  0.00    +0.000 A 
ATOM     27  C   UNL     1      -4.526  12.950  22.223  0.00  0.00    +0.000 A 
ATOM     28  C   UNL     1      -3.412  12.425  22.871  0.00  0.00    +0.000 A 
ATOM     29  F   UNL     1      -3.471  12.244  24.198  0.00  0.00    +0.000 F 
ATOM     30  C   UNL     1      -2.216  12.130  22.192  0.00  0.00    +0.000 A 
ENDBRANCH  21  24
BRANCH   1  32
ATOM     31  C   UNL     1       4.389   4.930  17.119  0.00  0.00    +0.000 C 
ATOM     32  O   UNL     1       3.951   6.266  17.105  0.00  0.00    +0.000 OA
ENDBRANCH   1  32
TORSDOF 2
ENDMDL
MODEL 4
REMARK VINA RESULT:      -7.5      3.157      5.500
REMARK  Name = 
REMARK  3 active torsions:
REMARK  status: ('A' for Active; 'I' for Inactive)
REMARK    1  A    between atoms: C_1  and  O_2
REMARK    2  A    between atoms: O_2  and  C_3
REMARK    3  A    between atoms: N_23  and  C_24
REMARK                            x       y       z     vdW  Elec       q    Type
REMARK                         _______ _______ _______ _____ _____    ______ ____
ROOT
ATOM      1  C   UNL     1       2.226   8.073  18.487  0.00  0.00    +0.000 A 
ATOM      2  C   UNL     1       2.227   7.389  19.708  0.00  0.00    +0.000 A 
ATOM      3  C   UNL     1       1.455   7.845  20.827  0.00  0.00    +0.000 A 
ATOM      4  C   UNL     1       0.721   9.038  20.690  0.00  0.00    +0.000 A 
ATOM      5  N   UNL     1      -0.024   9.847  21.583  0.00  0.00    +0.000 N 
ATOM      6  C   UNL     1      -0.362  11.085  20.994  0.00  0.00    +0.000 A 
ATOM      7  C   UNL     1       0.275  11.022  19.756  0.00  0.00    +0.000 A 
ATOM      8  C   UNL     1       0.780   9.729  19.500  0.00  0.00    +0.000 A 
ATOM      9  C   UNL     1       1.473   9.241  18.361  0.00  0.00    +0.000 A 
ATOM     10  C   UNL     1       0.676  12.201  19.002  0.00  0.00    +0.000 C 
ATOM     11  C   UNL     1       0.581  13.434  19.890  0.00  0.00    +0.000 C 
ATOM     12  N   UNL     1       0.367  13.285  21.378  0.00  0.00    +0.000 N 
ATOM     13  C   UNL     1       0.329  14.475  22.190  0.00  0.00    +0.000 C 
ATOM     14  O   UNL     1       1.335  14.968  22.692  0.00  0.00    +0.000 OA
ATOM     15  C   UNL     1      -1.058  15.135  22.338  0.00  0.00    +0.000 A 
ATOM     16  C   UNL     1      -1.203  16.498  22.632  0.00  0.00    +0.000 A 
ATOM     17  C   UNL     1      -1.311  17.426  21.596  0.00  0.00    +0.000 A 
ATOM     18  C   UNL     1      -1.239  16.949  20.302  0.00  0.00    +0.000 A 
ATOM     19  C   UNL     1      -1.498  15.587  20.087  0.00  0.00    +0.000 A 
ATOM     20  C   UNL     1      -1.661  14.698  21.179  0.00  0.00    +0.000 A 
ATOM     21  N   UNL     1      -2.028  13.261  21.189  0.00  0.00    +0.000 N 
ATOM     22  C   UNL     1      -0.780  12.426  21.667  0.00  0.00    +0.000 C 
ATOM     23  H   UNL     1      -0.117   9.627  22.567  0.00  0.00    +0.000 HD
ENDROOT
BRANCH  21  24
ATOM     24  C   UNL     1      -3.214  13.076  22.032  0.00  0.00    +0.000 A 
ATOM     25  C   UNL     1      -4.449  13.611  21.557  0.00  0.00    +0.000 A 
ATOM     26  C   UNL     1      -5.573  13.772  22.375  0.00  0.00    +0.000 A 
ATOM     27  C   UNL     1      -5.526  13.332  23.686  0.00  0.00    +0.000 A 
ATOM     28  C   UNL     1      -4.369  12.708  24.140  0.00  0.00    +0.000 A 
ATOM     29  F   UNL     1      -4.332  12.273  25.408  0.00  0.00    +0.000 F 
ATOM     30  C   UNL     1      -3.225  12.566  23.334  0.00  0.00    +0.000 A 
ENDBRANCH  21  24
BRANCH   1  32
ATOM     31  C   UNL     1       4.048   6.880  17.534  0.00  0.00    +0.000 C 
ATOM     32  O   UNL     1       3.002   7.809  17.396  0.00  0.00    +0.000 OA
ENDBRANCH   1  32
TORSDOF 2
ENDMDL
MODEL 5
REMARK VINA RESULT:      -7.4      2.889      4.912
REMARK  Name = 
REMARK  3 active torsions:
REMARK  status: ('A' for Active; 'I' for Inactive)
REMARK    1  A    between atoms: C_1  and  O_2
REMARK    2  A    between atoms: O_2  and  C_3
REMARK    3  A    between atoms: N_23  and  C_24
REMARK                            x       y       z     vdW  Elec       q    Type
REMARK                         _______ _______ _______ _____ _____    ______ ____
ROOT
ATOM      1  C   UNL     1       2.716   6.898  18.448  0.00  0.00    +0.000 A 
ATOM      2  C   UNL     1       2.570   6.389  19.743  0.00  0.00    +0.000 A 
ATOM      3  C   UNL     1       1.833   7.095  20.750  0.00  0.00    +0.000 A 
ATOM      4  C   UNL     1       1.290   8.352  20.423  0.00  0.00    +0.000 A 
ATOM      5  N   UNL     1       0.641   9.370  21.163  0.00  0.00    +0.000 N 
ATOM      6  C   UNL     1       0.512  10.554  20.405  0.00  0.00    +0.000 A 
ATOM      7  C   UNL     1       1.179  10.237  19.223  0.00  0.00    +0.000 A 
ATOM      8  C   UNL     1       1.495   8.863  19.161  0.00  0.00    +0.000 A 
ATOM      9  C   UNL     1       2.150   8.134  18.133  0.00  0.00    +0.000 A 
ATOM     10  C   UNL     1       1.777  11.235  18.349  0.00  0.00    +0.000 C 
ATOM     11  C   UNL     1       1.833  12.577  19.068  0.00  0.00    +0.000 C 
ATOM     12  N   UNL     1       1.544  12.659  20.548  0.00  0.00    +0.000 N 
ATOM     13  C   UNL     1       1.653  13.940  21.200  0.00  0.00    +0.000 C 
ATOM     14  O   UNL     1       2.702  14.348  21.691  0.00  0.00    +0.000 OA
ATOM     15  C   UNL     1       0.375  14.804  21.185  0.00  0.00    +0.000 A 
ATOM     16  C   UNL     1       0.423  16.201  21.296  0.00  0.00    +0.000 A 
ATOM     17  C   UNL     1       0.492  16.988  20.146  0.00  0.00    +0.000 A 
ATOM     18  C   UNL     1       0.541  16.338  18.930  0.00  0.00    +0.000 A 
ATOM     19  C   UNL     1       0.090  15.010  18.874  0.00  0.00    +0.000 A 
ATOM     20  C   UNL     1      -0.243  14.307  20.059  0.00  0.00    +0.000 A 
ATOM     21  N   UNL     1      -0.819  12.951  20.230  0.00  0.00    +0.000 N 
ATOM     22  C   UNL     1       0.273  12.019  20.879  0.00  0.00    +0.000 C 
ATOM     23  H   UNL     1       0.480   9.299  22.161  0.00  0.00    +0.000 HD
ENDROOT
BRANCH  21  24
ATOM     24  C   UNL     1      -2.049  13.051  21.022  0.00  0.00    +0.000 A 
ATOM     25  C   UNL     1      -1.997  12.605  22.377  0.00  0.00    +0.000 A 
ATOM     26  C   UNL     1      -3.143  12.363  23.143  0.00  0.00    +0.000 A 
ATOM     27  C   UNL     1      -4.389  12.631  22.603  0.00  0.00    +0.000 A 
ATOM     28  C   UNL     1      -4.459  13.170  21.321  0.00  0.00    +0.000 A 
ATOM     29  F   UNL     1      -5.669  13.438  20.807  0.00  0.00    +0.000 F 
ATOM     30  C   UNL     1      -3.315  13.391  20.534  0.00  0.00    +0.000 A 
ENDBRANCH  21  24
BRANCH   1  32
ATOM     31  C   UNL     1       3.824   5.021  17.499  0.00  0.00    +0.000 C 
ATOM     32  O   UNL     1       3.485   6.384  17.444  0.00  0.00    +0.000 OA
ENDBRANCH   1  32
TORSDOF 2
ENDMDL
MODEL 6
REMARK VINA RESULT:      -7.4      1.108      1.222
REMARK  Name = 
REMARK  3 active torsions:
REMARK  status: ('A' for Active; 'I' for Inactive)
REMARK    1  A    between atoms: C_1  and  O_2
REMARK    2  A    between atoms: O_2  and  C_3
REMARK    3  A    between atoms: N_23  and  C_24
REMARK                            x       y       z     vdW  Elec       q    Type
REMARK                         _______ _______ _______ _____ _____    ______ ____
ROOT
ATOM      1  C   UNL     1       2.289   5.759  19.583  0.00  0.00    +0.000 A 
ATOM      2  C   UNL     1       2.473   5.967  18.211  0.00  0.00    +0.000 A 
ATOM      3  C   UNL     1       2.392   7.277  17.632  0.00  0.00    +0.000 A 
ATOM      4  C   UNL     1       2.072   8.360  18.472  0.00  0.00    +0.000 A 
ATOM      5  N   UNL     1       1.779   9.728  18.250  0.00  0.00    +0.000 N 
ATOM      6  C   UNL     1       1.275  10.341  19.417  0.00  0.00    +0.000 A 
ATOM      7  C   UNL     1       1.197   9.278  20.315  0.00  0.00    +0.000 A 
ATOM      8  C   UNL     1       1.836   8.126  19.808  0.00  0.00    +0.000 A 
ATOM      9  C   UNL     1       1.997   6.848  20.405  0.00  0.00    +0.000 A 
ATOM     10  C   UNL     1       0.284   9.253  21.448  0.00  0.00    +0.000 C 
ATOM     11  C   UNL     1      -0.739  10.372  21.306  0.00  0.00    +0.000 C 
ATOM     12  N   UNL     1      -0.855  11.136  20.008  0.00  0.00    +0.000 N 
ATOM     13  C   UNL     1      -1.868  12.155  19.899  0.00  0.00    +0.000 C 
ATOM     14  O   UNL     1      -3.008  11.920  19.509  0.00  0.00    +0.000 OA
ATOM     15  C   UNL     1      -1.446  13.564  20.368  0.00  0.00    +0.000 A 
ATOM     16  C   UNL     1      -2.383  14.511  20.805  0.00  0.00    +0.000 A 
ATOM     17  C   UNL     1      -2.712  14.591  22.159  0.00  0.00    +0.000 A 
ATOM     18  C   UNL     1      -2.108  13.694  23.017  0.00  0.00    +0.000 A 
ATOM     19  C   UNL     1      -0.921  13.074  22.593  0.00  0.00    +0.000 A 
ATOM     20  C   UNL     1      -0.453  13.236  21.264  0.00  0.00    +0.000 A 
ATOM     21  N   UNL     1       0.801  12.759  20.635  0.00  0.00    +0.000 N 
ATOM     22  C   UNL     1       0.443  11.649  19.575  0.00  0.00    +0.000 C 
ATOM     23  H   UNL     1       1.755  10.136  17.323  0.00  0.00    +0.000 HD
ENDROOT
BRANCH  21  24
ATOM     24  C   UNL     1       1.515  13.905  20.063  0.00  0.00    +0.000 A 
ATOM     25  C   UNL     1       1.949  13.800  18.707  0.00  0.00    +0.000 A 
ATOM     26  C   UNL     1       2.884  14.672  18.137  0.00  0.00    +0.000 A 
ATOM     27  C   UNL     1       3.366  15.732  18.885  0.00  0.00    +0.000 A 
ATOM     28  C   UNL     1       2.873  15.919  20.173  0.00  0.00    +0.000 A 
ATOM     29  F   UNL     1       3.334  16.955  20.890  0.00  0.00    +0.000 F 
ATOM     30  C   UNL     1       1.954  15.033  20.764  0.00  0.00    +0.000 A 
ENDBRANCH  21  24
BRANCH   1  32
ATOM     31  C   UNL     1       0.965   3.956  20.388  0.00  0.00    +0.000 C 
ATOM     32  O   UNL     1       2.225   4.560  20.231  0.00  0.00    +0.000 OA
ENDBRANCH   1  32
TORSDOF 2
ENDMDL
MODEL 7
REMARK VINA RESULT:      -7.2      3.703      8.373
REMARK  Name = 
REMARK  3 active torsions:
REMARK  status: ('A' for Active; 'I' for Inactive)
REMARK    1  A    between atoms: C_1  and  O_2
REMARK    2  A    between atoms: O_2  and  C_3
REMARK    3  A    between atoms: N_23  and  C_24
REMARK                            x       y       z     vdW  Elec       q    Type
REMARK                         _______ _______ _______ _____ _____    ______ ____
ROOT
ATOM      1  C   UNL     1      -2.696  16.552  24.372  0.00  0.00    +0.000 A 
ATOM      2  C   UNL     1      -2.966  17.469  23.350  0.00  0.00    +0.000 A 
ATOM      3  C   UNL     1      -3.020  17.069  21.975  0.00  0.00    +0.000 A 
ATOM      4  C   UNL     1      -2.745  15.725  21.659  0.00  0.00    +0.000 A 
ATOM      5  N   UNL     1      -2.573  15.011  20.447  0.00  0.00    +0.000 N 
ATOM      6  C   UNL     1      -2.060  13.717  20.683  0.00  0.00    +0.000 A 
ATOM      7  C   UNL     1      -1.852  13.714  22.060  0.00  0.00    +0.000 A 
ATOM      8  C   UNL     1      -2.422  14.851  22.672  0.00  0.00    +0.000 A 
ATOM      9  C   UNL     1      -2.450  15.218  24.043  0.00  0.00    +0.000 A 
ATOM     10  C   UNL     1      -0.882  12.852  22.721  0.00  0.00    +0.000 C 
ATOM     11  C   UNL     1       0.040  12.228  21.682  0.00  0.00    +0.000 C 
ATOM     12  N   UNL     1       0.028  12.729  20.256  0.00  0.00    +0.000 N 
ATOM     13  C   UNL     1       0.950  12.144  19.315  0.00  0.00    +0.000 C 
ATOM     14  O   UNL     1       2.083  12.580  19.137  0.00  0.00    +0.000 OA
ATOM     15  C   UNL     1       0.442  10.883  18.584  0.00  0.00    +0.000 A 
ATOM     16  C   UNL     1       1.322   9.928  18.055  0.00  0.00    +0.000 A 
ATOM     17  C   UNL     1       1.712   8.837  18.832  0.00  0.00    +0.000 A 
ATOM     18  C   UNL     1       1.227   8.765  20.122  0.00  0.00    +0.000 A 
ATOM     19  C   UNL     1       0.073   9.502  20.433  0.00  0.00    +0.000 A 
ATOM     20  C   UNL     1      -0.474  10.420  19.502  0.00  0.00    +0.000 A 
ATOM     21  N   UNL     1      -1.718  11.224  19.579  0.00  0.00    +0.000 N 
ATOM     22  C   UNL     1      -1.328  12.745  19.710  0.00  0.00    +0.000 C 
ATOM     23  H   UNL     1      -2.629  15.458  19.540  0.00  0.00    +0.000 HD
ENDROOT
BRANCH  21  24
ATOM     24  C   UNL     1      -2.549  10.932  18.406  0.00  0.00    +0.000 A 
ATOM     25  C   UNL     1      -2.062   9.962  17.480  0.00  0.00    +0.000 A 
ATOM     26  C   UNL     1      -2.589   9.807  16.192  0.00  0.00    +0.000 A 
ATOM     27  C   UNL     1      -3.678  10.570  15.809  0.00  0.00    +0.000 A 
ATOM     28  C   UNL     1      -4.239  11.445  16.735  0.00  0.00    +0.000 A 
ATOM     29  F   UNL     1      -5.301  12.174  16.363  0.00  0.00    +0.000 F 
ATOM     30  C   UNL     1      -3.700  11.628  18.021  0.00  0.00    +0.000 A 
ENDBRANCH  21  24
BRANCH   1  32
ATOM     31  C   UNL     1      -1.334  16.347  26.309  0.00  0.00    +0.000 C 
ATOM     32  O   UNL     1      -2.504  16.827  25.695  0.00  0.00    +0.000 OA
ENDBRANCH   1  32
TORSDOF 2
ENDMDL
MODEL 8
REMARK VINA RESULT:      -7.1      1.658      2.194
REMARK  Name = 
REMARK  3 active torsions:
REMARK  status: ('A' for Active; 'I' for Inactive)
REMARK    1  A    between atoms: C_1  and  O_2
REMARK    2  A    between atoms: O_2  and  C_3
REMARK    3  A    between atoms: N_23  and  C_24
REMARK                            x       y       z     vdW  Elec       q    Type
REMARK                         _______ _______ _______ _____ _____    ______ ____
ROOT
ATOM      1  C   UNL     1       2.183   6.233  19.558  0.00  0.00    +0.000 A 
ATOM      2  C   UNL     1       2.383   6.565  18.214  0.00  0.00    +0.000 A 
ATOM      3  C   UNL     1       2.279   7.917  17.749  0.00  0.00    +0.000 A 
ATOM      4  C   UNL     1       1.920   8.915  18.674  0.00  0.00    +0.000 A 
ATOM      5  N   UNL     1       1.597  10.291  18.566  0.00  0.00    +0.000 N 
ATOM      6  C   UNL     1       1.060  10.787  19.774  0.00  0.00    +0.000 A 
ATOM      7  C   UNL     1       0.994   9.649  20.574  0.00  0.00    +0.000 A 
ATOM      8  C   UNL     1       1.669   8.561  19.980  0.00  0.00    +0.000 A 
ATOM      9  C   UNL     1       1.852   7.239  20.467  0.00  0.00    +0.000 A 
ATOM     10  C   UNL     1       0.065   9.503  21.684  0.00  0.00    +0.000 C 
ATOM     11  C   UNL     1      -0.984  10.607  21.623  0.00  0.00    +0.000 C 
ATOM     12  N   UNL     1      -1.099  11.478  20.394  0.00  0.00    +0.000 N 
ATOM     13  C   UNL     1      -2.134  12.480  20.356  0.00  0.00    +0.000 C 
ATOM     14  O   UNL     1      -3.262  12.253  19.927  0.00  0.00    +0.000 OA
ATOM     15  C   UNL     1      -1.754  13.851  20.953  0.00  0.00    +0.000 A 
ATOM     16  C   UNL     1      -2.721  14.735  21.454  0.00  0.00    +0.000 A 
ATOM     17  C   UNL     1      -3.072  14.688  22.803  0.00  0.00    +0.000 A 
ATOM     18  C   UNL     1      -2.460  13.734  23.590  0.00  0.00    +0.000 A 
ATOM     19  C   UNL     1      -1.252  13.182  23.135  0.00  0.00    +0.000 A 
ATOM     20  C   UNL     1      -0.767  13.469  21.835  0.00  0.00    +0.000 A 
ATOM     21  N   UNL     1       0.508  13.078  21.188  0.00  0.00    +0.000 N 
ATOM     22  C   UNL     1       0.194  12.057  20.030  0.00  0.00    +0.000 C 
ATOM     23  H   UNL     1       1.577  10.777  17.678  0.00  0.00    +0.000 HD
ENDROOT
BRANCH  21  24
ATOM     24  C   UNL     1       1.202  14.286  20.730  0.00  0.00    +0.000 A 
ATOM     25  C   UNL     1       1.431  15.317  21.691  0.00  0.00    +0.000 A 
ATOM     26  C   UNL     1       1.801  16.619  21.336  0.00  0.00    +0.000 A 
ATOM     27  C   UNL     1       2.030  16.920  20.004  0.00  0.00    +0.000 A 
ATOM     28  C   UNL     1       1.920  15.902  19.062  0.00  0.00    +0.000 A 
ATOM     29  F   UNL     1       2.154  16.196  17.774  0.00  0.00    +0.000 F 
ATOM     30  C   UNL     1       1.522  14.598  19.405  0.00  0.00    +0.000 A 
ENDBRANCH  21  24
BRANCH   1  32
ATOM     31  C   UNL     1       3.139   4.064  19.732  0.00  0.00    +0.000 C 
ATOM     32  O   UNL     1       2.139   4.980  20.099  0.00  0.00    +0.000 OA
ENDBRANCH   1  32
TORSDOF 2
ENDMDL
MODEL 9
REMARK VINA RESULT:      -7.0      3.737      8.459
REMARK  Name = 
REMARK  3 active torsions:
REMARK  status: ('A' for Active; 'I' for Inactive)
REMARK    1  A    between atoms: C_1  and  O_2
REMARK    2  A    between atoms: O_2  and  C_3
REMARK    3  A    between atoms: N_23  and  C_24
REMARK                            x       y       z     vdW  Elec       q    Type
REMARK                         _______ _______ _______ _____ _____    ______ ____
ROOT
ATOM      1  C   UNL     1      -2.717  16.679  24.310  0.00  0.00    +0.000 A 
ATOM      2  C   UNL     1      -2.842  17.640  23.301  0.00  0.00    +0.000 A 
ATOM      3  C   UNL     1      -2.798  17.283  21.913  0.00  0.00    +0.000 A 
ATOM      4  C   UNL     1      -2.578  15.935  21.577  0.00  0.00    +0.000 A 
ATOM      5  N   UNL     1      -2.344  15.246  20.361  0.00  0.00    +0.000 N 
ATOM      6  C   UNL     1      -1.931  13.916  20.596  0.00  0.00    +0.000 A 
ATOM      7  C   UNL     1      -1.845  13.860  21.985  0.00  0.00    +0.000 A 
ATOM      8  C   UNL     1      -2.397  15.013  22.583  0.00  0.00    +0.000 A 
ATOM      9  C   UNL     1      -2.523  15.343  23.959  0.00  0.00    +0.000 A 
ATOM     10  C   UNL     1      -0.990  12.922  22.697  0.00  0.00    +0.000 C 
ATOM     11  C   UNL     1      -0.019  12.271  21.720  0.00  0.00    +0.000 C 
ATOM     12  N   UNL     1       0.123  12.812  20.316  0.00  0.00    +0.000 N 
ATOM     13  C   UNL     1       1.087  12.198  19.438  0.00  0.00    +0.000 C 
ATOM     14  O   UNL     1       2.256  12.567  19.372  0.00  0.00    +0.000 OA
ATOM     15  C   UNL     1       0.570  10.993  18.624  0.00  0.00    +0.000 A 
ATOM     16  C   UNL     1       1.435  10.000  18.140  0.00  0.00    +0.000 A 
ATOM     17  C   UNL     1       1.690   8.865  18.911  0.00  0.00    +0.000 A 
ATOM     18  C   UNL     1       1.090   8.787  20.151  0.00  0.00    +0.000 A 
ATOM     19  C   UNL     1      -0.040   9.585  20.387  0.00  0.00    +0.000 A 
ATOM     20  C   UNL     1      -0.449  10.562  19.444  0.00  0.00    +0.000 A 
ATOM     21  N   UNL     1      -1.644  11.439  19.442  0.00  0.00    +0.000 N 
ATOM     22  C   UNL     1      -1.176  12.928  19.657  0.00  0.00    +0.000 C 
ATOM     23  H   UNL     1      -2.294  15.721  19.468  0.00  0.00    +0.000 HD
ENDROOT
BRANCH  21  24
ATOM     24  C   UNL     1      -2.385  11.233  18.194  0.00  0.00    +0.000 A 
ATOM     25  C   UNL     1      -3.684  11.817  18.096  0.00  0.00    +0.000 A 
ATOM     26  C   UNL     1      -4.608  11.457  17.108  0.00  0.00    +0.000 A 
ATOM     27  C   UNL     1      -4.236  10.550  16.130  0.00  0.00    +0.000 A 
ATOM     28  C   UNL     1      -2.937  10.051  16.142  0.00  0.00    +0.000 A 
ATOM     29  F   UNL     1      -2.579   9.181  15.186  0.00  0.00    +0.000 F 
ATOM     30  C   UNL     1      -2.011  10.385  17.146  0.00  0.00    +0.000 A 
ENDBRANCH  21  24
BRANCH   1  32
ATOM     31  C   UNL     1      -1.375  16.724  26.272  0.00  0.00    +0.000 C 
ATOM     32  O   UNL     1      -2.625  16.904  25.653  0.00  0.00    +0.000 OA
ENDBRANCH   1  32
TORSDOF 2
ENDMDL
