MODEL 1
REMARK VINA RESULT:     -10.1      0.000      0.000
REMARK  Name = 
REMARK  8 active torsions:
REMARK  status: ('A' for Active; 'I' for Inactive)
REMARK    1  A    between atoms: C_1  and  C_2
REMARK    2  A    between atoms: C_3  and  C_4
REMARK    3  A    between atoms: C_17  and  C_18
REMARK    4  A    between atoms: C_23  and  C_24
REMARK    5  A    between atoms: C_24  and  O_25
REMARK    6  A    between atoms: O_25  and  C_26
REMARK    7  A    between atoms: C_28  and  C_29
REMARK    8  A    between atoms: C_29  and  O_31
REMARK                            x       y       z     vdW  Elec       q    Type
REMARK                         _______ _______ _______ _____ _____    ______ ____
ROOT
ATOM      1  C   UNL     1       1.692   6.275  20.999  0.00  0.00    +0.000 C 
ATOM      2  C   UNL     1       1.973   7.002  19.696  0.00  0.00    +0.000 A 
ATOM      3  C   UNL     1       1.683   8.402  19.586  0.00  0.00    +0.000 A 
ATOM      4  C   UNL     1       2.141   9.086  18.443  0.00  0.00    +0.000 A 
ATOM      5  C   UNL     1       2.758   8.423  17.396  0.00  0.00    +0.000 A 
ATOM      6  C   UNL     1       2.885   7.042  17.446  0.00  0.00    +0.000 A 
ATOM      7  C   UNL     1       2.548   6.291  18.589  0.00  0.00    +0.000 A 
ENDROOT
BRANCH   3   8
ATOM      8  C   UNL     1       0.881   9.178  20.573  0.00  0.00    +0.000 A 
ATOM      9  C   UNL     1       0.259   8.553  21.674  0.00  0.00    +0.000 A 
ATOM     10  C   UNL     1      -0.438   9.291  22.638  0.00  0.00    +0.000 A 
ATOM     11  C   UNL     1      -0.566  10.667  22.498  0.00  0.00    +0.000 A 
ATOM     12  C   UNL     1       0.047  11.314  21.425  0.00  0.00    +0.000 A 
ATOM     13  C   UNL     1       0.783  10.580  20.493  0.00  0.00    +0.000 A 
ATOM     14  O   UNL     1      -0.036  12.664  21.209  0.00  0.00    +0.000 OA
ATOM     15  C   UNL     1      -0.496  13.353  22.376  0.00  0.00    +0.000 C 
ATOM     16  C   UNL     1      -1.675  12.631  23.009  0.00  0.00    +0.000 C 
ATOM     17  O   UNL     1      -1.296  11.323  23.453  0.00  0.00    +0.000 OA
ENDBRANCH   3   8
BRANCH   7  18
ATOM     18  C   UNL     1       2.777   4.805  18.559  0.00  0.00    +0.000 A 
ATOM     19  C   UNL     1       1.711   3.949  18.206  0.00  0.00    +0.000 A 
ATOM     20  C   UNL     1       1.829   2.556  18.207  0.00  0.00    +0.000 A 
ATOM     21  C   UNL     1       3.056   1.968  18.467  0.00  0.00    +0.000 A 
ATOM     22  C   UNL     1       4.152   2.777  18.744  0.00  0.00    +0.000 A 
ATOM     23  C   UNL     1       4.029   4.184  18.831  0.00  0.00    +0.000 A 
BRANCH  23  24
ATOM     24  C   UNL     1       5.290   4.940  19.228  0.00  0.00    +0.000 C 
BRANCH  24  25
ATOM     25  O   UNL     1       6.429   4.281  18.685  0.00  0.00    +0.000 OA
BRANCH  25  26
ATOM     26  C   UNL     1       6.733   4.662  17.429  0.00  0.00    +0.000 A 
ATOM     27  C   UNL     1       6.471   4.058  16.185  0.00  0.00    +0.000 A 
ATOM     28  C   UNL     1       7.032   4.919  15.270  0.00  0.00    +0.000 A 
ATOM     29  O   UNL     1       7.598   5.969  15.930  0.00  0.00    +0.000 OA
ATOM     30  N   UNL     1       7.414   5.805  17.296  0.00  0.00    +0.000 NA
BRANCH  28  31
ATOM     31  C   UNL     1       7.086   4.862  13.833  0.00  0.00    +0.000 C 
ATOM     32  O   UNL     1       7.814   5.540  13.123  0.00  0.00    +0.000 OA
BRANCH  31  33
ATOM     33  O   UNL     1       6.225   3.945  13.318  0.00  0.00    +0.000 OA
ATOM     34  H   UNL     1       5.335   4.319  13.160  0.00  0.00    +0.000 HD
ENDBRANCH  31  33
ENDBRANCH  28  31
ENDBRANCH  25  26
ENDBRANCH  24  25
ENDBRANCH  23  24
ENDBRANCH   7  18
TORSDOF 7
ENDMDL
MODEL 2
REMARK VINA RESULT:      -9.9      1.688      1.987
REMARK  Name = 
REMARK  8 active torsions:
REMARK  status: ('A' for Active; 'I' for Inactive)
REMARK    1  A    between atoms: C_1  and  C_2
REMARK    2  A    between atoms: C_3  and  C_4
REMARK    3  A    between atoms: C_17  and  C_18
REMARK    4  A    between atoms: C_23  and  C_24
REMARK    5  A    between atoms: C_24  and  O_25
REMARK    6  A    between atoms: O_25  and  C_26
REMARK    7  A    between atoms: C_28  and  C_29
REMARK    8  A    between atoms: C_29  and  O_31
REMARK                            x       y       z     vdW  Elec       q    Type
REMARK                         _______ _______ _______ _____ _____    ______ ____
ROOT
ATOM      1  C   UNL     1       0.906   7.728  21.426  0.00  0.00    +0.000 C 
ATOM      2  C   UNL     1       1.426   7.960  20.019  0.00  0.00    +0.000 A 
ATOM      3  C   UNL     1       1.255   9.241  19.400  0.00  0.00    +0.000 A 
ATOM      4  C   UNL     1       1.925   9.484  18.183  0.00  0.00    +0.000 A 
ATOM      5  C   UNL     1       2.641   8.493  17.536  0.00  0.00    +0.000 A 
ATOM      6  C   UNL     1       2.662   7.211  18.068  0.00  0.00    +0.000 A 
ATOM      7  C   UNL     1       2.108   6.903  19.325  0.00  0.00    +0.000 A 
ENDROOT
BRANCH   3   8
ATOM      8  C   UNL     1       0.372  10.321  19.923  0.00  0.00    +0.000 A 
ATOM      9  C   UNL     1       0.822  11.234  20.900  0.00  0.00    +0.000 A 
ATOM     10  C   UNL     1       0.018  12.290  21.343  0.00  0.00    +0.000 A 
ATOM     11  C   UNL     1      -1.274  12.430  20.850  0.00  0.00    +0.000 A 
ATOM     12  C   UNL     1      -1.743  11.548  19.877  0.00  0.00    +0.000 A 
ATOM     13  C   UNL     1      -0.918  10.527  19.401  0.00  0.00    +0.000 A 
ATOM     14  O   UNL     1      -3.004  11.611  19.345  0.00  0.00    +0.000 OA
ATOM     15  C   UNL     1      -3.627  12.868  19.626  0.00  0.00    +0.000 C 
ATOM     16  C   UNL     1      -3.416  13.273  21.076  0.00  0.00    +0.000 C 
ATOM     17  O   UNL     1      -2.024  13.458  21.357  0.00  0.00    +0.000 OA
ENDBRANCH   3   8
BRANCH   7  18
ATOM     18  C   UNL     1       2.233   5.494  19.834  0.00  0.00    +0.000 A 
ATOM     19  C   UNL     1       1.072   4.800  20.241  0.00  0.00    +0.000 A 
ATOM     20  C   UNL     1       1.112   3.509  20.776  0.00  0.00    +0.000 A 
ATOM     21  C   UNL     1       2.313   2.822  20.829  0.00  0.00    +0.000 A 
ATOM     22  C   UNL     1       3.470   3.439  20.367  0.00  0.00    +0.000 A 
ATOM     23  C   UNL     1       3.461   4.776  19.904  0.00  0.00    +0.000 A 
BRANCH  23  24
ATOM     24  C   UNL     1       4.812   5.355  19.510  0.00  0.00    +0.000 C 
BRANCH  24  25
ATOM     25  O   UNL     1       5.725   4.294  19.249  0.00  0.00    +0.000 OA
BRANCH  25  26
ATOM     26  C   UNL     1       6.334   4.380  18.049  0.00  0.00    +0.000 A 
ATOM     27  C   UNL     1       5.811   4.430  16.744  0.00  0.00    +0.000 A 
ATOM     28  C   UNL     1       6.926   4.510  15.940  0.00  0.00    +0.000 A 
ATOM     29  O   UNL     1       8.043   4.503  16.721  0.00  0.00    +0.000 OA
ATOM     30  N   UNL     1       7.670   4.415  18.055  0.00  0.00    +0.000 NA
BRANCH  28  31
ATOM     31  C   UNL     1       7.051   4.601  14.509  0.00  0.00    +0.000 C 
ATOM     32  O   UNL     1       7.666   5.467  13.905  0.00  0.00    +0.000 OA
BRANCH  31  33
ATOM     33  O   UNL     1       6.404   3.592  13.867  0.00  0.00    +0.000 OA
ATOM     34  H   UNL     1       5.447   3.770  13.768  0.00  0.00    +0.000 HD
ENDBRANCH  31  33
ENDBRANCH  28  31
ENDBRANCH  25  26
ENDBRANCH  24  25
ENDBRANCH  23  24
ENDBRANCH   7  18
TORSDOF 7
ENDMDL
MODEL 3
REMARK VINA RESULT:      -9.7      1.650      2.348
REMARK  Name = 
REMARK  8 active torsions:
REMARK  status: ('A' for Active; 'I' for Inactive)
REMARK    1  A    between atoms: C_1  and  C_2
REMARK    2  A    between atoms: C_3  and  C_4
REMARK    3  A    between atoms: C_17  and  C_18
REMARK    4  A    between atoms: C_23  and  C_24
REMARK    5  A    between atoms: C_24  and  O_25
REMARK    6  A    between atoms: O_25  and  C_26
REMARK    7  A    between atoms: C_28  and  C_29
REMARK    8  A    between atoms: C_29  and  O_31
REMARK                            x       y       z     vdW  Elec       q    Type
REMARK                         _______ _______ _______ _____ _____    ______ ____
ROOT
ATOM      1  C   UNL     1       1.592   5.908  20.978  0.00  0.00    +0.000 C 
ATOM      2  C   UNL     1       2.017   6.638  19.717  0.00  0.00    +0.000 A 
ATOM      3  C   UNL     1       1.863   8.060  19.631  0.00  0.00    +0.000 A 
ATOM      4  C   UNL     1       2.451   8.727  18.537  0.00  0.00    +0.000 A 
ATOM      5  C   UNL     1       3.069   8.035  17.510  0.00  0.00    +0.000 A 
ATOM      6  C   UNL     1       3.066   6.647  17.526  0.00  0.00    +0.000 A 
ATOM      7  C   UNL     1       2.593   5.903  18.625  0.00  0.00    +0.000 A 
ENDROOT
BRANCH   3   8
ATOM      8  C   UNL     1       1.076   8.884  20.592  0.00  0.00    +0.000 A 
ATOM      9  C   UNL     1       1.245   8.755  21.986  0.00  0.00    +0.000 A 
ATOM     10  C   UNL     1       0.556   9.575  22.887  0.00  0.00    +0.000 A 
ATOM     11  C   UNL     1      -0.353  10.513  22.414  0.00  0.00    +0.000 A 
ATOM     12  C   UNL     1      -0.534  10.669  21.040  0.00  0.00    +0.000 A 
ATOM     13  C   UNL     1       0.193   9.884  20.144  0.00  0.00    +0.000 A 
ATOM     14  O   UNL     1      -1.415  11.564  20.490  0.00  0.00    +0.000 OA
ATOM     15  C   UNL     1      -1.836  12.538  21.450  0.00  0.00    +0.000 C 
ATOM     16  C   UNL     1      -2.177  11.887  22.780  0.00  0.00    +0.000 C 
ATOM     17  O   UNL     1      -1.026  11.253  23.349  0.00  0.00    +0.000 OA
ENDBRANCH   3   8
BRANCH   7  18
ATOM     18  C   UNL     1       2.687   4.404  18.564  0.00  0.00    +0.000 A 
ATOM     19  C   UNL     1       1.519   3.648  18.320  0.00  0.00    +0.000 A 
ATOM     20  C   UNL     1       1.515   2.249  18.303  0.00  0.00    +0.000 A 
ATOM     21  C   UNL     1       2.706   1.555  18.430  0.00  0.00    +0.000 A 
ATOM     22  C   UNL     1       3.892   2.262  18.596  0.00  0.00    +0.000 A 
ATOM     23  C   UNL     1       3.901   3.673  18.701  0.00  0.00    +0.000 A 
BRANCH  23  24
ATOM     24  C   UNL     1       5.257   4.313  18.968  0.00  0.00    +0.000 C 
BRANCH  24  25
ATOM     25  O   UNL     1       5.993   4.389  17.752  0.00  0.00    +0.000 OA
BRANCH  25  26
ATOM     26  C   UNL     1       6.666   5.546  17.592  0.00  0.00    +0.000 A 
ATOM     27  C   UNL     1       6.918   6.605  18.483  0.00  0.00    +0.000 A 
ATOM     28  C   UNL     1       7.653   7.501  17.739  0.00  0.00    +0.000 A 
ATOM     29  O   UNL     1       7.822   7.005  16.481  0.00  0.00    +0.000 OA
ATOM     30  N   UNL     1       7.194   5.771  16.384  0.00  0.00    +0.000 NA
BRANCH  28  31
ATOM     31  C   UNL     1       8.221   8.775  18.092  0.00  0.00    +0.000 C 
ATOM     32  O   UNL     1       8.010   9.830  17.513  0.00  0.00    +0.000 OA
BRANCH  31  33
ATOM     33  O   UNL     1       9.039   8.696  19.175  0.00  0.00    +0.000 OA
ATOM     34  H   UNL     1       9.324   9.577  19.489  0.00  0.00    +0.000 HD
ENDBRANCH  31  33
ENDBRANCH  28  31
ENDBRANCH  25  26
ENDBRANCH  24  25
ENDBRANCH  23  24
ENDBRANCH   7  18
TORSDOF 7
ENDMDL
MODEL 4
REMARK VINA RESULT:      -9.6      1.428      1.651
REMARK  Name = 
REMARK  8 active torsions:
REMARK  status: ('A' for Active; 'I' for Inactive)
REMARK    1  A    between atoms: C_1  and  C_2
REMARK    2  A    between atoms: C_3  and  C_4
REMARK    3  A    between atoms: C_17  and  C_18
REMARK    4  A    between atoms: C_23  and  C_24
REMARK    5  A    between atoms: C_24  and  O_25
REMARK    6  A    between atoms: O_25  and  C_26
REMARK    7  A    between atoms: C_28  and  C_29
REMARK    8  A    between atoms: C_29  and  O_31
REMARK                            x       y       z     vdW  Elec       q    Type
REMARK                         _______ _______ _______ _____ _____    ______ ____
ROOT
ATOM      1  C   UNL     1       1.096   7.713  21.252  0.00  0.00    +0.000 C 
ATOM      2  C   UNL     1       1.649   7.854  19.845  0.00  0.00    +0.000 A 
ATOM      3  C   UNL     1       1.491   9.092  19.140  0.00  0.00    +0.000 A 
ATOM      4  C   UNL     1       2.189   9.258  17.926  0.00  0.00    +0.000 A 
ATOM      5  C   UNL     1       2.921   8.228  17.361  0.00  0.00    +0.000 A 
ATOM      6  C   UNL     1       2.931   6.983  17.975  0.00  0.00    +0.000 A 
ATOM      7  C   UNL     1       2.348   6.756  19.237  0.00  0.00    +0.000 A 
ENDROOT
BRANCH   3   8
ATOM      8  C   UNL     1       0.596  10.202  19.572  0.00  0.00    +0.000 A 
ATOM      9  C   UNL     1      -0.747  10.274  19.149  0.00  0.00    +0.000 A 
ATOM     10  C   UNL     1      -1.608  11.278  19.608  0.00  0.00    +0.000 A 
ATOM     11  C   UNL     1      -1.130  12.260  20.467  0.00  0.00    +0.000 A 
ATOM     12  C   UNL     1       0.191  12.209  20.910  0.00  0.00    +0.000 A 
ATOM     13  C   UNL     1       1.032  11.177  20.489  0.00  0.00    +0.000 A 
ATOM     14  O   UNL     1       0.744  13.140  21.749  0.00  0.00    +0.000 OA
ATOM     15  C   UNL     1      -0.264  13.931  22.388  0.00  0.00    +0.000 C 
ATOM     16  C   UNL     1      -1.328  14.369  21.394  0.00  0.00    +0.000 C 
ATOM     17  O   UNL     1      -2.012  13.238  20.844  0.00  0.00    +0.000 OA
ENDBRANCH   3   8
BRANCH   7  18
ATOM     18  C   UNL     1       2.463   5.384  19.839  0.00  0.00    +0.000 A 
ATOM     19  C   UNL     1       1.304   4.748  20.337  0.00  0.00    +0.000 A 
ATOM     20  C   UNL     1       1.337   3.496  20.960  0.00  0.00    +0.000 A 
ATOM     21  C   UNL     1       2.524   2.786  21.017  0.00  0.00    +0.000 A 
ATOM     22  C   UNL     1       3.676   3.341  20.469  0.00  0.00    +0.000 A 
ATOM     23  C   UNL     1       3.676   4.642  19.913  0.00  0.00    +0.000 A 
BRANCH  23  24
ATOM     24  C   UNL     1       5.024   5.160  19.429  0.00  0.00    +0.000 C 
BRANCH  24  25
ATOM     25  O   UNL     1       5.677   4.147  18.672  0.00  0.00    +0.000 OA
BRANCH  25  26
ATOM     26  C   UNL     1       6.210   4.588  17.515  0.00  0.00    +0.000 A 
ATOM     27  C   UNL     1       6.220   4.028  16.224  0.00  0.00    +0.000 A 
ATOM     28  C   UNL     1       6.919   4.941  15.468  0.00  0.00    +0.000 A 
ATOM     29  O   UNL     1       7.305   5.979  16.264  0.00  0.00    +0.000 OA
ATOM     30  N   UNL     1       6.862   5.754  17.560  0.00  0.00    +0.000 NA
BRANCH  28  31
ATOM     31  C   UNL     1       7.257   4.945  14.070  0.00  0.00    +0.000 C 
ATOM     32  O   UNL     1       8.150   5.604  13.557  0.00  0.00    +0.000 OA
BRANCH  31  33
ATOM     33  O   UNL     1       6.466   4.111  13.343  0.00  0.00    +0.000 OA
ATOM     34  H   UNL     1       5.848   4.599  12.762  0.00  0.00    +0.000 HD
ENDBRANCH  31  33
ENDBRANCH  28  31
ENDBRANCH  25  26
ENDBRANCH  24  25
ENDBRANCH  23  24
ENDBRANCH   7  18
TORSDOF 7
ENDMDL
MODEL 5
REMARK VINA RESULT:      -9.1      1.529      2.070
REMARK  Name = 
REMARK  8 active torsions:
REMARK  status: ('A' for Active; 'I' for Inactive)
REMARK    1  A    between atoms: C_1  and  C_2
REMARK    2  A    between atoms: C_3  and  C_4
REMARK    3  A    between atoms: C_17  and  C_18
REMARK    4  A    between atoms: C_23  and  C_24
REMARK    5  A    between atoms: C_24  and  O_25
REMARK    6  A    between atoms: O_25  and  C_26
REMARK    7  A    between atoms: C_28  and  C_29
REMARK    8  A    between atoms: C_29  and  O_31
REMARK                            x       y       z     vdW  Elec       q    Type
REMARK                         _______ _______ _______ _____ _____    ______ ____
ROOT
ATOM      1  C   UNL     1       1.453   8.364  21.728  0.00  0.00    +0.000 C 
ATOM      2  C   UNL     1       1.522   8.572  20.226  0.00  0.00    +0.000 A 
ATOM      3  C   UNL     1       1.212   9.856  19.670  0.00  0.00    +0.000 A 
ATOM      4  C   UNL     1       1.481  10.070  18.303  0.00  0.00    +0.000 A 
ATOM      5  C   UNL     1       1.927   9.050  17.481  0.00  0.00    +0.000 A 
ATOM      6  C   UNL     1       2.066   7.770  17.999  0.00  0.00    +0.000 A 
ATOM      7  C   UNL     1       1.917   7.487  19.371  0.00  0.00    +0.000 A 
ENDROOT
BRANCH   3   8
ATOM      8  C   UNL     1       0.573  10.971  20.425  0.00  0.00    +0.000 A 
ATOM      9  C   UNL     1       1.294  12.130  20.781  0.00  0.00    +0.000 A 
ATOM     10  C   UNL     1       0.678  13.206  21.430  0.00  0.00    +0.000 A 
ATOM     11  C   UNL     1      -0.665  13.128  21.777  0.00  0.00    +0.000 A 
ATOM     12  C   UNL     1      -1.406  11.999  21.429  0.00  0.00    +0.000 A 
ATOM     13  C   UNL     1      -0.799  10.949  20.737  0.00  0.00    +0.000 A 
ATOM     14  O   UNL     1      -2.731  11.839  21.740  0.00  0.00    +0.000 OA
ATOM     15  C   UNL     1      -3.332  13.080  22.120  0.00  0.00    +0.000 C 
ATOM     16  C   UNL     1      -2.436  13.853  23.076  0.00  0.00    +0.000 C 
ATOM     17  O   UNL     1      -1.196  14.198  22.449  0.00  0.00    +0.000 OA
ENDBRANCH   3   8
BRANCH   7  18
ATOM     18  C   UNL     1       2.145   6.076  19.837  0.00  0.00    +0.000 A 
ATOM     19  C   UNL     1       1.052   5.325  20.323  0.00  0.00    +0.000 A 
ATOM     20  C   UNL     1       1.191   4.027  20.824  0.00  0.00    +0.000 A 
ATOM     21  C   UNL     1       2.420   3.393  20.764  0.00  0.00    +0.000 A 
ATOM     22  C   UNL     1       3.508   4.068  20.223  0.00  0.00    +0.000 A 
ATOM     23  C   UNL     1       3.403   5.412  19.791  0.00  0.00    +0.000 A 
BRANCH  23  24
ATOM     24  C   UNL     1       4.692   6.057  19.300  0.00  0.00    +0.000 C 
BRANCH  24  25
ATOM     25  O   UNL     1       5.744   5.099  19.331  0.00  0.00    +0.000 OA
BRANCH  25  26
ATOM     26  C   UNL     1       6.339   4.902  18.138  0.00  0.00    +0.000 A 
ATOM     27  C   UNL     1       5.858   5.055  16.824  0.00  0.00    +0.000 A 
ATOM     28  C   UNL     1       6.928   4.701  16.033  0.00  0.00    +0.000 A 
ATOM     29  O   UNL     1       7.979   4.354  16.830  0.00  0.00    +0.000 OA
ATOM     30  N   UNL     1       7.606   4.476  18.161  0.00  0.00    +0.000 NA
BRANCH  28  31
ATOM     31  C   UNL     1       7.070   4.662  14.602  0.00  0.00    +0.000 C 
ATOM     32  O   UNL     1       7.700   5.465  13.930  0.00  0.00    +0.000 OA
BRANCH  31  33
ATOM     33  O   UNL     1       6.419   3.606  14.045  0.00  0.00    +0.000 OA
ATOM     34  H   UNL     1       5.945   3.853  13.226  0.00  0.00    +0.000 HD
ENDBRANCH  31  33
ENDBRANCH  28  31
ENDBRANCH  25  26
ENDBRANCH  24  25
ENDBRANCH  23  24
ENDBRANCH   7  18
TORSDOF 7
ENDMDL
MODEL 6
REMARK VINA RESULT:      -9.1      1.759      2.149
REMARK  Name = 
REMARK  8 active torsions:
REMARK  status: ('A' for Active; 'I' for Inactive)
REMARK    1  A    between atoms: C_1  and  C_2
REMARK    2  A    between atoms: C_3  and  C_4
REMARK    3  A    between atoms: C_17  and  C_18
REMARK    4  A    between atoms: C_23  and  C_24
REMARK    5  A    between atoms: C_24  and  O_25
REMARK    6  A    between atoms: O_25  and  C_26
REMARK    7  A    between atoms: C_28  and  C_29
REMARK    8  A    between atoms: C_29  and  O_31
REMARK                            x       y       z     vdW  Elec       q    Type
REMARK                         _______ _______ _______ _____ _____    ______ ____
ROOT
ATOM      1  C   UNL     1       1.327   6.726  20.264  0.00  0.00    +0.000 C 
ATOM      2  C   UNL     1       2.140   7.167  19.060  0.00  0.00    +0.000 A 
ATOM      3  C   UNL     1       1.975   8.491  18.536  0.00  0.00    +0.000 A 
ATOM      4  C   UNL     1       2.885   8.934  17.555  0.00  0.00    +0.000 A 
ATOM      5  C   UNL     1       3.846   8.093  17.020  0.00  0.00    +0.000 A 
ATOM      6  C   UNL     1       3.886   6.764  17.421  0.00  0.00    +0.000 A 
ATOM      7  C   UNL     1       3.085   6.263  18.466  0.00  0.00    +0.000 A 
ENDROOT
BRANCH   3   8
ATOM      8  C   UNL     1       0.875   9.419  18.918  0.00  0.00    +0.000 A 
ATOM      9  C   UNL     1       0.967  10.245  20.057  0.00  0.00    +0.000 A 
ATOM     10  C   UNL     1      -0.037  11.166  20.379  0.00  0.00    +0.000 A 
ATOM     11  C   UNL     1      -1.178  11.249  19.591  0.00  0.00    +0.000 A 
ATOM     12  C   UNL     1      -1.293  10.453  18.452  0.00  0.00    +0.000 A 
ATOM     13  C   UNL     1      -0.266   9.571  18.108  0.00  0.00    +0.000 A 
ATOM     14  O   UNL     1      -2.386  10.467  17.626  0.00  0.00    +0.000 OA
ATOM     15  C   UNL     1      -3.199  11.622  17.857  0.00  0.00    +0.000 C 
ATOM     16  C   UNL     1      -3.393  11.868  19.344  0.00  0.00    +0.000 C 
ATOM     17  O   UNL     1      -2.142  12.140  19.985  0.00  0.00    +0.000 OA
ENDBRANCH   3   8
BRANCH   7  18
ATOM     18  C   UNL     1       3.247   4.821  18.859  0.00  0.00    +0.000 A 
ATOM     19  C   UNL     1       2.146   3.945  18.739  0.00  0.00    +0.000 A 
ATOM     20  C   UNL     1       2.201   2.605  19.135  0.00  0.00    +0.000 A 
ATOM     21  C   UNL     1       3.398   2.064  19.574  0.00  0.00    +0.000 A 
ATOM     22  C   UNL     1       4.527   2.872  19.635  0.00  0.00    +0.000 A 
ATOM     23  C   UNL     1       4.467   4.251  19.321  0.00  0.00    +0.000 A 
BRANCH  23  24
ATOM     24  C   UNL     1       5.758   5.035  19.514  0.00  0.00    +0.000 C 
BRANCH  24  25
ATOM     25  O   UNL     1       6.824   4.367  18.850  0.00  0.00    +0.000 OA
BRANCH  25  26
ATOM     26  C   UNL     1       6.945   4.690  17.547  0.00  0.00    +0.000 A 
ATOM     27  C   UNL     1       6.610   3.980  16.378  0.00  0.00    +0.000 A 
ATOM     28  C   UNL     1       6.972   4.829  15.357  0.00  0.00    +0.000 A 
ATOM     29  O   UNL     1       7.494   5.971  15.886  0.00  0.00    +0.000 OA
ATOM     30  N   UNL     1       7.483   5.883  17.272  0.00  0.00    +0.000 NA
BRANCH  28  31
ATOM     31  C   UNL     1       6.870   4.681  13.929  0.00  0.00    +0.000 C 
ATOM     32  O   UNL     1       6.140   3.891  13.348  0.00  0.00    +0.000 OA
BRANCH  31  33
ATOM     33  O   UNL     1       7.684   5.539  13.259  0.00  0.00    +0.000 OA
ATOM     34  H   UNL     1       7.436   6.475  13.404  0.00  0.00    +0.000 HD
ENDBRANCH  31  33
ENDBRANCH  28  31
ENDBRANCH  25  26
ENDBRANCH  24  25
ENDBRANCH  23  24
ENDBRANCH   7  18
TORSDOF 7
ENDMDL
MODEL 7
REMARK VINA RESULT:      -9.0      1.744      2.647
REMARK  Name = 
REMARK  8 active torsions:
REMARK  status: ('A' for Active; 'I' for Inactive)
REMARK    1  A    between atoms: C_1  and  C_2
REMARK    2  A    between atoms: C_3  and  C_4
REMARK    3  A    between atoms: C_17  and  C_18
REMARK    4  A    between atoms: C_23  and  C_24
REMARK    5  A    between atoms: C_24  and  O_25
REMARK    6  A    between atoms: O_25  and  C_26
REMARK    7  A    between atoms: C_28  and  C_29
REMARK    8  A    between atoms: C_29  and  O_31
REMARK                            x       y       z     vdW  Elec       q    Type
REMARK                         _______ _______ _______ _____ _____    ______ ____
ROOT
ATOM      1  C   UNL     1       1.636   6.087  20.362  0.00  0.00    +0.000 C 
ATOM      2  C   UNL     1       2.334   6.592  19.112  0.00  0.00    +0.000 A 
ATOM      3  C   UNL     1       2.255   7.981  18.764  0.00  0.00    +0.000 A 
ATOM      4  C   UNL     1       3.076   8.451  17.720  0.00  0.00    +0.000 A 
ATOM      5  C   UNL     1       3.860   7.593  16.968  0.00  0.00    +0.000 A 
ATOM      6  C   UNL     1       3.801   6.228  17.211  0.00  0.00    +0.000 A 
ATOM      7  C   UNL     1       3.088   5.682  18.296  0.00  0.00    +0.000 A 
ENDROOT
BRANCH   3   8
ATOM      8  C   UNL     1       1.323   8.957  19.395  0.00  0.00    +0.000 A 
ATOM      9  C   UNL     1       0.498   9.798  18.619  0.00  0.00    +0.000 A 
ATOM     10  C   UNL     1      -0.426  10.667  19.210  0.00  0.00    +0.000 A 
ATOM     11  C   UNL     1      -0.513  10.747  20.595  0.00  0.00    +0.000 A 
ATOM     12  C   UNL     1       0.283   9.921  21.388  0.00  0.00    +0.000 A 
ATOM     13  C   UNL     1       1.167   9.020  20.792  0.00  0.00    +0.000 A 
ATOM     14  O   UNL     1       0.265   9.943  22.758  0.00  0.00    +0.000 OA
ATOM     15  C   UNL     1      -0.893  10.623  23.254  0.00  0.00    +0.000 C 
ATOM     16  C   UNL     1      -1.139  11.914  22.491  0.00  0.00    +0.000 C 
ATOM     17  O   UNL     1      -1.407  11.649  21.109  0.00  0.00    +0.000 OA
ENDBRANCH   3   8
BRANCH   7  18
ATOM     18  C   UNL     1       3.135   4.193  18.503  0.00  0.00    +0.000 A 
ATOM     19  C   UNL     1       2.002   3.415  18.177  0.00  0.00    +0.000 A 
ATOM     20  C   UNL     1       1.947   2.034  18.391  0.00  0.00    +0.000 A 
ATOM     21  C   UNL     1       3.069   1.362  18.848  0.00  0.00    +0.000 A 
ATOM     22  C   UNL     1       4.231   2.079  19.109  0.00  0.00    +0.000 A 
ATOM     23  C   UNL     1       4.275   3.487  18.980  0.00  0.00    +0.000 A 
BRANCH  23  24
ATOM     24  C   UNL     1       5.585   4.153  19.382  0.00  0.00    +0.000 C 
BRANCH  24  25
ATOM     25  O   UNL     1       6.486   4.130  18.280  0.00  0.00    +0.000 OA
BRANCH  25  26
ATOM     26  C   UNL     1       6.989   5.339  17.961  0.00  0.00    +0.000 A 
ATOM     27  C   UNL     1       7.232   6.481  18.746  0.00  0.00    +0.000 A 
ATOM     28  C   UNL     1       7.748   7.396  17.855  0.00  0.00    +0.000 A 
ATOM     29  O   UNL     1       7.804   6.831  16.616  0.00  0.00    +0.000 OA
ATOM     30  N   UNL     1       7.319   5.532  16.679  0.00  0.00    +0.000 NA
BRANCH  28  31
ATOM     31  C   UNL     1       8.204   8.746  18.050  0.00  0.00    +0.000 C 
ATOM     32  O   UNL     1       9.036   9.102  18.872  0.00  0.00    +0.000 OA
BRANCH  31  33
ATOM     33  O   UNL     1       7.608   9.623  17.199  0.00  0.00    +0.000 OA
ATOM     34  H   UNL     1       6.958  10.197  17.653  0.00  0.00    +0.000 HD
ENDBRANCH  31  33
ENDBRANCH  28  31
ENDBRANCH  25  26
ENDBRANCH  24  25
ENDBRANCH  23  24
ENDBRANCH   7  18
TORSDOF 7
ENDMDL
MODEL 8
REMARK VINA RESULT:      -9.0      1.718      2.101
REMARK  Name = 
REMARK  8 active torsions:
REMARK  status: ('A' for Active; 'I' for Inactive)
REMARK    1  A    between atoms: C_1  and  C_2
REMARK    2  A    between atoms: C_3  and  C_4
REMARK    3  A    between atoms: C_17  and  C_18
REMARK    4  A    between atoms: C_23  and  C_24
REMARK    5  A    between atoms: C_24  and  O_25
REMARK    6  A    between atoms: O_25  and  C_26
REMARK    7  A    between atoms: C_28  and  C_29
REMARK    8  A    between atoms: C_29  and  O_31
REMARK                            x       y       z     vdW  Elec       q    Type
REMARK                         _______ _______ _______ _____ _____    ______ ____
ROOT
ATOM      1  C   UNL     1       1.303   7.533  21.310  0.00  0.00    +0.000 C 
ATOM      2  C   UNL     1       1.782   7.668  19.876  0.00  0.00    +0.000 A 
ATOM      3  C   UNL     1       1.572   8.897  19.169  0.00  0.00    +0.000 A 
ATOM      4  C   UNL     1       2.205   9.060  17.920  0.00  0.00    +0.000 A 
ATOM      5  C   UNL     1       2.921   8.035  17.327  0.00  0.00    +0.000 A 
ATOM      6  C   UNL     1       2.978   6.795  17.951  0.00  0.00    +0.000 A 
ATOM      7  C   UNL     1       2.463   6.573  19.243  0.00  0.00    +0.000 A 
ENDROOT
BRANCH   3   8
ATOM      8  C   UNL     1       0.685   9.999  19.636  0.00  0.00    +0.000 A 
ATOM      9  C   UNL     1       1.132  10.964  20.563  0.00  0.00    +0.000 A 
ATOM     10  C   UNL     1       0.323  12.038  20.951  0.00  0.00    +0.000 A 
ATOM     11  C   UNL     1      -0.970  12.147  20.453  0.00  0.00    +0.000 A 
ATOM     12  C   UNL     1      -1.435  11.213  19.527  0.00  0.00    +0.000 A 
ATOM     13  C   UNL     1      -0.607  10.172  19.105  0.00  0.00    +0.000 A 
ATOM     14  O   UNL     1      -2.697  11.243  18.993  0.00  0.00    +0.000 OA
ATOM     15  C   UNL     1      -3.326  12.510  19.209  0.00  0.00    +0.000 C 
ATOM     16  C   UNL     1      -3.115  12.991  20.635  0.00  0.00    +0.000 C 
ATOM     17  O   UNL     1      -1.724  13.197  20.905  0.00  0.00    +0.000 OA
ENDBRANCH   3   8
BRANCH   7  18
ATOM     18  C   UNL     1       2.626   5.208  19.850  0.00  0.00    +0.000 A 
ATOM     19  C   UNL     1       1.638   4.723  20.736  0.00  0.00    +0.000 A 
ATOM     20  C   UNL     1       1.745   3.488  21.383  0.00  0.00    +0.000 A 
ATOM     21  C   UNL     1       2.802   2.644  21.087  0.00  0.00    +0.000 A 
ATOM     22  C   UNL     1       3.757   3.049  20.162  0.00  0.00    +0.000 A 
ATOM     23  C   UNL     1       3.710   4.330  19.564  0.00  0.00    +0.000 A 
BRANCH  23  24
ATOM     24  C   UNL     1       4.867   4.676  18.636  0.00  0.00    +0.000 C 
BRANCH  24  25
ATOM     25  O   UNL     1       4.785   3.880  17.459  0.00  0.00    +0.000 OA
BRANCH  25  26
ATOM     26  C   UNL     1       5.702   4.194  16.523  0.00  0.00    +0.000 A 
ATOM     27  C   UNL     1       5.618   4.242  15.119  0.00  0.00    +0.000 A 
ATOM     28  C   UNL     1       6.879   4.624  14.721  0.00  0.00    +0.000 A 
ATOM     29  O   UNL     1       7.666   4.788  15.821  0.00  0.00    +0.000 OA
ATOM     30  N   UNL     1       6.925   4.511  16.962  0.00  0.00    +0.000 NA
BRANCH  28  31
ATOM     31  C   UNL     1       7.421   4.861  13.409  0.00  0.00    +0.000 C 
ATOM     32  O   UNL     1       7.079   4.286  12.386  0.00  0.00    +0.000 OA
BRANCH  31  33
ATOM     33  O   UNL     1       8.379   5.825  13.410  0.00  0.00    +0.000 OA
ATOM     34  H   UNL     1       9.161   5.570  13.940  0.00  0.00    +0.000 HD
ENDBRANCH  31  33
ENDBRANCH  28  31
ENDBRANCH  25  26
ENDBRANCH  24  25
ENDBRANCH  23  24
ENDBRANCH   7  18
TORSDOF 7
ENDMDL
MODEL 9
REMARK VINA RESULT:      -9.0      4.471      9.173
REMARK  Name = 
REMARK  8 active torsions:
REMARK  status: ('A' for Active; 'I' for Inactive)
REMARK    1  A    between atoms: C_1  and  C_2
REMARK    2  A    between atoms: C_3  and  C_4
REMARK    3  A    between atoms: C_17  and  C_18
REMARK    4  A    between atoms: C_23  and  C_24
REMARK    5  A    between atoms: C_24  and  O_25
REMARK    6  A    between atoms: O_25  and  C_26
REMARK    7  A    between atoms: C_28  and  C_29
REMARK    8  A    between atoms: C_29  and  O_31
REMARK                            x       y       z     vdW  Elec       q    Type
REMARK                         _______ _______ _______ _____ _____    ______ ____
ROOT
ATOM      1  C   UNL     1       1.982   9.536  18.052  0.00  0.00    +0.000 C 
ATOM      2  C   UNL     1       1.529   9.334  19.486  0.00  0.00    +0.000 A 
ATOM      3  C   UNL     1       1.726   8.064  20.123  0.00  0.00    +0.000 A 
ATOM      4  C   UNL     1       1.484   7.972  21.508  0.00  0.00    +0.000 A 
ATOM      5  C   UNL     1       0.965   9.034  22.229  0.00  0.00    +0.000 A 
ATOM      6  C   UNL     1       0.626  10.206  21.565  0.00  0.00    +0.000 A 
ATOM      7  C   UNL     1       0.926  10.421  20.206  0.00  0.00    +0.000 A 
ENDROOT
BRANCH   3   8
ATOM      8  C   UNL     1       2.120   6.816  19.412  0.00  0.00    +0.000 A 
ATOM      9  C   UNL     1       3.021   6.836  18.328  0.00  0.00    +0.000 A 
ATOM     10  C   UNL     1       3.444   5.657  17.703  0.00  0.00    +0.000 A 
ATOM     11  C   UNL     1       2.938   4.432  18.121  0.00  0.00    +0.000 A 
ATOM     12  C   UNL     1       2.053   4.380  19.197  0.00  0.00    +0.000 A 
ATOM     13  C   UNL     1       1.673   5.555  19.849  0.00  0.00    +0.000 A 
ATOM     14  O   UNL     1       1.502   3.217  19.668  0.00  0.00    +0.000 OA
ATOM     15  C   UNL     1       2.207   2.071  19.180  0.00  0.00    +0.000 C 
ATOM     16  C   UNL     1       2.504   2.201  17.694  0.00  0.00    +0.000 C 
ATOM     17  O   UNL     1       3.359   3.321  17.440  0.00  0.00    +0.000 OA
ENDBRANCH   3   8
BRANCH   7  18
ATOM     18  C   UNL     1       0.566  11.748  19.598  0.00  0.00    +0.000 A 
ATOM     19  C   UNL     1       1.500  12.806  19.647  0.00  0.00    +0.000 A 
ATOM     20  C   UNL     1       1.219  14.084  19.153  0.00  0.00    +0.000 A 
ATOM     21  C   UNL     1       0.024  14.322  18.497  0.00  0.00    +0.000 A 
ATOM     22  C   UNL     1      -0.893  13.287  18.357  0.00  0.00    +0.000 A 
ATOM     23  C   UNL     1      -0.661  12.013  18.927  0.00  0.00    +0.000 A 
BRANCH  23  24
ATOM     24  C   UNL     1      -1.786  10.998  18.773  0.00  0.00    +0.000 C 
BRANCH  24  25
ATOM     25  O   UNL     1      -2.753  11.497  17.854  0.00  0.00    +0.000 OA
BRANCH  25  26
ATOM     26  C   UNL     1      -2.787  10.832  16.682  0.00  0.00    +0.000 A 
ATOM     27  C   UNL     1      -3.376  11.158  15.446  0.00  0.00    +0.000 A 
ATOM     28  C   UNL     1      -3.073  10.085  14.639  0.00  0.00    +0.000 A 
ATOM     29  O   UNL     1      -2.353   9.175  15.354  0.00  0.00    +0.000 OA
ATOM     30  N   UNL     1      -2.176   9.644  16.648  0.00  0.00    +0.000 NA
BRANCH  28  31
ATOM     31  C   UNL     1      -3.385   9.828  13.258  0.00  0.00    +0.000 C 
ATOM     32  O   UNL     1      -4.503   9.858  12.766  0.00  0.00    +0.000 OA
BRANCH  31  33
ATOM     33  O   UNL     1      -2.278   9.548  12.520  0.00  0.00    +0.000 OA
ATOM     34  H   UNL     1      -1.560   9.163  13.061  0.00  0.00    +0.000 HD
ENDBRANCH  31  33
ENDBRANCH  28  31
ENDBRANCH  25  26
ENDBRANCH  24  25
ENDBRANCH  23  24
ENDBRANCH   7  18
TORSDOF 7
ENDMDL
