MODEL 1
REMARK VINA RESULT:      -8.6      0.000      0.000
REMARK  Name = 
REMARK  6 active torsions:
REMARK  status: ('A' for Active; 'I' for Inactive)
REMARK    1  A    between atoms: O_1  and  C_2
REMARK    2  A    between atoms: C_5  and  C_6
REMARK    3  A    between atoms: C_6  and  C_7
REMARK    4  A    between atoms: N_10  and  C_11
REMARK    5  A    between atoms: C_11  and  C_12
REMARK    6  A    between atoms: C_13  and  C_14
REMARK                            x       y       z     vdW  Elec       q    Type
REMARK                         _______ _______ _______ _____ _____    ______ ____
ROOT
ATOM      1  C   UNL     1       5.210   4.901  16.984  0.00  0.00    +0.000 C 
ATOM      2  C   UNL     1       6.630   4.322  16.982  0.00  0.00    +0.000 C 
ATOM      3  C   UNL     1       7.472   5.162  17.929  0.00  0.00    +0.000 C 
ATOM      4  N   UNL     1       7.497   6.593  17.567  0.00  0.00    +0.000 NA
ATOM      5  C   UNL     1       6.160   7.164  17.331  0.00  0.00    +0.000 C 
ATOM      6  C   UNL     1       5.307   6.302  16.375  0.00  0.00    +0.000 C 
ENDROOT
BRANCH   1   7
ATOM      7  C   UNL     1       4.185   3.938  16.371  0.00  0.00    +0.000 C 
BRANCH   7  11
ATOM      8  C   UNL     1       1.183   3.247  19.403  0.00  0.00    +0.000 A 
ATOM      9  C   UNL     1       1.586   4.546  19.123  0.00  0.00    +0.000 A 
ATOM     10  C   UNL     1       2.503   4.768  18.095  0.00  0.00    +0.000 A 
ATOM     11  C   UNL     1       3.057   3.696  17.369  0.00  0.00    +0.000 A 
ATOM     12  C   UNL     1       2.622   2.396  17.659  0.00  0.00    +0.000 A 
ATOM     13  C   UNL     1       1.684   2.176  18.673  0.00  0.00    +0.000 A 
BRANCH   8  14
ATOM     14  O   UNL     1       0.293   2.983  20.402  0.00  0.00    +0.000 OA
ATOM     15  H   UNL     1       0.440   2.073  20.711  0.00  0.00    +0.000 HD
ENDBRANCH   8  14
ENDBRANCH   7  11
ENDBRANCH   1   7
BRANCH   4  16
ATOM     16  C   UNL     1       8.276   7.385  18.550  0.00  0.00    +0.000 C 
BRANCH  16  17
ATOM     17  C   UNL     1       8.365   8.812  18.192  0.00  0.00    +0.000 C 
ATOM     18  C   UNL     1       8.692   9.965  18.126  0.00  0.00    +0.000 C 
BRANCH  18  19
ATOM     19  C   UNL     1       9.312  11.235  18.352  0.00  0.00    +0.000 A 
ATOM     20  C   UNL     1       8.802  12.389  17.753  0.00  0.00    +0.000 A 
ATOM     21  C   UNL     1       9.492  13.598  17.872  0.00  0.00    +0.000 A 
ATOM     22  C   UNL     1      10.694  13.651  18.580  0.00  0.00    +0.000 A 
ATOM     23  C   UNL     1      11.214  12.494  19.159  0.00  0.00    +0.000 A 
ATOM     24  C   UNL     1      10.525  11.286  19.042  0.00  0.00    +0.000 A 
ENDBRANCH  18  19
ENDBRANCH  16  17
ENDBRANCH   4  16
TORSDOF 6
ENDMDL
MODEL 2
REMARK VINA RESULT:      -8.5      1.328      1.739
REMARK  Name = 
REMARK  6 active torsions:
REMARK  status: ('A' for Active; 'I' for Inactive)
REMARK    1  A    between atoms: O_1  and  C_2
REMARK    2  A    between atoms: C_5  and  C_6
REMARK    3  A    between atoms: C_6  and  C_7
REMARK    4  A    between atoms: N_10  and  C_11
REMARK    5  A    between atoms: C_11  and  C_12
REMARK    6  A    between atoms: C_13  and  C_14
REMARK                            x       y       z     vdW  Elec       q    Type
REMARK                         _______ _______ _______ _____ _____    ______ ____
ROOT
ATOM      1  C   UNL     1       4.488   4.547  17.439  0.00  0.00    +0.000 C 
ATOM      2  C   UNL     1       4.745   5.555  16.313  0.00  0.00    +0.000 C 
ATOM      3  C   UNL     1       6.186   6.024  16.433  0.00  0.00    +0.000 C 
ATOM      4  N   UNL     1       6.491   6.627  17.746  0.00  0.00    +0.000 NA
ATOM      5  C   UNL     1       6.062   5.801  18.887  0.00  0.00    +0.000 C 
ATOM      6  C   UNL     1       4.600   5.322  18.755  0.00  0.00    +0.000 C 
ENDROOT
BRANCH   1   7
ATOM      7  C   UNL     1       3.210   3.728  17.213  0.00  0.00    +0.000 C 
BRANCH   7  11
ATOM      8  C   UNL     1       1.638   2.841  21.140  0.00  0.00    +0.000 A 
ATOM      9  C   UNL     1       0.903   3.639  20.273  0.00  0.00    +0.000 A 
ATOM     10  C   UNL     1       1.383   3.864  18.982  0.00  0.00    +0.000 A 
ATOM     11  C   UNL     1       2.616   3.331  18.560  0.00  0.00    +0.000 A 
ATOM     12  C   UNL     1       3.331   2.516  19.448  0.00  0.00    +0.000 A 
ATOM     13  C   UNL     1       2.838   2.271  20.734  0.00  0.00    +0.000 A 
BRANCH   8  14
ATOM     14  O   UNL     1       1.210   2.599  22.412  0.00  0.00    +0.000 OA
ATOM     15  H   UNL     1       0.408   2.052  22.366  0.00  0.00    +0.000 HD
ENDBRANCH   8  14
ENDBRANCH   7  11
ENDBRANCH   1   7
BRANCH   4  16
ATOM     16  C   UNL     1       7.920   7.013  17.843  0.00  0.00    +0.000 C 
BRANCH  16  17
ATOM     17  C   UNL     1       8.109   8.461  18.034  0.00  0.00    +0.000 C 
ATOM     18  C   UNL     1       8.565   9.539  18.304  0.00  0.00    +0.000 C 
BRANCH  18  19
ATOM     19  C   UNL     1       9.398  10.600  18.783  0.00  0.00    +0.000 A 
ATOM     20  C   UNL     1      10.269  11.264  17.916  0.00  0.00    +0.000 A 
ATOM     21  C   UNL     1      11.170  12.204  18.421  0.00  0.00    +0.000 A 
ATOM     22  C   UNL     1      11.207  12.473  19.790  0.00  0.00    +0.000 A 
ATOM     23  C   UNL     1      10.353  11.795  20.658  0.00  0.00    +0.000 A 
ATOM     24  C   UNL     1       9.451  10.856  20.155  0.00  0.00    +0.000 A 
ENDBRANCH  18  19
ENDBRANCH  16  17
ENDBRANCH   4  16
TORSDOF 6
ENDMDL
MODEL 3
REMARK VINA RESULT:      -8.5      1.241      1.574
REMARK  Name = 
REMARK  6 active torsions:
REMARK  status: ('A' for Active; 'I' for Inactive)
REMARK    1  A    between atoms: O_1  and  C_2
REMARK    2  A    between atoms: C_5  and  C_6
REMARK    3  A    between atoms: C_6  and  C_7
REMARK    4  A    between atoms: N_10  and  C_11
REMARK    5  A    between atoms: C_11  and  C_12
REMARK    6  A    between atoms: C_13  and  C_14
REMARK                            x       y       z     vdW  Elec       q    Type
REMARK                         _______ _______ _______ _____ _____    ______ ____
ROOT
ATOM      1  C   UNL     1       3.879   5.465  17.755  0.00  0.00    +0.000 C 
ATOM      2  C   UNL     1       4.958   4.462  17.329  0.00  0.00    +0.000 C 
ATOM      3  C   UNL     1       6.287   4.954  17.877  0.00  0.00    +0.000 C 
ATOM      4  N   UNL     1       6.635   6.313  17.417  0.00  0.00    +0.000 NA
ATOM      5  C   UNL     1       5.547   7.291  17.592  0.00  0.00    +0.000 C 
ATOM      6  C   UNL     1       4.198   6.781  17.041  0.00  0.00    +0.000 C 
ENDROOT
BRANCH   1   7
ATOM      7  C   UNL     1       2.460   4.903  17.590  0.00  0.00    +0.000 C 
BRANCH   7  11
ATOM      8  C   UNL     1       1.440   2.966  21.317  0.00  0.00    +0.000 A 
ATOM      9  C   UNL     1       2.137   4.166  21.338  0.00  0.00    +0.000 A 
ATOM     10  C   UNL     1       2.402   4.822  20.136  0.00  0.00    +0.000 A 
ATOM     11  C   UNL     1       2.012   4.267  18.902  0.00  0.00    +0.000 A 
ATOM     12  C   UNL     1       1.294   3.063  18.907  0.00  0.00    +0.000 A 
ATOM     13  C   UNL     1       1.008   2.418  20.115  0.00  0.00    +0.000 A 
BRANCH   8  14
ATOM     14  O   UNL     1       1.163   2.288  22.467  0.00  0.00    +0.000 OA
ATOM     15  H   UNL     1       0.204   2.139  22.512  0.00  0.00    +0.000 HD
ENDBRANCH   8  14
ENDBRANCH   7  11
ENDBRANCH   1   7
BRANCH   4  16
ATOM     16  C   UNL     1       7.907   6.779  18.024  0.00  0.00    +0.000 C 
BRANCH  16  17
ATOM     17  C   UNL     1       8.073   8.241  17.949  0.00  0.00    +0.000 C 
ATOM     18  C   UNL     1       8.427   9.372  18.140  0.00  0.00    +0.000 C 
BRANCH  18  19
ATOM     19  C   UNL     1       9.032  10.553  18.677  0.00  0.00    +0.000 A 
ATOM     20  C   UNL     1       9.285  11.656  17.858  0.00  0.00    +0.000 A 
ATOM     21  C   UNL     1       9.996  12.748  18.361  0.00  0.00    +0.000 A 
ATOM     22  C   UNL     1      10.462  12.734  19.677  0.00  0.00    +0.000 A 
ATOM     23  C   UNL     1      10.229  11.624  20.487  0.00  0.00    +0.000 A 
ATOM     24  C   UNL     1       9.518  10.532  19.987  0.00  0.00    +0.000 A 
ENDBRANCH  18  19
ENDBRANCH  16  17
ENDBRANCH   4  16
TORSDOF 6
ENDMDL
MODEL 4
REMARK VINA RESULT:      -8.3      1.370      2.002
REMARK  Name = 
REMARK  6 active torsions:
REMARK  status: ('A' for Active; 'I' for Inactive)
REMARK    1  A    between atoms: O_1  and  C_2
REMARK    2  A    between atoms: C_5  and  C_6
REMARK    3  A    between atoms: C_6  and  C_7
REMARK    4  A    between atoms: N_10  and  C_11
REMARK    5  A    between atoms: C_11  and  C_12
REMARK    6  A    between atoms: C_13  and  C_14
REMARK                            x       y       z     vdW  Elec       q    Type
REMARK                         _______ _______ _______ _____ _____    ______ ____
ROOT
ATOM      1  C   UNL     1       4.876   4.456  17.165  0.00  0.00    +0.000 C 
ATOM      2  C   UNL     1       4.281   5.866  17.076  0.00  0.00    +0.000 C 
ATOM      3  C   UNL     1       5.389   6.808  16.635  0.00  0.00    +0.000 C 
ATOM      4  N   UNL     1       6.554   6.796  17.543  0.00  0.00    +0.000 NA
ATOM      5  C   UNL     1       7.044   5.442  17.853  0.00  0.00    +0.000 C 
ATOM      6  C   UNL     1       5.911   4.489  18.292  0.00  0.00    +0.000 C 
ENDROOT
BRANCH   1   7
ATOM      7  C   UNL     1       3.797   3.368  17.234  0.00  0.00    +0.000 C 
BRANCH   7  11
ATOM      8  C   UNL     1       2.043   2.966  21.164  0.00  0.00    +0.000 A 
ATOM      9  C   UNL     1       3.250   2.339  20.886  0.00  0.00    +0.000 A 
ATOM     10  C   UNL     1       3.846   2.530  19.640  0.00  0.00    +0.000 A 
ATOM     11  C   UNL     1       3.224   3.311  18.647  0.00  0.00    +0.000 A 
ATOM     12  C   UNL     1       2.014   3.947  18.957  0.00  0.00    +0.000 A 
ATOM     13  C   UNL     1       1.429   3.775  20.216  0.00  0.00    +0.000 A 
BRANCH   8  14
ATOM     14  O   UNL     1       1.423   2.803  22.368  0.00  0.00    +0.000 OA
ATOM     15  H   UNL     1       1.771   3.468  22.984  0.00  0.00    +0.000 HD
ENDBRANCH   8  14
ENDBRANCH   7  11
ENDBRANCH   1   7
BRANCH   4  16
ATOM     16  C   UNL     1       7.636   7.680  17.043  0.00  0.00    +0.000 C 
BRANCH  16  17
ATOM     17  C   UNL     1       8.133   8.611  18.071  0.00  0.00    +0.000 C 
ATOM     18  C   UNL     1       8.696   9.505  18.641  0.00  0.00    +0.000 C 
BRANCH  18  19
ATOM     19  C   UNL     1       9.542  10.613  18.966  0.00  0.00    +0.000 A 
ATOM     20  C   UNL     1      10.342  11.205  17.986  0.00  0.00    +0.000 A 
ATOM     21  C   UNL     1      11.261  12.196  18.343  0.00  0.00    +0.000 A 
ATOM     22  C   UNL     1      11.385  12.586  19.677  0.00  0.00    +0.000 A 
ATOM     23  C   UNL     1      10.603  11.980  20.658  0.00  0.00    +0.000 A 
ATOM     24  C   UNL     1       9.684  10.991  20.303  0.00  0.00    +0.000 A 
ENDBRANCH  18  19
ENDBRANCH  16  17
ENDBRANCH   4  16
TORSDOF 6
ENDMDL
MODEL 5
REMARK VINA RESULT:      -8.3      1.052      1.563
REMARK  Name = 
REMARK  6 active torsions:
REMARK  status: ('A' for Active; 'I' for Inactive)
REMARK    1  A    between atoms: O_1  and  C_2
REMARK    2  A    between atoms: C_5  and  C_6
REMARK    3  A    between atoms: C_6  and  C_7
REMARK    4  A    between atoms: N_10  and  C_11
REMARK    5  A    between atoms: C_11  and  C_12
REMARK    6  A    between atoms: C_13  and  C_14
REMARK                            x       y       z     vdW  Elec       q    Type
REMARK                         _______ _______ _______ _____ _____    ______ ____
ROOT
ATOM      1  C   UNL     1       4.184   5.197  17.621  0.00  0.00    +0.000 C 
ATOM      2  C   UNL     1       5.382   4.255  17.450  0.00  0.00    +0.000 C 
ATOM      3  C   UNL     1       6.575   4.893  18.143  0.00  0.00    +0.000 C 
ATOM      4  N   UNL     1       6.896   6.236  17.620  0.00  0.00    +0.000 NA
ATOM      5  C   UNL     1       5.730   7.133  17.546  0.00  0.00    +0.000 C 
ATOM      6  C   UNL     1       4.520   6.476  16.848  0.00  0.00    +0.000 C 
ENDROOT
BRANCH   1   7
ATOM      7  C   UNL     1       2.850   4.513  17.299  0.00  0.00    +0.000 C 
BRANCH   7  11
ATOM      8  C   UNL     1       1.330   3.005  21.054  0.00  0.00    +0.000 A 
ATOM      9  C   UNL     1       1.650   4.351  20.936  0.00  0.00    +0.000 A 
ATOM     10  C   UNL     1       2.073   4.846  19.702  0.00  0.00    +0.000 A 
ATOM     11  C   UNL     1       2.221   3.996  18.589  0.00  0.00    +0.000 A 
ATOM     12  C   UNL     1       1.876   2.645  18.728  0.00  0.00    +0.000 A 
ATOM     13  C   UNL     1       1.428   2.155  19.960  0.00  0.00    +0.000 A 
BRANCH   8  14
ATOM     14  O   UNL     1       0.917   2.478  22.242  0.00  0.00    +0.000 OA
ATOM     15  H   UNL     1       1.439   1.678  22.420  0.00  0.00    +0.000 HD
ENDBRANCH   8  14
ENDBRANCH   7  11
ENDBRANCH   1   7
BRANCH   4  16
ATOM     16  C   UNL     1       8.024   6.848  18.365  0.00  0.00    +0.000 C 
BRANCH  16  17
ATOM     17  C   UNL     1       8.184   8.285  18.080  0.00  0.00    +0.000 C 
ATOM     18  C   UNL     1       8.518   9.438  18.118  0.00  0.00    +0.000 C 
BRANCH  18  19
ATOM     19  C   UNL     1       9.082  10.695  18.505  0.00  0.00    +0.000 A 
ATOM     20  C   UNL     1       9.861  10.798  19.659  0.00  0.00    +0.000 A 
ATOM     21  C   UNL     1      10.293  12.051  20.098  0.00  0.00    +0.000 A 
ATOM     22  C   UNL     1       9.940  13.201  19.389  0.00  0.00    +0.000 A 
ATOM     23  C   UNL     1       9.145  13.101  18.249  0.00  0.00    +0.000 A 
ATOM     24  C   UNL     1       8.713  11.849  17.809  0.00  0.00    +0.000 A 
ENDBRANCH  18  19
ENDBRANCH  16  17
ENDBRANCH   4  16
TORSDOF 6
ENDMDL
MODEL 6
REMARK VINA RESULT:      -8.3      1.255      2.211
REMARK  Name = 
REMARK  6 active torsions:
REMARK  status: ('A' for Active; 'I' for Inactive)
REMARK    1  A    between atoms: O_1  and  C_2
REMARK    2  A    between atoms: C_5  and  C_6
REMARK    3  A    between atoms: C_6  and  C_7
REMARK    4  A    between atoms: N_10  and  C_11
REMARK    5  A    between atoms: C_11  and  C_12
REMARK    6  A    between atoms: C_13  and  C_14
REMARK                            x       y       z     vdW  Elec       q    Type
REMARK                         _______ _______ _______ _____ _____    ______ ____
ROOT
ATOM      1  C   UNL     1       4.153   4.845  17.343  0.00  0.00    +0.000 C 
ATOM      2  C   UNL     1       4.066   6.374  17.405  0.00  0.00    +0.000 C 
ATOM      3  C   UNL     1       5.440   6.929  17.065  0.00  0.00    +0.000 C 
ATOM      4  N   UNL     1       6.501   6.436  17.966  0.00  0.00    +0.000 NA
ATOM      5  C   UNL     1       6.500   4.972  18.130  0.00  0.00    +0.000 C 
ATOM      6  C   UNL     1       5.100   4.415  18.466  0.00  0.00    +0.000 C 
ENDROOT
BRANCH   1   7
ATOM      7  C   UNL     1       2.771   4.181  17.297  0.00  0.00    +0.000 C 
BRANCH   7  11
ATOM      8  C   UNL     1       1.390   2.864  21.175  0.00  0.00    +0.000 A 
ATOM      9  C   UNL     1       1.894   1.933  20.276  0.00  0.00    +0.000 A 
ATOM     10  C   UNL     1       2.403   2.373  19.054  0.00  0.00    +0.000 A 
ATOM     11  C   UNL     1       2.375   3.737  18.701  0.00  0.00    +0.000 A 
ATOM     12  C   UNL     1       1.877   4.658  19.632  0.00  0.00    +0.000 A 
ATOM     13  C   UNL     1       1.389   4.219  20.868  0.00  0.00    +0.000 A 
BRANCH   8  14
ATOM     14  O   UNL     1       0.878   2.478  22.379  0.00  0.00    +0.000 OA
ATOM     15  H   UNL     1       0.056   1.985  22.219  0.00  0.00    +0.000 HD
ENDBRANCH   8  14
ENDBRANCH   7  11
ENDBRANCH   1   7
BRANCH   4  16
ATOM     16  C   UNL     1       7.833   6.950  17.562  0.00  0.00    +0.000 C 
BRANCH  16  17
ATOM     17  C   UNL     1       7.970   8.403  17.767  0.00  0.00    +0.000 C 
ATOM     18  C   UNL     1       8.371   9.490  18.083  0.00  0.00    +0.000 C 
BRANCH  18  19
ATOM     19  C   UNL     1       9.121  10.569  18.649  0.00  0.00    +0.000 A 
ATOM     20  C   UNL     1       9.541  10.518  19.980  0.00  0.00    +0.000 A 
ATOM     21  C   UNL     1      10.155  11.632  20.559  0.00  0.00    +0.000 A 
ATOM     22  C   UNL     1      10.341  12.796  19.811  0.00  0.00    +0.000 A 
ATOM     23  C   UNL     1       9.902  12.854  18.490  0.00  0.00    +0.000 A 
ATOM     24  C   UNL     1       9.289  11.742  17.910  0.00  0.00    +0.000 A 
ENDBRANCH  18  19
ENDBRANCH  16  17
ENDBRANCH   4  16
TORSDOF 6
ENDMDL
MODEL 7
REMARK VINA RESULT:      -8.3      1.119      1.648
REMARK  Name = 
REMARK  6 active torsions:
REMARK  status: ('A' for Active; 'I' for Inactive)
REMARK    1  A    between atoms: O_1  and  C_2
REMARK    2  A    between atoms: C_5  and  C_6
REMARK    3  A    between atoms: C_6  and  C_7
REMARK    4  A    between atoms: N_10  and  C_11
REMARK    5  A    between atoms: C_11  and  C_12
REMARK    6  A    between atoms: C_13  and  C_14
REMARK                            x       y       z     vdW  Elec       q    Type
REMARK                         _______ _______ _______ _____ _____    ______ ____
ROOT
ATOM      1  C   UNL     1       4.146   5.776  17.973  0.00  0.00    +0.000 C 
ATOM      2  C   UNL     1       5.156   4.674  18.316  0.00  0.00    +0.000 C 
ATOM      3  C   UNL     1       6.410   5.348  18.849  0.00  0.00    +0.000 C 
ATOM      4  N   UNL     1       6.999   6.310  17.897  0.00  0.00    +0.000 NA
ATOM      5  C   UNL     1       6.024   7.269  17.350  0.00  0.00    +0.000 C 
ATOM      6  C   UNL     1       4.749   6.578  16.817  0.00  0.00    +0.000 C 
ENDROOT
BRANCH   1   7
ATOM      7  C   UNL     1       2.725   5.228  17.780  0.00  0.00    +0.000 C 
BRANCH   7  11
ATOM      8  C   UNL     1       1.357   3.013  21.230  0.00  0.00    +0.000 A 
ATOM      9  C   UNL     1       1.079   2.536  19.956  0.00  0.00    +0.000 A 
ATOM     10  C   UNL     1       1.584   3.217  18.848  0.00  0.00    +0.000 A 
ATOM     11  C   UNL     1       2.331   4.401  18.999  0.00  0.00    +0.000 A 
ATOM     12  C   UNL     1       2.613   4.853  20.295  0.00  0.00    +0.000 A 
ATOM     13  C   UNL     1       2.127   4.156  21.407  0.00  0.00    +0.000 A 
BRANCH   8  14
ATOM     14  O   UNL     1       0.880   2.381  22.340  0.00  0.00    +0.000 OA
ATOM     15  H   UNL     1       1.104   1.438  22.276  0.00  0.00    +0.000 HD
ENDBRANCH   8  14
ENDBRANCH   7  11
ENDBRANCH   1   7
BRANCH   4  16
ATOM     16  C   UNL     1       8.182   6.990  18.480  0.00  0.00    +0.000 C 
BRANCH  16  17
ATOM     17  C   UNL     1       8.221   8.431  18.174  0.00  0.00    +0.000 C 
ATOM     18  C   UNL     1       8.511   9.596  18.144  0.00  0.00    +0.000 C 
BRANCH  18  19
ATOM     19  C   UNL     1       9.098  10.875  18.404  0.00  0.00    +0.000 A 
ATOM     20  C   UNL     1       8.685  12.003  17.691  0.00  0.00    +0.000 A 
ATOM     21  C   UNL     1       9.356  13.216  17.858  0.00  0.00    +0.000 A 
ATOM     22  C   UNL     1      10.444  13.300  18.729  0.00  0.00    +0.000 A 
ATOM     23  C   UNL     1      10.871  12.169  19.423  0.00  0.00    +0.000 A 
ATOM     24  C   UNL     1      10.201  10.956  19.258  0.00  0.00    +0.000 A 
ENDBRANCH  18  19
ENDBRANCH  16  17
ENDBRANCH   4  16
TORSDOF 6
ENDMDL
MODEL 8
REMARK VINA RESULT:      -8.2      1.300      2.092
REMARK  Name = 
REMARK  6 active torsions:
REMARK  status: ('A' for Active; 'I' for Inactive)
REMARK    1  A    between atoms: O_1  and  C_2
REMARK    2  A    between atoms: C_5  and  C_6
REMARK    3  A    between atoms: C_6  and  C_7
REMARK    4  A    between atoms: N_10  and  C_11
REMARK    5  A    between atoms: C_11  and  C_12
REMARK    6  A    between atoms: C_13  and  C_14
REMARK                            x       y       z     vdW  Elec       q    Type
REMARK                         _______ _______ _______ _____ _____    ______ ____
ROOT
ATOM      1  C   UNL     1       3.784   5.581  17.684  0.00  0.00    +0.000 C 
ATOM      2  C   UNL     1       4.769   4.611  17.019  0.00  0.00    +0.000 C 
ATOM      3  C   UNL     1       6.175   5.070  17.370  0.00  0.00    +0.000 C 
ATOM      4  N   UNL     1       6.453   6.458  16.948  0.00  0.00    +0.000 NA
ATOM      5  C   UNL     1       5.417   7.418  17.366  0.00  0.00    +0.000 C 
ATOM      6  C   UNL     1       3.991   6.942  17.014  0.00  0.00    +0.000 C 
ENDROOT
BRANCH   1   7
ATOM      7  C   UNL     1       2.354   5.028  17.722  0.00  0.00    +0.000 C 
BRANCH   7  11
ATOM      8  C   UNL     1       1.521   2.861  21.368  0.00  0.00    +0.000 A 
ATOM      9  C   UNL     1       1.193   2.293  20.144  0.00  0.00    +0.000 A 
ATOM     10  C   UNL     1       1.528   2.965  18.969  0.00  0.00    +0.000 A 
ATOM     11  C   UNL     1       2.153   4.227  19.004  0.00  0.00    +0.000 A 
ATOM     12  C   UNL     1       2.488   4.772  20.250  0.00  0.00    +0.000 A 
ATOM     13  C   UNL     1       2.174   4.086  21.428  0.00  0.00    +0.000 A 
BRANCH   8  14
ATOM     14  O   UNL     1       1.208   2.241  22.541  0.00  0.00    +0.000 OA
ATOM     15  H   UNL     1       1.422   2.844  23.273  0.00  0.00    +0.000 HD
ENDBRANCH   8  14
ENDBRANCH   7  11
ENDBRANCH   1   7
BRANCH   4  16
ATOM     16  C   UNL     1       7.811   6.886  17.364  0.00  0.00    +0.000 C 
BRANCH  16  17
ATOM     17  C   UNL     1       7.877   8.316  17.714  0.00  0.00    +0.000 C 
ATOM     18  C   UNL     1       8.255   9.402  18.057  0.00  0.00    +0.000 C 
BRANCH  18  19
ATOM     19  C   UNL     1       9.036  10.495  18.551  0.00  0.00    +0.000 A 
ATOM     20  C   UNL     1       9.623  10.432  19.817  0.00  0.00    +0.000 A 
ATOM     21  C   UNL     1      10.269  11.554  20.342  0.00  0.00    +0.000 A 
ATOM     22  C   UNL     1      10.321  12.739  19.606  0.00  0.00    +0.000 A 
ATOM     23  C   UNL     1       9.716  12.809  18.352  0.00  0.00    +0.000 A 
ATOM     24  C   UNL     1       9.071  11.689  17.826  0.00  0.00    +0.000 A 
ENDBRANCH  18  19
ENDBRANCH  16  17
ENDBRANCH   4  16
TORSDOF 6
ENDMDL
MODEL 9
REMARK VINA RESULT:      -8.1      1.098      1.826
REMARK  Name = 
REMARK  6 active torsions:
REMARK  status: ('A' for Active; 'I' for Inactive)
REMARK    1  A    between atoms: O_1  and  C_2
REMARK    2  A    between atoms: C_5  and  C_6
REMARK    3  A    between atoms: C_6  and  C_7
REMARK    4  A    between atoms: N_10  and  C_11
REMARK    5  A    between atoms: C_11  and  C_12
REMARK    6  A    between atoms: C_13  and  C_14
REMARK                            x       y       z     vdW  Elec       q    Type
REMARK                         _______ _______ _______ _____ _____    ______ ____
ROOT
ATOM      1  C   UNL     1       4.417   4.724  17.369  0.00  0.00    +0.000 C 
ATOM      2  C   UNL     1       4.388   6.231  17.090  0.00  0.00    +0.000 C 
ATOM      3  C   UNL     1       5.826   6.724  17.065  0.00  0.00    +0.000 C 
ATOM      4  N   UNL     1       6.556   6.445  18.318  0.00  0.00    +0.000 NA
ATOM      5  C   UNL     1       6.437   5.047  18.769  0.00  0.00    +0.000 C 
ATOM      6  C   UNL     1       4.975   4.551  18.784  0.00  0.00    +0.000 C 
ENDROOT
BRANCH   1   7
ATOM      7  C   UNL     1       3.078   4.044  17.055  0.00  0.00    +0.000 C 
BRANCH   7  11
ATOM      8  C   UNL     1       1.382   2.979  20.885  0.00  0.00    +0.000 A 
ATOM      9  C   UNL     1       1.225   4.272  20.403  0.00  0.00    +0.000 A 
ATOM     10  C   UNL     1       1.714   4.590  19.136  0.00  0.00    +0.000 A 
ATOM     11  C   UNL     1       2.398   3.636  18.358  0.00  0.00    +0.000 A 
ATOM     12  C   UNL     1       2.529   2.335  18.859  0.00  0.00    +0.000 A 
ATOM     13  C   UNL     1       2.018   2.009  20.120  0.00  0.00    +0.000 A 
BRANCH   8  14
ATOM     14  O   UNL     1       0.925   2.625  22.120  0.00  0.00    +0.000 OA
ATOM     15  H   UNL     1       1.667   2.672  22.746  0.00  0.00    +0.000 HD
ENDBRANCH   8  14
ENDBRANCH   7  11
ENDBRANCH   1   7
BRANCH   4  16
ATOM     16  C   UNL     1       7.970   6.884  18.228  0.00  0.00    +0.000 C 
BRANCH  16  17
ATOM     17  C   UNL     1       8.106   8.342  18.068  0.00  0.00    +0.000 C 
ATOM     18  C   UNL     1       8.472   9.482  18.156  0.00  0.00    +0.000 C 
BRANCH  18  19
ATOM     19  C   UNL     1       9.137  10.687  18.547  0.00  0.00    +0.000 A 
ATOM     20  C   UNL     1       9.889  10.733  19.723  0.00  0.00    +0.000 A 
ATOM     21  C   UNL     1      10.422  11.948  20.162  0.00  0.00    +0.000 A 
ATOM     22  C   UNL     1      10.196  13.116  19.431  0.00  0.00    +0.000 A 
ATOM     23  C   UNL     1       9.428  13.074  18.269  0.00  0.00    +0.000 A 
ATOM     24  C   UNL     1       8.896  11.861  17.828  0.00  0.00    +0.000 A 
ENDBRANCH  18  19
ENDBRANCH  16  17
ENDBRANCH   4  16
TORSDOF 6
ENDMDL
