MODEL 1
REMARK VINA RESULT:      -7.1      0.000      0.000
REMARK  Name = 
REMARK  11 active torsions:
REMARK  status: ('A' for Active; 'I' for Inactive)
REMARK    1  A    between atoms: C_1  and  C_2
REMARK    2  A    between atoms: C_5  and  C_6
REMARK    3  A    between atoms: C_7  and  N_8
REMARK    4  A    between atoms: N_11  and  C_12
REMARK    5  A    between atoms: N_11  and  C_13
REMARK    6  A    between atoms: C_13  and  C_14
REMARK    7  A    between atoms: N_27  and  C_28
REMARK    8  A    between atoms: C_28  and  C_29
REMARK    9  A    between atoms: C_28  and  C_30
REMARK   10  A    between atoms: C_30  and  O_31
REMARK   11  A    between atoms: C_33  and  C_34
REMARK                            x       y       z     vdW  Elec       q    Type
REMARK                         _______ _______ _______ _____ _____    ______ ____
ROOT
ATOM      1  C   UNL     1       2.534   7.176  19.325  0.00  0.00    +0.000 C 
ATOM      2  O   UNL     1       3.602   6.422  18.668  0.00  0.00    +0.000 OA
ATOM      3  C   UNL     1       3.875   6.752  17.305  0.00  0.00    +0.000 C 
ATOM      4  C   UNL     1       5.144   6.149  16.829  0.00  0.00    +0.000 A 
ATOM      5  C   UNL     1       6.238   6.822  16.313  0.00  0.00    +0.000 A 
ATOM      6  N   UNL     1       7.165   5.944  15.858  0.00  0.00    +0.000 NA
ATOM      7  N   UNL     1       6.694   4.726  16.060  0.00  0.00    +0.000 NA
ATOM      8  N   UNL     1       5.464   4.832  16.613  0.00  0.00    +0.000 N 
ATOM      9  C   UNL     1       4.776   3.590  16.899  0.00  0.00    +0.000 C 
ATOM     10  C   UNL     1       3.262   3.658  16.916  0.00  0.00    +0.000 C 
ATOM     11  C   UNL     1       2.617   2.418  17.525  0.00  0.00    +0.000 C 
ATOM     12  C   UNL     1       1.759   2.754  18.726  0.00  0.00    +0.000 C 
ATOM     13  O   UNL     1       0.678   2.209  18.941  0.00  0.00    +0.000 OA
ATOM     14  N   UNL     1       2.288   3.774  19.554  0.00  0.00    +0.000 N 
ATOM     15  C   UNL     1       1.297   4.866  19.684  0.00  0.00    +0.000 C 
ATOM     16  C   UNL     1       1.744   6.210  20.300  0.00  0.00    +0.000 C 
ATOM     17  C   UNL     1       0.522   6.875  20.960  0.00  0.00    +0.000 C 
ENDROOT
BRANCH  14  18
ATOM     18  C   UNL     1       3.015   3.334  20.788  0.00  0.00    +0.000 C 
ATOM     19  C   UNL     1       2.086   2.877  21.934  0.00  0.00    +0.000 C 
BRANCH  18  20
ATOM     20  C   UNL     1       3.977   2.142  20.534  0.00  0.00    +0.000 C 
BRANCH  20  21
ATOM     21  O   UNL     1       5.217   2.489  19.945  0.00  0.00    +0.000 OA
ATOM     22  H   UNL     1       5.693   3.031  20.609  0.00  0.00    +0.000 HD
ENDBRANCH  20  21
ENDBRANCH  18  20
ENDBRANCH  14  18
BRANCH   1  23
ATOM     23  C   UNL     1       1.587   8.044  18.425  0.00  0.00    +0.000 C 
BRANCH  23  27
ATOM     24  N   UNL     1       0.786  11.574  19.120  0.00  0.00    +0.000 N 
ATOM     25  C   UNL     1       0.800  10.210  19.273  0.00  0.00    +0.000 C 
ATOM     26  O   UNL     1      -0.028   9.587  19.932  0.00  0.00    +0.000 OA
ATOM     27  N   UNL     1       1.749   9.517  18.514  0.00  0.00    +0.000 N 
ATOM     28  C   UNL     1       2.929  10.091  17.864  0.00  0.00    +0.000 C 
ATOM     29  H   UNL     1       1.325  11.978  18.376  0.00  0.00    +0.000 HD
BRANCH  24  36
ATOM     30  C   UNL     1       1.497  13.919  21.152  0.00  0.00    +0.000 C 
ATOM     31  C   UNL     1       0.179  13.497  20.630  0.00  0.00    +0.000 A 
ATOM     32  N   UNL     1      -0.912  14.168  21.010  0.00  0.00    +0.000 NA
ATOM     33  O   UNL     1      -1.958  13.571  20.347  0.00  0.00    +0.000 OA
ATOM     34  C   UNL     1      -1.510  12.539  19.579  0.00  0.00    +0.000 A 
ATOM     35  C   UNL     1      -2.578  11.840  18.842  0.00  0.00    +0.000 C 
ATOM     36  C   UNL     1      -0.137  12.447  19.709  0.00  0.00    +0.000 A 
ENDBRANCH  24  36
ENDBRANCH  23  27
ENDBRANCH   1  23
TORSDOF 6
ENDMDL
MODEL 2
REMARK VINA RESULT:      -7.1      0.364      1.393
REMARK  Name = 
REMARK  11 active torsions:
REMARK  status: ('A' for Active; 'I' for Inactive)
REMARK    1  A    between atoms: C_1  and  C_2
REMARK    2  A    between atoms: C_5  and  C_6
REMARK    3  A    between atoms: C_7  and  N_8
REMARK    4  A    between atoms: N_11  and  C_12
REMARK    5  A    between atoms: N_11  and  C_13
REMARK    6  A    between atoms: C_13  and  C_14
REMARK    7  A    between atoms: N_27  and  C_28
REMARK    8  A    between atoms: C_28  and  C_29
REMARK    9  A    between atoms: C_28  and  C_30
REMARK   10  A    between atoms: C_30  and  O_31
REMARK   11  A    between atoms: C_33  and  C_34
REMARK                            x       y       z     vdW  Elec       q    Type
REMARK                         _______ _______ _______ _____ _____    ______ ____
ROOT
ATOM      1  C   UNL     1       2.551   7.152  19.311  0.00  0.00    +0.000 C 
ATOM      2  O   UNL     1       3.631   6.405  18.666  0.00  0.00    +0.000 OA
ATOM      3  C   UNL     1       3.911   6.732  17.303  0.00  0.00    +0.000 C 
ATOM      4  C   UNL     1       5.189   6.140  16.840  0.00  0.00    +0.000 A 
ATOM      5  C   UNL     1       6.280   6.822  16.328  0.00  0.00    +0.000 A 
ATOM      6  N   UNL     1       7.220   5.951  15.885  0.00  0.00    +0.000 NA
ATOM      7  N   UNL     1       6.760   4.729  16.089  0.00  0.00    +0.000 NA
ATOM      8  N   UNL     1       5.525   4.825  16.632  0.00  0.00    +0.000 N 
ATOM      9  C   UNL     1       4.848   3.578  16.919  0.00  0.00    +0.000 C 
ATOM     10  C   UNL     1       3.332   3.630  16.924  0.00  0.00    +0.000 C 
ATOM     11  C   UNL     1       2.696   2.386  17.535  0.00  0.00    +0.000 C 
ATOM     12  C   UNL     1       1.826   2.719  18.728  0.00  0.00    +0.000 C 
ATOM     13  O   UNL     1       0.749   2.163  18.937  0.00  0.00    +0.000 OA
ATOM     14  N   UNL     1       2.338   3.748  19.555  0.00  0.00    +0.000 N 
ATOM     15  C   UNL     1       1.335   4.830  19.672  0.00  0.00    +0.000 C 
ATOM     16  C   UNL     1       1.763   6.181  20.285  0.00  0.00    +0.000 C 
ATOM     17  C   UNL     1       0.529   6.837  20.933  0.00  0.00    +0.000 C 
ENDROOT
BRANCH  14  18
ATOM     18  C   UNL     1       3.060   3.321  20.797  0.00  0.00    +0.000 C 
ATOM     19  C   UNL     1       2.127   2.964  21.973  0.00  0.00    +0.000 C 
BRANCH  18  20
ATOM     20  C   UNL     1       3.953   2.070  20.580  0.00  0.00    +0.000 C 
BRANCH  20  21
ATOM     21  O   UNL     1       5.212   2.328  19.984  0.00  0.00    +0.000 OA
ATOM     22  H   UNL     1       5.508   3.194  20.338  0.00  0.00    +0.000 HD
ENDBRANCH  20  21
ENDBRANCH  18  20
ENDBRANCH  14  18
BRANCH   1  23
ATOM     23  C   UNL     1       1.600   8.005  18.400  0.00  0.00    +0.000 C 
BRANCH  23  27
ATOM     24  N   UNL     1       0.814  11.539  19.088  0.00  0.00    +0.000 N 
ATOM     25  C   UNL     1       0.838  10.177  19.255  0.00  0.00    +0.000 C 
ATOM     26  O   UNL     1       0.038   9.558  19.951  0.00  0.00    +0.000 OA
ATOM     27  N   UNL     1       1.761   9.479  18.468  0.00  0.00    +0.000 N 
ATOM     28  C   UNL     1       2.914  10.050  17.768  0.00  0.00    +0.000 C 
ATOM     29  H   UNL     1       1.323  11.937  18.321  0.00  0.00    +0.000 HD
BRANCH  24  36
ATOM     30  C   UNL     1      -2.306  11.701  18.476  0.00  0.00    +0.000 C 
ATOM     31  C   UNL     1      -1.493  12.496  19.422  0.00  0.00    +0.000 A 
ATOM     32  N   UNL     1      -2.096  13.419  20.176  0.00  0.00    +0.000 NA
ATOM     33  O   UNL     1      -1.103  13.958  20.960  0.00  0.00    +0.000 OA
ATOM     34  C   UNL     1       0.096  13.375  20.678  0.00  0.00    +0.000 A 
ATOM     35  C   UNL     1       1.217  13.909  21.474  0.00  0.00    +0.000 C 
ATOM     36  C   UNL     1      -0.090  12.415  19.702  0.00  0.00    +0.000 A 
ENDBRANCH  24  36
ENDBRANCH  23  27
ENDBRANCH   1  23
TORSDOF 6
ENDMDL
MODEL 3
REMARK VINA RESULT:      -6.8      1.373      1.874
REMARK  Name = 
REMARK  11 active torsions:
REMARK  status: ('A' for Active; 'I' for Inactive)
REMARK    1  A    between atoms: C_1  and  C_2
REMARK    2  A    between atoms: C_5  and  C_6
REMARK    3  A    between atoms: C_7  and  N_8
REMARK    4  A    between atoms: N_11  and  C_12
REMARK    5  A    between atoms: N_11  and  C_13
REMARK    6  A    between atoms: C_13  and  C_14
REMARK    7  A    between atoms: N_27  and  C_28
REMARK    8  A    between atoms: C_28  and  C_29
REMARK    9  A    between atoms: C_28  and  C_30
REMARK   10  A    between atoms: C_30  and  O_31
REMARK   11  A    between atoms: C_33  and  C_34
REMARK                            x       y       z     vdW  Elec       q    Type
REMARK                         _______ _______ _______ _____ _____    ______ ____
ROOT
ATOM      1  C   UNL     1       2.708   7.029  19.850  0.00  0.00    +0.000 C 
ATOM      2  O   UNL     1       3.812   6.406  19.119  0.00  0.00    +0.000 OA
ATOM      3  C   UNL     1       4.188   7.018  17.884  0.00  0.00    +0.000 C 
ATOM      4  C   UNL     1       5.481   6.498  17.376  0.00  0.00    +0.000 A 
ATOM      5  C   UNL     1       6.618   7.236  17.097  0.00  0.00    +0.000 A 
ATOM      6  N   UNL     1       7.566   6.453  16.526  0.00  0.00    +0.000 NA
ATOM      7  N   UNL     1       7.066   5.234  16.422  0.00  0.00    +0.000 NA
ATOM      8  N   UNL     1       5.800   5.251  16.898  0.00  0.00    +0.000 N 
ATOM      9  C   UNL     1       5.078   3.997  16.856  0.00  0.00    +0.000 C 
ATOM     10  C   UNL     1       3.567   4.102  16.783  0.00  0.00    +0.000 C 
ATOM     11  C   UNL     1       2.864   2.778  17.058  0.00  0.00    +0.000 C 
ATOM     12  C   UNL     1       1.925   2.867  18.242  0.00  0.00    +0.000 C 
ATOM     13  O   UNL     1       0.824   2.319  18.256  0.00  0.00    +0.000 OA
ATOM     14  N   UNL     1       2.404   3.667  19.309  0.00  0.00    +0.000 N 
ATOM     15  C   UNL     1       1.419   4.731  19.606  0.00  0.00    +0.000 C 
ATOM     16  C   UNL     1       1.836   5.895  20.532  0.00  0.00    +0.000 C 
ATOM     17  C   UNL     1       0.577   6.434  21.236  0.00  0.00    +0.000 C 
ENDROOT
BRANCH  14  18
ATOM     18  C   UNL     1       3.032   2.948  20.463  0.00  0.00    +0.000 C 
ATOM     19  C   UNL     1       2.015   2.366  21.469  0.00  0.00    +0.000 C 
BRANCH  18  20
ATOM     20  C   UNL     1       3.913   1.747  20.024  0.00  0.00    +0.000 C 
BRANCH  20  21
ATOM     21  O   UNL     1       5.272   2.061  19.776  0.00  0.00    +0.000 OA
ATOM     22  H   UNL     1       5.272   2.923  19.308  0.00  0.00    +0.000 HD
ENDBRANCH  20  21
ENDBRANCH  18  20
ENDBRANCH  14  18
BRANCH   1  23
ATOM     23  C   UNL     1       1.839   8.098  19.099  0.00  0.00    +0.000 C 
BRANCH  23  27
ATOM     24  N   UNL     1       1.060  11.620  19.855  0.00  0.00    +0.000 N 
ATOM     25  C   UNL     1       1.138  10.451  19.141  0.00  0.00    +0.000 C 
ATOM     26  O   UNL     1       1.063  10.391  17.916  0.00  0.00    +0.000 OA
ATOM     27  N   UNL     1       1.450   9.303  19.875  0.00  0.00    +0.000 N 
ATOM     28  C   UNL     1       1.357   9.148  21.329  0.00  0.00    +0.000 C 
ATOM     29  H   UNL     1       1.381  11.623  20.806  0.00  0.00    +0.000 HD
BRANCH  24  36
ATOM     30  C   UNL     1      -1.710  13.188  19.817  0.00  0.00    +0.000 C 
ATOM     31  C   UNL     1      -0.393  13.597  19.282  0.00  0.00    +0.000 A 
ATOM     32  N   UNL     1      -0.273  14.796  18.705  0.00  0.00    +0.000 NA
ATOM     33  O   UNL     1       1.049  14.898  18.344  0.00  0.00    +0.000 OA
ATOM     34  C   UNL     1       1.726  13.767  18.689  0.00  0.00    +0.000 A 
ATOM     35  C   UNL     1       3.155  13.796  18.324  0.00  0.00    +0.000 C 
ATOM     36  C   UNL     1       0.854  12.893  19.309  0.00  0.00    +0.000 A 
ENDBRANCH  24  36
ENDBRANCH  23  27
ENDBRANCH   1  23
TORSDOF 6
ENDMDL
MODEL 4
REMARK VINA RESULT:      -6.6      1.347      1.519
REMARK  Name = 
REMARK  11 active torsions:
REMARK  status: ('A' for Active; 'I' for Inactive)
REMARK    1  A    between atoms: C_1  and  C_2
REMARK    2  A    between atoms: C_5  and  C_6
REMARK    3  A    between atoms: C_7  and  N_8
REMARK    4  A    between atoms: N_11  and  C_12
REMARK    5  A    between atoms: N_11  and  C_13
REMARK    6  A    between atoms: C_13  and  C_14
REMARK    7  A    between atoms: N_27  and  C_28
REMARK    8  A    between atoms: C_28  and  C_29
REMARK    9  A    between atoms: C_28  and  C_30
REMARK   10  A    between atoms: C_30  and  O_31
REMARK   11  A    between atoms: C_33  and  C_34
REMARK                            x       y       z     vdW  Elec       q    Type
REMARK                         _______ _______ _______ _____ _____    ______ ____
ROOT
ATOM      1  C   UNL     1       2.815   6.776  19.781  0.00  0.00    +0.000 C 
ATOM      2  O   UNL     1       4.008   6.353  19.048  0.00  0.00    +0.000 OA
ATOM      3  C   UNL     1       4.351   7.113  17.888  0.00  0.00    +0.000 C 
ATOM      4  C   UNL     1       5.712   6.793  17.394  0.00  0.00    +0.000 A 
ATOM      5  C   UNL     1       6.762   7.679  17.229  0.00  0.00    +0.000 A 
ATOM      6  N   UNL     1       7.814   7.064  16.634  0.00  0.00    +0.000 NA
ATOM      7  N   UNL     1       7.465   5.810  16.405  0.00  0.00    +0.000 NA
ATOM      8  N   UNL     1       6.192   5.639  16.825  0.00  0.00    +0.000 N 
ATOM      9  C   UNL     1       5.624   4.319  16.644  0.00  0.00    +0.000 C 
ATOM     10  C   UNL     1       4.115   4.257  16.514  0.00  0.00    +0.000 C 
ATOM     11  C   UNL     1       3.565   2.841  16.645  0.00  0.00    +0.000 C 
ATOM     12  C   UNL     1       2.583   2.714  17.790  0.00  0.00    +0.000 C 
ATOM     13  O   UNL     1       1.554   2.045  17.709  0.00  0.00    +0.000 OA
ATOM     14  N   UNL     1       2.928   3.464  18.941  0.00  0.00    +0.000 N 
ATOM     15  C   UNL     1       1.815   4.377  19.285  0.00  0.00    +0.000 C 
ATOM     16  C   UNL     1       2.061   5.493  20.325  0.00  0.00    +0.000 C 
ATOM     17  C   UNL     1       0.724   5.818  21.017  0.00  0.00    +0.000 C 
ENDROOT
BRANCH  14  18
ATOM     18  C   UNL     1       3.598   2.720  20.055  0.00  0.00    +0.000 C 
ATOM     19  C   UNL     1       2.630   2.223  21.150  0.00  0.00    +0.000 C 
BRANCH  18  20
ATOM     20  C   UNL     1       4.359   1.457  19.571  0.00  0.00    +0.000 C 
BRANCH  20  21
ATOM     21  O   UNL     1       5.449   1.066  20.387  0.00  0.00    +0.000 OA
ATOM     22  H   UNL     1       6.151   1.736  20.245  0.00  0.00    +0.000 HD
ENDBRANCH  20  21
ENDBRANCH  18  20
ENDBRANCH  14  18
BRANCH   1  23
ATOM     23  C   UNL     1       1.851   7.802  19.088  0.00  0.00    +0.000 C 
BRANCH  23  27
ATOM     24  N   UNL     1       0.766  11.220  19.941  0.00  0.00    +0.000 N 
ATOM     25  C   UNL     1       0.900  10.062  19.215  0.00  0.00    +0.000 C 
ATOM     26  O   UNL     1       0.707   9.988  18.005  0.00  0.00    +0.000 OA
ATOM     27  N   UNL     1       1.412   8.960  19.907  0.00  0.00    +0.000 N 
ATOM     28  C   UNL     1       1.486   8.804  21.361  0.00  0.00    +0.000 C 
ATOM     29  H   UNL     1       1.180  11.263  20.853  0.00  0.00    +0.000 HD
BRANCH  24  36
ATOM     30  C   UNL     1       2.715  13.474  18.823  0.00  0.00    +0.000 C 
ATOM     31  C   UNL     1       1.240  13.478  18.930  0.00  0.00    +0.000 A 
ATOM     32  N   UNL     1       0.562  14.543  18.493  0.00  0.00    +0.000 NA
ATOM     33  O   UNL     1      -0.765  14.241  18.694  0.00  0.00    +0.000 OA
ATOM     34  C   UNL     1      -0.893  13.008  19.259  0.00  0.00    +0.000 A 
ATOM     35  C   UNL     1      -2.290  12.615  19.515  0.00  0.00    +0.000 C 
ATOM     36  C   UNL     1       0.364  12.458  19.426  0.00  0.00    +0.000 A 
ENDBRANCH  24  36
ENDBRANCH  23  27
ENDBRANCH   1  23
TORSDOF 6
ENDMDL
MODEL 5
REMARK VINA RESULT:      -6.5      1.444      2.095
REMARK  Name = 
REMARK  11 active torsions:
REMARK  status: ('A' for Active; 'I' for Inactive)
REMARK    1  A    between atoms: C_1  and  C_2
REMARK    2  A    between atoms: C_5  and  C_6
REMARK    3  A    between atoms: C_7  and  N_8
REMARK    4  A    between atoms: N_11  and  C_12
REMARK    5  A    between atoms: N_11  and  C_13
REMARK    6  A    between atoms: C_13  and  C_14
REMARK    7  A    between atoms: N_27  and  C_28
REMARK    8  A    between atoms: C_28  and  C_29
REMARK    9  A    between atoms: C_28  and  C_30
REMARK   10  A    between atoms: C_30  and  O_31
REMARK   11  A    between atoms: C_33  and  C_34
REMARK                            x       y       z     vdW  Elec       q    Type
REMARK                         _______ _______ _______ _____ _____    ______ ____
ROOT
ATOM      1  C   UNL     1       2.711   6.698  19.794  0.00  0.00    +0.000 C 
ATOM      2  O   UNL     1       3.825   6.105  19.054  0.00  0.00    +0.000 OA
ATOM      3  C   UNL     1       4.213   6.761  17.846  0.00  0.00    +0.000 C 
ATOM      4  C   UNL     1       5.513   6.263  17.335  0.00  0.00    +0.000 A 
ATOM      5  C   UNL     1       6.651   7.013  17.095  0.00  0.00    +0.000 A 
ATOM      6  N   UNL     1       7.608   6.253  16.508  0.00  0.00    +0.000 NA
ATOM      7  N   UNL     1       7.113   5.037  16.356  0.00  0.00    +0.000 NA
ATOM      8  N   UNL     1       5.842   5.034  16.817  0.00  0.00    +0.000 N 
ATOM      9  C   UNL     1       5.124   3.781  16.722  0.00  0.00    +0.000 C 
ATOM     10  C   UNL     1       3.614   3.884  16.636  0.00  0.00    +0.000 C 
ATOM     11  C   UNL     1       2.912   2.549  16.856  0.00  0.00    +0.000 C 
ATOM     12  C   UNL     1       1.959   2.594  18.032  0.00  0.00    +0.000 C 
ATOM     13  O   UNL     1       0.859   2.043  18.014  0.00  0.00    +0.000 OA
ATOM     14  N   UNL     1       2.423   3.357  19.131  0.00  0.00    +0.000 N 
ATOM     15  C   UNL     1       1.432   4.407  19.455  0.00  0.00    +0.000 C 
ATOM     16  C   UNL     1       1.835   5.539  20.426  0.00  0.00    +0.000 C 
ATOM     17  C   UNL     1       0.566   6.049  21.134  0.00  0.00    +0.000 C 
ENDROOT
BRANCH  14  18
ATOM     18  C   UNL     1       3.041   2.599  20.267  0.00  0.00    +0.000 C 
ATOM     19  C   UNL     1       4.581   2.696  20.322  0.00  0.00    +0.000 C 
BRANCH  18  20
ATOM     20  C   UNL     1       2.546   3.078  21.658  0.00  0.00    +0.000 C 
BRANCH  20  21
ATOM     21  O   UNL     1       1.440   2.361  22.179  0.00  0.00    +0.000 OA
ATOM     22  H   UNL     1       1.806   1.534  22.557  0.00  0.00    +0.000 HD
ENDBRANCH  20  21
ENDBRANCH  18  20
ENDBRANCH  14  18
BRANCH   1  23
ATOM     23  C   UNL     1       1.847   7.791  19.072  0.00  0.00    +0.000 C 
BRANCH  23  27
ATOM     24  N   UNL     1       1.080  11.312  19.844  0.00  0.00    +0.000 N 
ATOM     25  C   UNL     1       1.112  10.133  19.142  0.00  0.00    +0.000 C 
ATOM     26  O   UNL     1       0.928  10.052  17.931  0.00  0.00    +0.000 OA
ATOM     27  N   UNL     1       1.510   9.002  19.862  0.00  0.00    +0.000 N 
ATOM     28  C   UNL     1       1.552   8.869  21.320  0.00  0.00    +0.000 C 
ATOM     29  H   UNL     1       1.486  11.335  20.761  0.00  0.00    +0.000 HD
BRANCH  24  36
ATOM     30  C   UNL     1      -1.798  12.663  19.682  0.00  0.00    +0.000 C 
ATOM     31  C   UNL     1      -0.492  13.179  19.218  0.00  0.00    +0.000 A 
ATOM     32  N   UNL     1      -0.437  14.391  18.658  0.00  0.00    +0.000 NA
ATOM     33  O   UNL     1       0.890  14.599  18.364  0.00  0.00    +0.000 OA
ATOM     34  C   UNL     1       1.634  13.519  18.731  0.00  0.00    +0.000 A 
ATOM     35  C   UNL     1       3.072  13.662  18.438  0.00  0.00    +0.000 C 
ATOM     36  C   UNL     1       0.803  12.572  19.299  0.00  0.00    +0.000 A 
ENDBRANCH  24  36
ENDBRANCH  23  27
ENDBRANCH   1  23
TORSDOF 6
ENDMDL
MODEL 6
REMARK VINA RESULT:      -6.4      1.381      1.679
REMARK  Name = 
REMARK  11 active torsions:
REMARK  status: ('A' for Active; 'I' for Inactive)
REMARK    1  A    between atoms: C_1  and  C_2
REMARK    2  A    between atoms: C_5  and  C_6
REMARK    3  A    between atoms: C_7  and  N_8
REMARK    4  A    between atoms: N_11  and  C_12
REMARK    5  A    between atoms: N_11  and  C_13
REMARK    6  A    between atoms: C_13  and  C_14
REMARK    7  A    between atoms: N_27  and  C_28
REMARK    8  A    between atoms: C_28  and  C_29
REMARK    9  A    between atoms: C_28  and  C_30
REMARK   10  A    between atoms: C_30  and  O_31
REMARK   11  A    between atoms: C_33  and  C_34
REMARK                            x       y       z     vdW  Elec       q    Type
REMARK                         _______ _______ _______ _____ _____    ______ ____
ROOT
ATOM      1  C   UNL     1       2.732   6.706  19.809  0.00  0.00    +0.000 C 
ATOM      2  O   UNL     1       3.835   6.105  19.059  0.00  0.00    +0.000 OA
ATOM      3  C   UNL     1       4.225   6.765  17.854  0.00  0.00    +0.000 C 
ATOM      4  C   UNL     1       5.517   6.256  17.332  0.00  0.00    +0.000 A 
ATOM      5  C   UNL     1       6.662   6.995  17.092  0.00  0.00    +0.000 A 
ATOM      6  N   UNL     1       7.606   6.227  16.493  0.00  0.00    +0.000 NA
ATOM      7  N   UNL     1       7.096   5.019  16.335  0.00  0.00    +0.000 NA
ATOM      8  N   UNL     1       5.828   5.027  16.804  0.00  0.00    +0.000 N 
ATOM      9  C   UNL     1       5.095   3.783  16.704  0.00  0.00    +0.000 C 
ATOM     10  C   UNL     1       3.585   3.905  16.626  0.00  0.00    +0.000 C 
ATOM     11  C   UNL     1       2.869   2.576  16.841  0.00  0.00    +0.000 C 
ATOM     12  C   UNL     1       1.923   2.624  18.021  0.00  0.00    +0.000 C 
ATOM     13  O   UNL     1       0.817   2.086  18.006  0.00  0.00    +0.000 OA
ATOM     14  N   UNL     1       2.402   3.373  19.124  0.00  0.00    +0.000 N 
ATOM     15  C   UNL     1       1.425   4.433  19.460  0.00  0.00    +0.000 C 
ATOM     16  C   UNL     1       1.846   5.553  20.437  0.00  0.00    +0.000 C 
ATOM     17  C   UNL     1       0.587   6.073  21.156  0.00  0.00    +0.000 C 
ENDROOT
BRANCH  14  18
ATOM     18  C   UNL     1       3.017   2.600  20.250  0.00  0.00    +0.000 C 
ATOM     19  C   UNL     1       4.559   2.662  20.285  0.00  0.00    +0.000 C 
BRANCH  18  20
ATOM     20  C   UNL     1       2.551   3.089  21.648  0.00  0.00    +0.000 C 
BRANCH  20  21
ATOM     21  O   UNL     1       1.457   2.376  22.198  0.00  0.00    +0.000 OA
ATOM     22  H   UNL     1       1.842   1.605  22.666  0.00  0.00    +0.000 HD
ENDBRANCH  20  21
ENDBRANCH  18  20
ENDBRANCH  14  18
BRANCH   1  23
ATOM     23  C   UNL     1       1.878   7.814  19.099  0.00  0.00    +0.000 C 
BRANCH  23  27
ATOM     24  N   UNL     1       0.891  11.262  19.953  0.00  0.00    +0.000 N 
ATOM     25  C   UNL     1       0.969  10.091  19.240  0.00  0.00    +0.000 C 
ATOM     26  O   UNL     1       0.711  10.001  18.043  0.00  0.00    +0.000 OA
ATOM     27  N   UNL     1       1.501   8.992  19.922  0.00  0.00    +0.000 N 
ATOM     28  C   UNL     1       1.650   8.858  21.372  0.00  0.00    +0.000 C 
ATOM     29  H   UNL     1       1.354  11.313  20.841  0.00  0.00    +0.000 HD
BRANCH  24  36
ATOM     30  C   UNL     1       2.774  13.368  18.486  0.00  0.00    +0.000 C 
ATOM     31  C   UNL     1       1.328  13.452  18.786  0.00  0.00    +0.000 A 
ATOM     32  N   UNL     1       0.647  14.532  18.395  0.00  0.00    +0.000 NA
ATOM     33  O   UNL     1      -0.652  14.307  18.783  0.00  0.00    +0.000 OA
ATOM     34  C   UNL     1      -0.760  13.105  19.415  0.00  0.00    +0.000 A 
ATOM     35  C   UNL     1      -2.127  12.795  19.871  0.00  0.00    +0.000 C 
ATOM     36  C   UNL     1       0.481  12.498  19.439  0.00  0.00    +0.000 A 
ENDBRANCH  24  36
ENDBRANCH  23  27
ENDBRANCH   1  23
TORSDOF 6
ENDMDL
MODEL 7
REMARK VINA RESULT:      -6.4      5.678      8.970
REMARK  Name = 
REMARK  11 active torsions:
REMARK  status: ('A' for Active; 'I' for Inactive)
REMARK    1  A    between atoms: C_1  and  C_2
REMARK    2  A    between atoms: C_5  and  C_6
REMARK    3  A    between atoms: C_7  and  N_8
REMARK    4  A    between atoms: N_11  and  C_12
REMARK    5  A    between atoms: N_11  and  C_13
REMARK    6  A    between atoms: C_13  and  C_14
REMARK    7  A    between atoms: N_27  and  C_28
REMARK    8  A    between atoms: C_28  and  C_29
REMARK    9  A    between atoms: C_28  and  C_30
REMARK   10  A    between atoms: C_30  and  O_31
REMARK   11  A    between atoms: C_33  and  C_34
REMARK                            x       y       z     vdW  Elec       q    Type
REMARK                         _______ _______ _______ _____ _____    ______ ____
ROOT
ATOM      1  C   UNL     1       1.453  14.322  21.170  0.00  0.00    +0.000 C 
ATOM      2  O   UNL     1       1.094  13.042  20.559  0.00  0.00    +0.000 OA
ATOM      3  C   UNL     1       1.369  12.897  19.165  0.00  0.00    +0.000 C 
ATOM      4  C   UNL     1       1.243  11.490  18.715  0.00  0.00    +0.000 A 
ATOM      5  C   UNL     1       2.223  10.722  18.110  0.00  0.00    +0.000 A 
ATOM      6  N   UNL     1       1.717   9.528  17.716  0.00  0.00    +0.000 NA
ATOM      7  N   UNL     1       0.436   9.510  18.044  0.00  0.00    +0.000 NA
ATOM      8  N   UNL     1       0.127  10.696  18.615  0.00  0.00    +0.000 N 
ATOM      9  C   UNL     1      -1.248  10.871  19.034  0.00  0.00    +0.000 C 
ATOM     10  C   UNL     1      -1.751  12.300  19.083  0.00  0.00    +0.000 C 
ATOM     11  C   UNL     1      -3.078  12.439  19.822  0.00  0.00    +0.000 C 
ATOM     12  C   UNL     1      -2.973  13.374  21.008  0.00  0.00    +0.000 C 
ATOM     13  O   UNL     1      -3.860  14.174  21.301  0.00  0.00    +0.000 OA
ATOM     14  N   UNL     1      -1.754  13.276  21.723  0.00  0.00    +0.000 N 
ATOM     15  C   UNL     1      -1.107  14.606  21.776  0.00  0.00    +0.000 C 
ATOM     16  C   UNL     1       0.360  14.703  22.251  0.00  0.00    +0.000 C 
ATOM     17  C   UNL     1       0.579  16.093  22.877  0.00  0.00    +0.000 C 
ENDROOT
BRANCH  14  18
ATOM     18  C   UNL     1      -1.769  12.451  22.974  0.00  0.00    +0.000 C 
ATOM     19  C   UNL     1      -3.183  12.183  23.532  0.00  0.00    +0.000 C 
BRANCH  18  20
ATOM     20  C   UNL     1      -1.126  11.051  22.786  0.00  0.00    +0.000 C 
BRANCH  20  21
ATOM     21  O   UNL     1       0.203  11.064  22.295  0.00  0.00    +0.000 OA
ATOM     22  H   UNL     1       0.187  10.559  21.454  0.00  0.00    +0.000 HD
ENDBRANCH  20  21
ENDBRANCH  18  20
ENDBRANCH  14  18
BRANCH   1  23
ATOM     23  C   UNL     1       1.811  15.516  20.217  0.00  0.00    +0.000 C 
BRANCH  23  27
ATOM     24  N   UNL     1       5.469  15.867  20.503  0.00  0.00    +0.000 N 
ATOM     25  C   UNL     1       4.258  15.399  20.056  0.00  0.00    +0.000 C 
ATOM     26  O   UNL     1       4.112  14.326  19.477  0.00  0.00    +0.000 OA
ATOM     27  N   UNL     1       3.137  16.153  20.418  0.00  0.00    +0.000 N 
ATOM     28  C   UNL     1       3.138  17.535  20.901  0.00  0.00    +0.000 C 
ATOM     29  H   UNL     1       5.475  16.608  21.180  0.00  0.00    +0.000 HD
BRANCH  24  36
ATOM     30  C   UNL     1       6.896  14.030  22.675  0.00  0.00    +0.000 C 
ATOM     31  C   UNL     1       7.348  14.401  21.316  0.00  0.00    +0.000 A 
ATOM     32  N   UNL     1       8.506  13.911  20.863  0.00  0.00    +0.000 NA
ATOM     33  O   UNL     1       8.636  14.401  19.585  0.00  0.00    +0.000 OA
ATOM     34  C   UNL     1       7.573  15.190  19.267  0.00  0.00    +0.000 A 
ATOM     35  C   UNL     1       7.644  15.763  17.910  0.00  0.00    +0.000 C 
ATOM     36  C   UNL     1       6.700  15.221  20.337  0.00  0.00    +0.000 A 
ENDBRANCH  24  36
ENDBRANCH  23  27
ENDBRANCH   1  23
TORSDOF 6
ENDMDL
MODEL 8
REMARK VINA RESULT:      -6.3      8.088     11.306
REMARK  Name = 
REMARK  11 active torsions:
REMARK  status: ('A' for Active; 'I' for Inactive)
REMARK    1  A    between atoms: C_1  and  C_2
REMARK    2  A    between atoms: C_5  and  C_6
REMARK    3  A    between atoms: C_7  and  N_8
REMARK    4  A    between atoms: N_11  and  C_12
REMARK    5  A    between atoms: N_11  and  C_13
REMARK    6  A    between atoms: C_13  and  C_14
REMARK    7  A    between atoms: N_27  and  C_28
REMARK    8  A    between atoms: C_28  and  C_29
REMARK    9  A    between atoms: C_28  and  C_30
REMARK   10  A    between atoms: C_30  and  O_31
REMARK   11  A    between atoms: C_33  and  C_34
REMARK                            x       y       z     vdW  Elec       q    Type
REMARK                         _______ _______ _______ _____ _____    ______ ____
ROOT
ATOM      1  C   UNL     1       7.842  14.425  19.983  0.00  0.00    +0.000 C 
ATOM      2  O   UNL     1       8.926  14.869  20.860  0.00  0.00    +0.000 OA
ATOM      3  C   UNL     1       8.647  15.983  21.710  0.00  0.00    +0.000 C 
ATOM      4  C   UNL     1       9.690  16.165  22.749  0.00  0.00    +0.000 A 
ATOM      5  C   UNL     1       9.501  16.171  24.120  0.00  0.00    +0.000 A 
ATOM      6  N   UNL     1      10.653  16.496  24.758  0.00  0.00    +0.000 NA
ATOM      7  N   UNL     1      11.574  16.707  23.834  0.00  0.00    +0.000 NA
ATOM      8  N   UNL     1      11.003  16.546  22.619  0.00  0.00    +0.000 N 
ATOM      9  C   UNL     1      11.860  16.751  21.471  0.00  0.00    +0.000 C 
ATOM     10  C   UNL     1      11.169  17.181  20.192  0.00  0.00    +0.000 C 
ATOM     11  C   UNL     1      12.065  17.072  18.964  0.00  0.00    +0.000 C 
ATOM     12  C   UNL     1      11.486  16.146  17.916  0.00  0.00    +0.000 C 
ATOM     13  O   UNL     1      11.544  16.391  16.712  0.00  0.00    +0.000 OA
ATOM     14  N   UNL     1      10.838  15.001  18.442  0.00  0.00    +0.000 N 
ATOM     15  C   UNL     1       9.445  14.953  17.946  0.00  0.00    +0.000 C 
ATOM     16  C   UNL     1       8.455  13.962  18.598  0.00  0.00    +0.000 C 
ATOM     17  C   UNL     1       7.388  13.581  17.555  0.00  0.00    +0.000 C 
ENDROOT
BRANCH  14  18
ATOM     18  C   UNL     1      11.625  13.726  18.455  0.00  0.00    +0.000 C 
ATOM     19  C   UNL     1      11.364  12.841  19.692  0.00  0.00    +0.000 C 
BRANCH  18  20
ATOM     20  C   UNL     1      11.333  12.820  17.229  0.00  0.00    +0.000 C 
BRANCH  20  21
ATOM     21  O   UNL     1      11.898  13.265  16.008  0.00  0.00    +0.000 OA
ATOM     22  H   UNL     1      12.854  13.052  16.056  0.00  0.00    +0.000 HD
ENDBRANCH  20  21
ENDBRANCH  18  20
ENDBRANCH  14  18
BRANCH   1  23
ATOM     23  C   UNL     1       6.599  15.367  19.816  0.00  0.00    +0.000 C 
BRANCH  23  27
ATOM     24  N   UNL     1       2.990  14.700  20.165  0.00  0.00    +0.000 N 
ATOM     25  C   UNL     1       4.210  14.861  19.556  0.00  0.00    +0.000 C 
ATOM     26  O   UNL     1       4.351  15.086  18.357  0.00  0.00    +0.000 OA
ATOM     27  N   UNL     1       5.321  14.893  20.405  0.00  0.00    +0.000 N 
ATOM     28  C   UNL     1       5.366  14.432  21.795  0.00  0.00    +0.000 C 
ATOM     29  H   UNL     1       2.941  14.776  21.164  0.00  0.00    +0.000 HD
BRANCH  24  36
ATOM     30  C   UNL     1       1.320  12.153  19.240  0.00  0.00    +0.000 C 
ATOM     31  C   UNL     1       0.999  13.590  19.093  0.00  0.00    +0.000 A 
ATOM     32  N   UNL     1      -0.153  13.940  18.514  0.00  0.00    +0.000 NA
ATOM     33  O   UNL     1      -0.178  15.314  18.550  0.00  0.00    +0.000 OA
ATOM     34  C   UNL     1       0.954  15.797  19.135  0.00  0.00    +0.000 A 
ATOM     35  C   UNL     1       1.006  17.269  19.201  0.00  0.00    +0.000 C 
ATOM     36  C   UNL     1       1.749  14.734  19.518  0.00  0.00    +0.000 A 
ENDBRANCH  24  36
ENDBRANCH  23  27
ENDBRANCH   1  23
TORSDOF 6
ENDMDL
MODEL 9
REMARK VINA RESULT:      -6.3      5.600      8.962
REMARK  Name = 
REMARK  11 active torsions:
REMARK  status: ('A' for Active; 'I' for Inactive)
REMARK    1  A    between atoms: C_1  and  C_2
REMARK    2  A    between atoms: C_5  and  C_6
REMARK    3  A    between atoms: C_7  and  N_8
REMARK    4  A    between atoms: N_11  and  C_12
REMARK    5  A    between atoms: N_11  and  C_13
REMARK    6  A    between atoms: C_13  and  C_14
REMARK    7  A    between atoms: N_27  and  C_28
REMARK    8  A    between atoms: C_28  and  C_29
REMARK    9  A    between atoms: C_28  and  C_30
REMARK   10  A    between atoms: C_30  and  O_31
REMARK   11  A    between atoms: C_33  and  C_34
REMARK                            x       y       z     vdW  Elec       q    Type
REMARK                         _______ _______ _______ _____ _____    ______ ____
ROOT
ATOM      1  C   UNL     1       1.612  14.266  21.031  0.00  0.00    +0.000 C 
ATOM      2  O   UNL     1       1.228  12.983  20.441  0.00  0.00    +0.000 OA
ATOM      3  C   UNL     1       1.493  12.814  19.047  0.00  0.00    +0.000 C 
ATOM      4  C   UNL     1       1.341  11.403  18.618  0.00  0.00    +0.000 A 
ATOM      5  C   UNL     1       2.305  10.611  18.019  0.00  0.00    +0.000 A 
ATOM      6  N   UNL     1       1.776   9.419  17.645  0.00  0.00    +0.000 NA
ATOM      7  N   UNL     1       0.498   9.427  17.980  0.00  0.00    +0.000 NA
ATOM      8  N   UNL     1       0.211  10.626  18.536  0.00  0.00    +0.000 N 
ATOM      9  C   UNL     1      -1.158  10.830  18.960  0.00  0.00    +0.000 C 
ATOM     10  C   UNL     1      -1.637  12.268  18.992  0.00  0.00    +0.000 C 
ATOM     11  C   UNL     1      -2.957  12.439  19.736  0.00  0.00    +0.000 C 
ATOM     12  C   UNL     1      -2.830  13.389  20.909  0.00  0.00    +0.000 C 
ATOM     13  O   UNL     1      -3.702  14.208  21.195  0.00  0.00    +0.000 OA
ATOM     14  N   UNL     1      -1.608  13.281  21.618  0.00  0.00    +0.000 N 
ATOM     15  C   UNL     1      -0.939  14.600  21.647  0.00  0.00    +0.000 C 
ATOM     16  C   UNL     1       0.532  14.680  22.113  0.00  0.00    +0.000 C 
ATOM     17  C   UNL     1       0.778  16.075  22.718  0.00  0.00    +0.000 C 
ENDROOT
BRANCH  14  18
ATOM     18  C   UNL     1      -1.629  12.475  22.881  0.00  0.00    +0.000 C 
ATOM     19  C   UNL     1      -3.045  12.224  23.442  0.00  0.00    +0.000 C 
BRANCH  18  20
ATOM     20  C   UNL     1      -0.996  11.067  22.713  0.00  0.00    +0.000 C 
BRANCH  20  21
ATOM     21  O   UNL     1       0.330  11.063  22.213  0.00  0.00    +0.000 OA
ATOM     22  H   UNL     1       0.916  11.124  22.996  0.00  0.00    +0.000 HD
ENDBRANCH  20  21
ENDBRANCH  18  20
ENDBRANCH  14  18
BRANCH   1  23
ATOM     23  C   UNL     1       1.984  15.440  20.059  0.00  0.00    +0.000 C 
BRANCH  23  27
ATOM     24  N   UNL     1       5.639  15.748  20.427  0.00  0.00    +0.000 N 
ATOM     25  C   UNL     1       4.432  15.269  19.980  0.00  0.00    +0.000 C 
ATOM     26  O   UNL     1       4.281  14.159  19.476  0.00  0.00    +0.000 OA
ATOM     27  N   UNL     1       3.316  16.067  20.252  0.00  0.00    +0.000 N 
ATOM     28  C   UNL     1       3.331  17.481  20.633  0.00  0.00    +0.000 C 
ATOM     29  H   UNL     1       5.640  16.537  21.047  0.00  0.00    +0.000 HD
BRANCH  24  36
ATOM     30  C   UNL     1       7.493  15.588  17.844  0.00  0.00    +0.000 C 
ATOM     31  C   UNL     1       7.693  14.990  19.182  0.00  0.00    +0.000 A 
ATOM     32  N   UNL     1       8.803  14.284  19.416  0.00  0.00    +0.000 NA
ATOM     33  O   UNL     1       8.718  13.891  20.730  0.00  0.00    +0.000 OA
ATOM     34  C   UNL     1       7.561  14.344  21.289  0.00  0.00    +0.000 A 
ATOM     35  C   UNL     1       7.392  13.954  22.701  0.00  0.00    +0.000 C 
ATOM     36  C   UNL     1       6.861  15.070  20.345  0.00  0.00    +0.000 A 
ENDBRANCH  24  36
ENDBRANCH  23  27
ENDBRANCH   1  23
TORSDOF 6
ENDMDL
