MODEL 1
REMARK VINA RESULT:      -8.2      0.000      0.000
REMARK  Name = 
REMARK  8 active torsions:
REMARK  status: ('A' for Active; 'I' for Inactive)
REMARK    1  A    between atoms: C_1  and  N_2
REMARK    2  A    between atoms: C_3  and  S_4
REMARK    3  A    between atoms: S_4  and  C_5
REMARK    4  A    between atoms: C_5  and  C_6
REMARK    5  A    between atoms: C_6  and  C_7
REMARK    6  A    between atoms: C_7  and  N_8
REMARK    7  A    between atoms: N_13  and  C_14
REMARK    8  A    between atoms: C_27  and  C_28
REMARK                            x       y       z     vdW  Elec       q    Type
REMARK                         _______ _______ _______ _____ _____    ______ ____
ROOT
ATOM      1  N   UNL     1       2.096   5.224  19.337  0.00  0.00    +0.000 NA
ATOM      2  C   UNL     1       1.896   3.840  18.886  0.00  0.00    +0.000 C 
ATOM      3  C   UNL     1       3.249   3.113  18.849  0.00  0.00    +0.000 C 
ATOM      4  C   UNL     1       3.716   2.684  17.467  0.00  0.00    +0.000 C 
ATOM      5  C   UNL     1       4.414   3.909  16.899  0.00  0.00    +0.000 C 
ATOM      6  N   UNL     1       4.952   4.593  18.075  0.00  0.00    +0.000 N 
ATOM      7  C   UNL     1       4.287   4.138  19.318  0.00  0.00    +0.000 C 
ATOM      8  C   UNL     1       3.406   5.176  20.036  0.00  0.00    +0.000 C 
ENDROOT
BRANCH   6   9
ATOM      9  C   UNL     1       5.857   5.639  17.997  0.00  0.00    +0.000 A 
ATOM     10  C   UNL     1       7.009   5.715  18.813  0.00  0.00    +0.000 A 
ATOM     11  F   UNL     1       7.260   4.771  19.735  0.00  0.00    +0.000 F 
ATOM     12  C   UNL     1       7.956   6.735  18.700  0.00  0.00    +0.000 A 
ATOM     13  C   UNL     1       7.773   7.728  17.756  0.00  0.00    +0.000 A 
ATOM     14  F   UNL     1       8.690   8.694  17.623  0.00  0.00    +0.000 F 
ATOM     15  C   UNL     1       6.649   7.733  16.953  0.00  0.00    +0.000 A 
ATOM     16  C   UNL     1       5.707   6.712  17.090  0.00  0.00    +0.000 A 
ATOM     17  F   UNL     1       4.622   6.792  16.303  0.00  0.00    +0.000 F 
ENDBRANCH   6   9
BRANCH   1  18
ATOM     18  C   UNL     1       2.119   6.255  18.287  0.00  0.00    +0.000 C 
BRANCH  18  19
ATOM     19  C   UNL     1       2.457   7.708  18.682  0.00  0.00    +0.000 C 
BRANCH  19  20
ATOM     20  C   UNL     1       1.519   8.277  19.748  0.00  0.00    +0.000 C 
BRANCH  20  21
ATOM     21  S   UNL     1       0.791   9.897  19.252  0.00  0.00    +0.000 S 
BRANCH  21  24
ATOM     22  C   UNL     1      -1.366  12.287  20.028  0.00  0.00    +0.000 C 
ATOM     23  N   UNL     1      -0.708  11.455  20.997  0.00  0.00    +0.000 N 
ATOM     24  C   UNL     1       0.246  10.483  20.795  0.00  0.00    +0.000 A 
ATOM     25  N   UNL     1       0.695  10.069  21.956  0.00  0.00    +0.000 NA
ATOM     26  N   UNL     1       0.010  10.740  22.935  0.00  0.00    +0.000 NA
ATOM     27  C   UNL     1      -0.876  11.538  22.370  0.00  0.00    +0.000 A 
BRANCH  27  28
ATOM     28  C   UNL     1      -1.836  12.373  23.086  0.00  0.00    +0.000 A 
ATOM     29  C   UNL     1      -1.525  13.675  23.472  0.00  0.00    +0.000 A 
ATOM     30  N   UNL     1      -2.383  14.469  24.163  0.00  0.00    +0.000 NA
ATOM     31  C   UNL     1      -3.563  13.897  24.484  0.00  0.00    +0.000 A 
ATOM     32  C   UNL     1      -3.877  12.598  24.120  0.00  0.00    +0.000 A 
ATOM     33  N   UNL     1      -3.034  11.813  23.403  0.00  0.00    +0.000 NA
ENDBRANCH  27  28
ENDBRANCH  21  24
ENDBRANCH  20  21
ENDBRANCH  19  20
ENDBRANCH  18  19
ENDBRANCH   1  18
TORSDOF 7
ENDMDL
MODEL 2
REMARK VINA RESULT:      -8.1      0.595      1.695
REMARK  Name = 
REMARK  8 active torsions:
REMARK  status: ('A' for Active; 'I' for Inactive)
REMARK    1  A    between atoms: C_1  and  N_2
REMARK    2  A    between atoms: C_3  and  S_4
REMARK    3  A    between atoms: S_4  and  C_5
REMARK    4  A    between atoms: C_5  and  C_6
REMARK    5  A    between atoms: C_6  and  C_7
REMARK    6  A    between atoms: C_7  and  N_8
REMARK    7  A    between atoms: N_13  and  C_14
REMARK    8  A    between atoms: C_27  and  C_28
REMARK                            x       y       z     vdW  Elec       q    Type
REMARK                         _______ _______ _______ _____ _____    ______ ____
ROOT
ATOM      1  N   UNL     1       2.118   5.050  19.381  0.00  0.00    +0.000 NA
ATOM      2  C   UNL     1       1.927   3.634  19.037  0.00  0.00    +0.000 C 
ATOM      3  C   UNL     1       3.287   2.918  19.041  0.00  0.00    +0.000 C 
ATOM      4  C   UNL     1       3.745   2.392  17.691  0.00  0.00    +0.000 C 
ATOM      5  C   UNL     1       4.427   3.576  17.027  0.00  0.00    +0.000 C 
ATOM      6  N   UNL     1       4.969   4.351  18.143  0.00  0.00    +0.000 N 
ATOM      7  C   UNL     1       4.319   3.985  19.423  0.00  0.00    +0.000 C 
ATOM      8  C   UNL     1       3.435   5.065  20.070  0.00  0.00    +0.000 C 
ENDROOT
BRANCH   6   9
ATOM      9  C   UNL     1       5.863   5.396  17.979  0.00  0.00    +0.000 A 
ATOM     10  C   UNL     1       5.701   6.391  16.989  0.00  0.00    +0.000 A 
ATOM     11  F   UNL     1       4.669   6.344  16.130  0.00  0.00    +0.000 F 
ATOM     12  C   UNL     1       6.564   7.481  16.854  0.00  0.00    +0.000 A 
ATOM     13  C   UNL     1       7.635   7.606  17.719  0.00  0.00    +0.000 A 
ATOM     14  F   UNL     1       8.452   8.662  17.615  0.00  0.00    +0.000 F 
ATOM     15  C   UNL     1       7.872   6.648  18.686  0.00  0.00    +0.000 A 
ATOM     16  C   UNL     1       7.006   5.559  18.795  0.00  0.00    +0.000 A 
ATOM     17  F   UNL     1       7.309   4.647  19.733  0.00  0.00    +0.000 F 
ENDBRANCH   6   9
BRANCH   1  18
ATOM     18  C   UNL     1       2.122   6.000  18.257  0.00  0.00    +0.000 C 
BRANCH  18  19
ATOM     19  C   UNL     1       2.544   7.460  18.523  0.00  0.00    +0.000 C 
BRANCH  19  20
ATOM     20  C   UNL     1       1.775   8.110  19.675  0.00  0.00    +0.000 C 
BRANCH  20  21
ATOM     21  S   UNL     1       0.971   9.693  19.178  0.00  0.00    +0.000 S 
BRANCH  21  24
ATOM     22  C   UNL     1      -0.798  12.369  20.001  0.00  0.00    +0.000 C 
ATOM     23  N   UNL     1      -0.350  11.382  20.944  0.00  0.00    +0.000 N 
ATOM     24  C   UNL     1       0.437  10.274  20.727  0.00  0.00    +0.000 A 
ATOM     25  N   UNL     1       0.737   9.724  21.879  0.00  0.00    +0.000 NA
ATOM     26  N   UNL     1       0.116  10.445  22.864  0.00  0.00    +0.000 NA
ATOM     27  C   UNL     1      -0.587  11.414  22.310  0.00  0.00    +0.000 A 
BRANCH  27  28
ATOM     28  C   UNL     1      -1.435  12.359  23.030  0.00  0.00    +0.000 A 
ATOM     29  C   UNL     1      -2.787  12.107  23.247  0.00  0.00    +0.000 A 
ATOM     30  N   UNL     1      -3.611  12.976  23.888  0.00  0.00    +0.000 NA
ATOM     31  C   UNL     1      -3.033  14.131  24.281  0.00  0.00    +0.000 A 
ATOM     32  C   UNL     1      -1.693  14.399  24.058  0.00  0.00    +0.000 A 
ATOM     33  N   UNL     1      -0.861  13.520  23.444  0.00  0.00    +0.000 NA
ENDBRANCH  27  28
ENDBRANCH  21  24
ENDBRANCH  20  21
ENDBRANCH  19  20
ENDBRANCH  18  19
ENDBRANCH   1  18
TORSDOF 7
ENDMDL
MODEL 3
REMARK VINA RESULT:      -8.0      2.043      4.105
REMARK  Name = 
REMARK  8 active torsions:
REMARK  status: ('A' for Active; 'I' for Inactive)
REMARK    1  A    between atoms: C_1  and  N_2
REMARK    2  A    between atoms: C_3  and  S_4
REMARK    3  A    between atoms: S_4  and  C_5
REMARK    4  A    between atoms: C_5  and  C_6
REMARK    5  A    between atoms: C_6  and  C_7
REMARK    6  A    between atoms: C_7  and  N_8
REMARK    7  A    between atoms: N_13  and  C_14
REMARK    8  A    between atoms: C_27  and  C_28
REMARK                            x       y       z     vdW  Elec       q    Type
REMARK                         _______ _______ _______ _____ _____    ______ ____
ROOT
ATOM      1  N   UNL     1       5.112   7.029  16.622  0.00  0.00    +0.000 NA
ATOM      2  C   UNL     1       6.546   6.865  16.896  0.00  0.00    +0.000 C 
ATOM      3  C   UNL     1       6.854   5.378  17.135  0.00  0.00    +0.000 C 
ATOM      4  C   UNL     1       7.329   5.032  18.537  0.00  0.00    +0.000 C 
ATOM      5  C   UNL     1       6.053   4.846  19.341  0.00  0.00    +0.000 C 
ATOM      6  N   UNL     1       5.079   4.361  18.362  0.00  0.00    +0.000 N 
ATOM      7  C   UNL     1       5.518   4.644  16.976  0.00  0.00    +0.000 C 
ATOM      8  C   UNL     1       4.682   5.673  16.195  0.00  0.00    +0.000 C 
ENDROOT
BRANCH   6   9
ATOM      9  C   UNL     1       3.841   3.848  18.713  0.00  0.00    +0.000 A 
ATOM     10  C   UNL     1       2.951   4.525  19.576  0.00  0.00    +0.000 A 
ATOM     11  F   UNL     1       3.289   5.703  20.127  0.00  0.00    +0.000 F 
ATOM     12  C   UNL     1       1.677   4.043  19.888  0.00  0.00    +0.000 A 
ATOM     13  C   UNL     1       1.253   2.848  19.339  0.00  0.00    +0.000 A 
ATOM     14  F   UNL     1       0.024   2.392  19.611  0.00  0.00    +0.000 F 
ATOM     15  C   UNL     1       2.090   2.118  18.516  0.00  0.00    +0.000 A 
ATOM     16  C   UNL     1       3.364   2.610  18.228  0.00  0.00    +0.000 A 
ATOM     17  F   UNL     1       4.139   1.838  17.449  0.00  0.00    +0.000 F 
ENDBRANCH   6   9
BRANCH   1  18
ATOM     18  C   UNL     1       4.282   7.496  17.745  0.00  0.00    +0.000 C 
BRANCH  18  19
ATOM     19  C   UNL     1       2.857   8.007  17.450  0.00  0.00    +0.000 C 
BRANCH  19  20
ATOM     20  C   UNL     1       2.091   8.417  18.710  0.00  0.00    +0.000 C 
BRANCH  20  21
ATOM     21  S   UNL     1       0.864   9.753  18.384  0.00  0.00    +0.000 S 
BRANCH  21  24
ATOM     22  C   UNL     1      -0.816  12.373  19.515  0.00  0.00    +0.000 C 
ATOM     23  N   UNL     1      -0.233  11.368  20.360  0.00  0.00    +0.000 N 
ATOM     24  C   UNL     1       0.534  10.281  20.007  0.00  0.00    +0.000 A 
ATOM     25  N   UNL     1       0.992   9.704  21.091  0.00  0.00    +0.000 NA
ATOM     26  N   UNL     1       0.498  10.385  22.172  0.00  0.00    +0.000 NA
ATOM     27  C   UNL     1      -0.286  11.357  21.745  0.00  0.00    +0.000 A 
BRANCH  27  28
ATOM     28  C   UNL     1      -1.043  12.266  22.600  0.00  0.00    +0.000 A 
ATOM     29  C   UNL     1      -2.368  12.010  22.945  0.00  0.00    +0.000 A 
ATOM     30  N   UNL     1      -3.110  12.847  23.715  0.00  0.00    +0.000 NA
ATOM     31  C   UNL     1      -2.482  13.976  24.105  0.00  0.00    +0.000 A 
ATOM     32  C   UNL     1      -1.170  14.250  23.756  0.00  0.00    +0.000 A 
ATOM     33  N   UNL     1      -0.416  13.400  23.012  0.00  0.00    +0.000 NA
ENDBRANCH  27  28
ENDBRANCH  21  24
ENDBRANCH  20  21
ENDBRANCH  19  20
ENDBRANCH  18  19
ENDBRANCH   1  18
TORSDOF 7
ENDMDL
MODEL 4
REMARK VINA RESULT:      -7.8      1.021      1.047
REMARK  Name = 
REMARK  8 active torsions:
REMARK  status: ('A' for Active; 'I' for Inactive)
REMARK    1  A    between atoms: C_1  and  N_2
REMARK    2  A    between atoms: C_3  and  S_4
REMARK    3  A    between atoms: S_4  and  C_5
REMARK    4  A    between atoms: C_5  and  C_6
REMARK    5  A    between atoms: C_6  and  C_7
REMARK    6  A    between atoms: C_7  and  N_8
REMARK    7  A    between atoms: N_13  and  C_14
REMARK    8  A    between atoms: C_27  and  C_28
REMARK                            x       y       z     vdW  Elec       q    Type
REMARK                         _______ _______ _______ _____ _____    ______ ____
ROOT
ATOM      1  N   UNL     1       2.172   4.157  20.374  0.00  0.00    +0.000 NA
ATOM      2  C   UNL     1       1.788   2.878  19.761  0.00  0.00    +0.000 C 
ATOM      3  C   UNL     1       3.015   2.248  19.082  0.00  0.00    +0.000 C 
ATOM      4  C   UNL     1       2.925   2.122  17.570  0.00  0.00    +0.000 C 
ATOM      5  C   UNL     1       3.387   3.471  17.043  0.00  0.00    +0.000 C 
ATOM      6  N   UNL     1       4.339   3.942  18.049  0.00  0.00    +0.000 N 
ATOM      7  C   UNL     1       4.175   3.218  19.331  0.00  0.00    +0.000 C 
ATOM      8  C   UNL     1       3.646   4.046  20.516  0.00  0.00    +0.000 C 
ENDROOT
BRANCH   6   9
ATOM      9  C   UNL     1       5.172   5.032  17.856  0.00  0.00    +0.000 A 
ATOM     10  C   UNL     1       6.557   4.993  18.132  0.00  0.00    +0.000 A 
ATOM     11  F   UNL     1       7.127   3.884  18.633  0.00  0.00    +0.000 F 
ATOM     12  C   UNL     1       7.414   6.068  17.885  0.00  0.00    +0.000 A 
ATOM     13  C   UNL     1       6.901   7.234  17.349  0.00  0.00    +0.000 A 
ATOM     14  F   UNL     1       7.719   8.259  17.083  0.00  0.00    +0.000 F 
ATOM     15  C   UNL     1       5.548   7.350  17.090  0.00  0.00    +0.000 A 
ATOM     16  C   UNL     1       4.706   6.269  17.357  0.00  0.00    +0.000 A 
ATOM     17  F   UNL     1       3.399   6.457  17.114  0.00  0.00    +0.000 F 
ENDBRANCH   6   9
BRANCH   1  18
ATOM     18  C   UNL     1       1.824   5.372  19.620  0.00  0.00    +0.000 C 
BRANCH  18  19
ATOM     19  C   UNL     1       2.285   6.739  20.165  0.00  0.00    +0.000 C 
BRANCH  19  20
ATOM     20  C   UNL     1       1.168   7.520  20.860  0.00  0.00    +0.000 C 
BRANCH  20  21
ATOM     21  S   UNL     1       0.972   9.223  20.180  0.00  0.00    +0.000 S 
BRANCH  21  24
ATOM     22  C   UNL     1      -1.083  11.816  20.320  0.00  0.00    +0.000 C 
ATOM     23  N   UNL     1      -0.657  11.067  21.469  0.00  0.00    +0.000 N 
ATOM     24  C   UNL     1       0.235  10.021  21.537  0.00  0.00    +0.000 A 
ATOM     25  N   UNL     1       0.457   9.722  22.794  0.00  0.00    +0.000 NA
ATOM     26  N   UNL     1      -0.320  10.546  23.566  0.00  0.00    +0.000 NA
ATOM     27  C   UNL     1      -1.037  11.323  22.778  0.00  0.00    +0.000 A 
BRANCH  27  28
ATOM     28  C   UNL     1      -2.029  12.295  23.228  0.00  0.00    +0.000 A 
ATOM     29  C   UNL     1      -1.721  13.647  23.353  0.00  0.00    +0.000 A 
ATOM     30  N   UNL     1      -2.610  14.573  23.795  0.00  0.00    +0.000 NA
ATOM     31  C   UNL     1      -3.822  14.087  24.140  0.00  0.00    +0.000 A 
ATOM     32  C   UNL     1      -4.135  12.742  24.034  0.00  0.00    +0.000 A 
ATOM     33  N   UNL     1      -3.258  11.820  23.564  0.00  0.00    +0.000 NA
ENDBRANCH  27  28
ENDBRANCH  21  24
ENDBRANCH  20  21
ENDBRANCH  19  20
ENDBRANCH  18  19
ENDBRANCH   1  18
TORSDOF 7
ENDMDL
MODEL 5
REMARK VINA RESULT:      -7.8      2.003      4.103
REMARK  Name = 
REMARK  8 active torsions:
REMARK  status: ('A' for Active; 'I' for Inactive)
REMARK    1  A    between atoms: C_1  and  N_2
REMARK    2  A    between atoms: C_3  and  S_4
REMARK    3  A    between atoms: S_4  and  C_5
REMARK    4  A    between atoms: C_5  and  C_6
REMARK    5  A    between atoms: C_6  and  C_7
REMARK    6  A    between atoms: C_7  and  N_8
REMARK    7  A    between atoms: N_13  and  C_14
REMARK    8  A    between atoms: C_27  and  C_28
REMARK                            x       y       z     vdW  Elec       q    Type
REMARK                         _______ _______ _______ _____ _____    ______ ____
ROOT
ATOM      1  N   UNL     1       5.346   7.308  16.699  0.00  0.00    +0.000 NA
ATOM      2  C   UNL     1       6.756   7.124  17.071  0.00  0.00    +0.000 C 
ATOM      3  C   UNL     1       7.048   5.625  17.247  0.00  0.00    +0.000 C 
ATOM      4  C   UNL     1       7.417   5.199  18.658  0.00  0.00    +0.000 C 
ATOM      5  C   UNL     1       6.084   4.970  19.352  0.00  0.00    +0.000 C 
ATOM      6  N   UNL     1       5.188   4.544  18.278  0.00  0.00    +0.000 N 
ATOM      7  C   UNL     1       5.728   4.905  16.946  0.00  0.00    +0.000 C 
ATOM      8  C   UNL     1       4.951   5.979  16.165  0.00  0.00    +0.000 C 
ENDROOT
BRANCH   6   9
ATOM      9  C   UNL     1       3.928   4.015  18.504  0.00  0.00    +0.000 A 
ATOM     10  C   UNL     1       3.452   2.863  17.838  0.00  0.00    +0.000 A 
ATOM     11  F   UNL     1       4.208   2.241  16.918  0.00  0.00    +0.000 F 
ATOM     12  C   UNL     1       2.207   2.288  18.103  0.00  0.00    +0.000 A 
ATOM     13  C   UNL     1       1.386   2.862  19.055  0.00  0.00    +0.000 A 
ATOM     14  F   UNL     1       0.203   2.302  19.335  0.00  0.00    +0.000 F 
ATOM     15  C   UNL     1       1.775   4.012  19.716  0.00  0.00    +0.000 A 
ATOM     16  C   UNL     1       3.018   4.579  19.427  0.00  0.00    +0.000 A 
ATOM     17  F   UNL     1       3.323   5.712  20.079  0.00  0.00    +0.000 F 
ENDBRANCH   6   9
BRANCH   1  18
ATOM     18  C   UNL     1       4.434   7.711  17.782  0.00  0.00    +0.000 C 
BRANCH  18  19
ATOM     19  C   UNL     1       2.924   7.802  17.482  0.00  0.00    +0.000 C 
BRANCH  19  20
ATOM     20  C   UNL     1       2.097   8.266  18.684  0.00  0.00    +0.000 C 
BRANCH  20  21
ATOM     21  S   UNL     1       1.164   9.817  18.339  0.00  0.00    +0.000 S 
BRANCH  21  24
ATOM     22  C   UNL     1      -0.508  12.448  19.456  0.00  0.00    +0.000 C 
ATOM     23  N   UNL     1      -0.027  11.387  20.296  0.00  0.00    +0.000 N 
ATOM     24  C   UNL     1       0.727  10.288  19.954  0.00  0.00    +0.000 A 
ATOM     25  N   UNL     1       1.080   9.649  21.043  0.00  0.00    +0.000 NA
ATOM     26  N   UNL     1       0.527  10.302  22.112  0.00  0.00    +0.000 NA
ATOM     27  C   UNL     1      -0.188  11.320  21.672  0.00  0.00    +0.000 A 
BRANCH  27  28
ATOM     28  C   UNL     1      -0.978  12.220  22.507  0.00  0.00    +0.000 A 
ATOM     29  C   UNL     1      -2.315  11.961  22.795  0.00  0.00    +0.000 A 
ATOM     30  N   UNL     1      -3.087  12.790  23.544  0.00  0.00    +0.000 NA
ATOM     31  C   UNL     1      -2.474  13.914  23.974  0.00  0.00    +0.000 A 
ATOM     32  C   UNL     1      -1.148  14.189  23.681  0.00  0.00    +0.000 A 
ATOM     33  N   UNL     1      -0.367  13.348  22.958  0.00  0.00    +0.000 NA
ENDBRANCH  27  28
ENDBRANCH  21  24
ENDBRANCH  20  21
ENDBRANCH  19  20
ENDBRANCH  18  19
ENDBRANCH   1  18
TORSDOF 7
ENDMDL
MODEL 6
REMARK VINA RESULT:      -7.8      6.148     10.164
REMARK  Name = 
REMARK  8 active torsions:
REMARK  status: ('A' for Active; 'I' for Inactive)
REMARK    1  A    between atoms: C_1  and  N_2
REMARK    2  A    between atoms: C_3  and  S_4
REMARK    3  A    between atoms: S_4  and  C_5
REMARK    4  A    between atoms: C_5  and  C_6
REMARK    5  A    between atoms: C_6  and  C_7
REMARK    6  A    between atoms: C_7  and  N_8
REMARK    7  A    between atoms: N_13  and  C_14
REMARK    8  A    between atoms: C_27  and  C_28
REMARK                            x       y       z     vdW  Elec       q    Type
REMARK                         _______ _______ _______ _____ _____    ______ ____
ROOT
ATOM      1  N   UNL     1      10.437  11.065  19.544  0.00  0.00    +0.000 NA
ATOM      2  C   UNL     1      11.806  11.561  19.352  0.00  0.00    +0.000 C 
ATOM      3  C   UNL     1      11.860  13.058  19.697  0.00  0.00    +0.000 C 
ATOM      4  C   UNL     1      12.182  13.980  18.531  0.00  0.00    +0.000 C 
ATOM      5  C   UNL     1      10.842  14.234  17.861  0.00  0.00    +0.000 C 
ATOM      6  N   UNL     1       9.871  14.143  18.952  0.00  0.00    +0.000 N 
ATOM      7  C   UNL     1      10.439  13.440  20.125  0.00  0.00    +0.000 C 
ATOM      8  C   UNL     1       9.828  12.067  20.456  0.00  0.00    +0.000 C 
ENDROOT
BRANCH   6   9
ATOM      9  C   UNL     1       8.548  14.532  18.825  0.00  0.00    +0.000 A 
ATOM     10  C   UNL     1       7.684  13.994  17.844  0.00  0.00    +0.000 A 
ATOM     11  F   UNL     1       8.131  13.088  16.959  0.00  0.00    +0.000 F 
ATOM     12  C   UNL     1       6.334  14.336  17.747  0.00  0.00    +0.000 A 
ATOM     13  C   UNL     1       5.800  15.246  18.641  0.00  0.00    +0.000 A 
ATOM     14  F   UNL     1       4.501  15.560  18.572  0.00  0.00    +0.000 F 
ATOM     15  C   UNL     1       6.600  15.838  19.600  0.00  0.00    +0.000 A 
ATOM     16  C   UNL     1       7.950  15.492  19.673  0.00  0.00    +0.000 A 
ATOM     17  F   UNL     1       8.679  16.126  20.605  0.00  0.00    +0.000 F 
ENDBRANCH   6   9
BRANCH   1  18
ATOM     18  C   UNL     1       9.618  10.920  18.330  0.00  0.00    +0.000 C 
BRANCH  18  19
ATOM     19  C   UNL     1       8.337  10.063  18.397  0.00  0.00    +0.000 C 
BRANCH  19  20
ATOM     20  C   UNL     1       8.619   8.559  18.435  0.00  0.00    +0.000 C 
BRANCH  20  21
ATOM     21  S   UNL     1       7.617   7.625  17.201  0.00  0.00    +0.000 S 
BRANCH  21  24
ATOM     22  C   UNL     1       4.493   6.535  17.330  0.00  0.00    +0.000 C 
ATOM     23  N   UNL     1       5.553   6.031  18.157  0.00  0.00    +0.000 N 
ATOM     24  C   UNL     1       6.862   6.448  18.234  0.00  0.00    +0.000 A 
ATOM     25  N   UNL     1       7.458   5.826  19.223  0.00  0.00    +0.000 NA
ATOM     26  N   UNL     1       6.553   4.963  19.782  0.00  0.00    +0.000 NA
ATOM     27  C   UNL     1       5.418   5.037  19.114  0.00  0.00    +0.000 A 
BRANCH  27  28
ATOM     28  C   UNL     1       4.233   4.225  19.373  0.00  0.00    +0.000 A 
ATOM     29  C   UNL     1       4.137   2.910  18.924  0.00  0.00    +0.000 A 
ATOM     30  N   UNL     1       3.039   2.136  19.123  0.00  0.00    +0.000 NA
ATOM     31  C   UNL     1       2.019   2.741  19.767  0.00  0.00    +0.000 A 
ATOM     32  C   UNL     1       2.097   4.053  20.205  0.00  0.00    +0.000 A 
ATOM     33  N   UNL     1       3.204   4.819  20.034  0.00  0.00    +0.000 NA
ENDBRANCH  27  28
ENDBRANCH  21  24
ENDBRANCH  20  21
ENDBRANCH  19  20
ENDBRANCH  18  19
ENDBRANCH   1  18
TORSDOF 7
ENDMDL
MODEL 7
REMARK VINA RESULT:      -7.7      5.948      9.897
REMARK  Name = 
REMARK  8 active torsions:
REMARK  status: ('A' for Active; 'I' for Inactive)
REMARK    1  A    between atoms: C_1  and  N_2
REMARK    2  A    between atoms: C_3  and  S_4
REMARK    3  A    between atoms: S_4  and  C_5
REMARK    4  A    between atoms: C_5  and  C_6
REMARK    5  A    between atoms: C_6  and  C_7
REMARK    6  A    between atoms: C_7  and  N_8
REMARK    7  A    between atoms: N_13  and  C_14
REMARK    8  A    between atoms: C_27  and  C_28
REMARK                            x       y       z     vdW  Elec       q    Type
REMARK                         _______ _______ _______ _____ _____    ______ ____
ROOT
ATOM      1  N   UNL     1      10.088  11.179  20.045  0.00  0.00    +0.000 NA
ATOM      2  C   UNL     1      11.428  11.271  19.450  0.00  0.00    +0.000 C 
ATOM      3  C   UNL     1      11.766  12.745  19.176  0.00  0.00    +0.000 C 
ATOM      4  C   UNL     1      11.927  13.111  17.710  0.00  0.00    +0.000 C 
ATOM      5  C   UNL     1      10.515  13.398  17.227  0.00  0.00    +0.000 C 
ATOM      6  N   UNL     1       9.826  13.903  18.414  0.00  0.00    +0.000 N 
ATOM      7  C   UNL     1      10.552  13.548  19.655  0.00  0.00    +0.000 C 
ATOM      8  C   UNL     1       9.854  12.543  20.587  0.00  0.00    +0.000 C 
ENDROOT
BRANCH   6   9
ATOM      9  C   UNL     1       8.575  14.498  18.370  0.00  0.00    +0.000 A 
ATOM     10  C   UNL     1       7.469  13.905  17.720  0.00  0.00    +0.000 A 
ATOM     11  F   UNL     1       7.598  12.730  17.081  0.00  0.00    +0.000 F 
ATOM     12  C   UNL     1       6.192  14.469  17.721  0.00  0.00    +0.000 A 
ATOM     13  C   UNL     1       5.981  15.665  18.380  0.00  0.00    +0.000 A 
ATOM     14  F   UNL     1       4.754  16.200  18.409  0.00  0.00    +0.000 F 
ATOM     15  C   UNL     1       7.029  16.317  19.003  0.00  0.00    +0.000 A 
ATOM     16  C   UNL     1       8.301  15.743  18.979  0.00  0.00    +0.000 A 
ATOM     17  F   UNL     1       9.281  16.441  19.574  0.00  0.00    +0.000 F 
ENDBRANCH   6   9
BRANCH   1  18
ATOM     18  C   UNL     1       8.995  10.800  19.135  0.00  0.00    +0.000 C 
BRANCH  18  19
ATOM     19  C   UNL     1       8.978   9.372  18.551  0.00  0.00    +0.000 C 
BRANCH  19  20
ATOM     20  C   UNL     1       7.640   8.998  17.909  0.00  0.00    +0.000 C 
BRANCH  20  21
ATOM     21  S   UNL     1       7.710   7.380  17.029  0.00  0.00    +0.000 S 
BRANCH  21  24
ATOM     22  C   UNL     1       4.469   6.708  17.122  0.00  0.00    +0.000 C 
ATOM     23  N   UNL     1       5.433   6.137  18.021  0.00  0.00    +0.000 N 
ATOM     24  C   UNL     1       6.782   6.390  18.116  0.00  0.00    +0.000 A 
ATOM     25  N   UNL     1       7.266   5.775  19.168  0.00  0.00    +0.000 NA
ATOM     26  N   UNL     1       6.243   5.077  19.754  0.00  0.00    +0.000 NA
ATOM     27  C   UNL     1       5.146   5.244  19.042  0.00  0.00    +0.000 A 
BRANCH  27  28
ATOM     28  C   UNL     1       3.859   4.610  19.315  0.00  0.00    +0.000 A 
ATOM     29  C   UNL     1       2.922   5.197  20.161  0.00  0.00    +0.000 A 
ATOM     30  N   UNL     1       1.728   4.623  20.459  0.00  0.00    +0.000 NA
ATOM     31  C   UNL     1       1.517   3.412  19.898  0.00  0.00    +0.000 A 
ATOM     32  C   UNL     1       2.448   2.812  19.068  0.00  0.00    +0.000 A 
ATOM     33  N   UNL     1       3.629   3.397  18.744  0.00  0.00    +0.000 NA
ENDBRANCH  27  28
ENDBRANCH  21  24
ENDBRANCH  20  21
ENDBRANCH  19  20
ENDBRANCH  18  19
ENDBRANCH   1  18
TORSDOF 7
ENDMDL
MODEL 8
REMARK VINA RESULT:      -7.7      2.032      3.993
REMARK  Name = 
REMARK  8 active torsions:
REMARK  status: ('A' for Active; 'I' for Inactive)
REMARK    1  A    between atoms: C_1  and  N_2
REMARK    2  A    between atoms: C_3  and  S_4
REMARK    3  A    between atoms: S_4  and  C_5
REMARK    4  A    between atoms: C_5  and  C_6
REMARK    5  A    between atoms: C_6  and  C_7
REMARK    6  A    between atoms: C_7  and  N_8
REMARK    7  A    between atoms: N_13  and  C_14
REMARK    8  A    between atoms: C_27  and  C_28
REMARK                            x       y       z     vdW  Elec       q    Type
REMARK                         _______ _______ _______ _____ _____    ______ ____
ROOT
ATOM      1  N   UNL     1       4.450   6.621  16.605  0.00  0.00    +0.000 NA
ATOM      2  C   UNL     1       5.919   6.598  16.578  0.00  0.00    +0.000 C 
ATOM      3  C   UNL     1       6.419   5.242  17.100  0.00  0.00    +0.000 C 
ATOM      4  C   UNL     1       7.208   5.300  18.398  0.00  0.00    +0.000 C 
ATOM      5  C   UNL     1       6.153   5.276  19.492  0.00  0.00    +0.000 C 
ATOM      6  N   UNL     1       5.051   4.508  18.912  0.00  0.00    +0.000 N 
ATOM      7  C   UNL     1       5.160   4.434  17.436  0.00  0.00    +0.000 C 
ATOM      8  C   UNL     1       4.080   5.183  16.637  0.00  0.00    +0.000 C 
ENDROOT
BRANCH   6   9
ATOM      9  C   UNL     1       3.972   4.052  19.651  0.00  0.00    +0.000 A 
ATOM     10  C   UNL     1       3.711   2.677  19.851  0.00  0.00    +0.000 A 
ATOM     11  F   UNL     1       4.498   1.740  19.297  0.00  0.00    +0.000 F 
ATOM     12  C   UNL     1       2.660   2.209  20.643  0.00  0.00    +0.000 A 
ATOM     13  C   UNL     1       1.823   3.117  21.263  0.00  0.00    +0.000 A 
ATOM     14  F   UNL     1       0.830   2.677  22.046  0.00  0.00    +0.000 F 
ATOM     15  C   UNL     1       2.001   4.475  21.077  0.00  0.00    +0.000 A 
ATOM     16  C   UNL     1       3.049   4.923  20.272  0.00  0.00    +0.000 A 
ATOM     17  F   UNL     1       3.148   6.251  20.106  0.00  0.00    +0.000 F 
ENDBRANCH   6   9
BRANCH   1  18
ATOM     18  C   UNL     1       3.830   7.330  17.736  0.00  0.00    +0.000 C 
BRANCH  18  19
ATOM     19  C   UNL     1       2.393   7.868  17.574  0.00  0.00    +0.000 C 
BRANCH  19  20
ATOM     20  C   UNL     1       2.179   9.228  18.243  0.00  0.00    +0.000 C 
BRANCH  20  21
ATOM     21  S   UNL     1       0.411   9.747  18.232  0.00  0.00    +0.000 S 
BRANCH  21  24
ATOM     22  C   UNL     1      -1.568  12.115  19.435  0.00  0.00    +0.000 C 
ATOM     23  N   UNL     1      -0.643  11.359  20.234  0.00  0.00    +0.000 N 
ATOM     24  C   UNL     1       0.265  10.406  19.834  0.00  0.00    +0.000 A 
ATOM     25  N   UNL     1       1.021  10.073  20.853  0.00  0.00    +0.000 NA
ATOM     26  N   UNL     1       0.589  10.779  21.945  0.00  0.00    +0.000 NA
ATOM     27  C   UNL     1      -0.448  11.517  21.597  0.00  0.00    +0.000 A 
BRANCH  27  28
ATOM     28  C   UNL     1      -1.221  12.364  22.501  0.00  0.00    +0.000 A 
ATOM     29  C   UNL     1      -2.450  11.955  23.011  0.00  0.00    +0.000 A 
ATOM     30  N   UNL     1      -3.207  12.729  23.831  0.00  0.00    +0.000 NA
ATOM     31  C   UNL     1      -2.700  13.951  24.099  0.00  0.00    +0.000 A 
ATOM     32  C   UNL     1      -1.485  14.374  23.585  0.00  0.00    +0.000 A 
ATOM     33  N   UNL     1      -0.712  13.592  22.790  0.00  0.00    +0.000 NA
ENDBRANCH  27  28
ENDBRANCH  21  24
ENDBRANCH  20  21
ENDBRANCH  19  20
ENDBRANCH  18  19
ENDBRANCH   1  18
TORSDOF 7
ENDMDL
MODEL 9
REMARK VINA RESULT:      -7.7      6.442     10.235
REMARK  Name = 
REMARK  8 active torsions:
REMARK  status: ('A' for Active; 'I' for Inactive)
REMARK    1  A    between atoms: C_1  and  N_2
REMARK    2  A    between atoms: C_3  and  S_4
REMARK    3  A    between atoms: S_4  and  C_5
REMARK    4  A    between atoms: C_5  and  C_6
REMARK    5  A    between atoms: C_6  and  C_7
REMARK    6  A    between atoms: C_7  and  N_8
REMARK    7  A    between atoms: N_13  and  C_14
REMARK    8  A    between atoms: C_27  and  C_28
REMARK                            x       y       z     vdW  Elec       q    Type
REMARK                         _______ _______ _______ _____ _____    ______ ____
ROOT
ATOM      1  N   UNL     1      10.872  11.275  18.910  0.00  0.00    +0.000 NA
ATOM      2  C   UNL     1      10.682  12.264  17.841  0.00  0.00    +0.000 C 
ATOM      3  C   UNL     1      10.603  13.672  18.454  0.00  0.00    +0.000 C 
ATOM      4  C   UNL     1       9.264  14.373  18.292  0.00  0.00    +0.000 C 
ATOM      5  C   UNL     1       8.423  13.873  19.454  0.00  0.00    +0.000 C 
ATOM      6  N   UNL     1       9.398  13.601  20.511  0.00  0.00    +0.000 N 
ATOM      7  C   UNL     1      10.769  13.478  19.965  0.00  0.00    +0.000 C 
ATOM      8  C   UNL     1      11.407  12.080  20.038  0.00  0.00    +0.000 C 
ENDROOT
BRANCH   6   9
ATOM      9  C   UNL     1       9.041  13.340  21.824  0.00  0.00    +0.000 A 
ATOM     10  C   UNL     1       9.086  14.324  22.838  0.00  0.00    +0.000 A 
ATOM     11  F   UNL     1       9.513  15.568  22.568  0.00  0.00    +0.000 F 
ATOM     12  C   UNL     1       8.672  14.085  24.150  0.00  0.00    +0.000 A 
ATOM     13  C   UNL     1       8.198  12.833  24.493  0.00  0.00    +0.000 A 
ATOM     14  F   UNL     1       7.774  12.603  25.742  0.00  0.00    +0.000 F 
ATOM     15  C   UNL     1       8.164  11.816  23.559  0.00  0.00    +0.000 A 
ATOM     16  C   UNL     1       8.594  12.070  22.256  0.00  0.00    +0.000 A 
ATOM     17  F   UNL     1       8.566  11.033  21.404  0.00  0.00    +0.000 F 
ENDBRANCH   6   9
BRANCH   1  18
ATOM     18  C   UNL     1       9.672  10.537  19.337  0.00  0.00    +0.000 C 
BRANCH  18  19
ATOM     19  C   UNL     1       8.787   9.876  18.260  0.00  0.00    +0.000 C 
BRANCH  19  20
ATOM     20  C   UNL     1       8.496   8.400  18.541  0.00  0.00    +0.000 C 
BRANCH  20  21
ATOM     21  S   UNL     1       7.453   7.628  17.232  0.00  0.00    +0.000 S 
BRANCH  21  24
ATOM     22  C   UNL     1       4.394   6.368  17.092  0.00  0.00    +0.000 C 
ATOM     23  N   UNL     1       5.429   5.867  17.953  0.00  0.00    +0.000 N 
ATOM     24  C   UNL     1       6.705   6.348  18.139  0.00  0.00    +0.000 A 
ATOM     25  N   UNL     1       7.274   5.695  19.124  0.00  0.00    +0.000 NA
ATOM     26  N   UNL     1       6.388   4.750  19.569  0.00  0.00    +0.000 NA
ATOM     27  C   UNL     1       5.293   4.807  18.836  0.00  0.00    +0.000 A 
BRANCH  27  28
ATOM     28  C   UNL     1       4.142   3.918  18.967  0.00  0.00    +0.000 A 
ATOM     29  C   UNL     1       3.143   4.153  19.908  0.00  0.00    +0.000 A 
ATOM     30  N   UNL     1       2.074   3.332  20.076  0.00  0.00    +0.000 NA
ATOM     31  C   UNL     1       2.058   2.241  19.282  0.00  0.00    +0.000 A 
ATOM     32  C   UNL     1       3.054   1.989  18.353  0.00  0.00    +0.000 A 
ATOM     33  N   UNL     1       4.107   2.823  18.162  0.00  0.00    +0.000 NA
ENDBRANCH  27  28
ENDBRANCH  21  24
ENDBRANCH  20  21
ENDBRANCH  19  20
ENDBRANCH  18  19
ENDBRANCH   1  18
TORSDOF 7
ENDMDL
