MODEL 1
REMARK VINA RESULT:      -6.3      0.000      0.000
REMARK  Name = 
REMARK  27 active torsions:
REMARK  status: ('A' for Active; 'I' for Inactive)
REMARK    1  A    between atoms: C_1  and  C_2
REMARK    2  A    between atoms: C_2  and  C_3
REMARK    3  A    between atoms: C_3  and  C_4
REMARK    4  A    between atoms: C_4  and  C_5
REMARK    5  A    between atoms: C_5  and  C_6
REMARK    6  A    between atoms: C_6  and  C_7
REMARK    7  A    between atoms: C_7  and  C_8
REMARK    8  A    between atoms: C_8  and  C_9
REMARK    9  A    between atoms: C_9  and  S_11
REMARK   10  A    between atoms: S_11  and  C_12
REMARK   11  A    between atoms: C_12  and  C_13
REMARK   12  A    between atoms: C_13  and  C_14
REMARK   13  A    between atoms: C_13  and  S_21
REMARK   14  A    between atoms: C_14  and  O_15
REMARK   15  A    between atoms: O_15  and  P_16
REMARK   16  A    between atoms: P_16  and  O_18
REMARK   17  A    between atoms: P_16  and  O_19
REMARK   18  A    between atoms: O_19  and  C_20
REMARK   19  A    between atoms: S_21  and  C_22
REMARK   20  A    between atoms: C_22  and  C_24
REMARK   21  A    between atoms: C_24  and  C_25
REMARK   22  A    between atoms: C_25  and  C_26
REMARK   23  A    between atoms: C_26  and  C_27
REMARK   24  A    between atoms: C_27  and  C_28
REMARK   25  A    between atoms: C_28  and  C_29
REMARK   26  A    between atoms: C_29  and  C_30
REMARK   27  A    between atoms: C_30  and  C_31
REMARK                            x       y       z     vdW  Elec       q    Type
REMARK                         _______ _______ _______ _____ _____    ______ ____
ROOT
ATOM      1  C   UNL     1       4.382   5.084  17.340  0.00  0.00    +0.000 C 
ENDROOT
BRANCH   1   2
ATOM      2  S   UNL     1       5.758   5.145  18.621  0.00  0.00    +0.000 S 
BRANCH   2   3
ATOM      3  C   UNL     1       7.163   5.399  17.584  0.00  0.00    +0.000 C 
ATOM      4  O   UNL     1       7.882   4.469  17.259  0.00  0.00    +0.000 OA
BRANCH   3   5
ATOM      5  C   UNL     1       7.423   6.825  17.174  0.00  0.00    +0.000 C 
BRANCH   5   6
ATOM      6  C   UNL     1       8.138   7.565  18.300  0.00  0.00    +0.000 C 
BRANCH   6   7
ATOM      7  C   UNL     1       8.227   9.056  18.005  0.00  0.00    +0.000 C 
BRANCH   7   8
ATOM      8  C   UNL     1       9.177   9.732  18.984  0.00  0.00    +0.000 C 
BRANCH   8   9
ATOM      9  C   UNL     1       9.231  11.233  18.731  0.00  0.00    +0.000 C 
BRANCH   9  10
ATOM     10  C   UNL     1      10.418  11.584  17.842  0.00  0.00    +0.000 C 
BRANCH  10  11
ATOM     11  C   UNL     1      11.702  11.663  18.658  0.00  0.00    +0.000 C 
ATOM     12  C   UNL     1      11.401  12.015  20.105  0.00  0.00    +0.000 C 
ENDBRANCH  10  11
ENDBRANCH   9  10
ENDBRANCH   8   9
ENDBRANCH   7   8
ENDBRANCH   6   7
ENDBRANCH   5   6
ENDBRANCH   3   5
ENDBRANCH   2   3
ENDBRANCH   1   2
BRANCH   1  13
ATOM     13  C   UNL     1       4.057   3.579  17.037  0.00  0.00    +0.000 C 
BRANCH  13  14
ATOM     14  O   UNL     1       2.733   3.020  17.223  0.00  0.00    +0.000 OA
BRANCH  14  15
ATOM     15  P   UNL     1       2.330   2.419  18.676  0.00  0.00    +0.000 P 
ATOM     16  O   UNL     1       0.823   2.210  18.772  0.00  0.00    +0.000 OA
BRANCH  15  17
ATOM     17  O   UNL     1       2.869   2.933  20.082  0.00  0.00    +0.000 OA
ATOM     18  C   UNL     1       2.477   2.803  21.424  0.00  0.00    +0.000 C 
ENDBRANCH  15  17
BRANCH  15  19
ATOM     19  O   UNL     1       3.125   1.044  18.517  0.00  0.00    +0.000 OA
ATOM     20  H   UNL     1       2.733   0.428  19.179  0.00  0.00    +0.000 HD
ENDBRANCH  15  19
ENDBRANCH  14  15
ENDBRANCH  13  14
ENDBRANCH   1  13
BRANCH   1  21
ATOM     21  C   UNL     1       3.135   5.919  17.709  0.00  0.00    +0.000 C 
BRANCH  21  22
ATOM     22  S   UNL     1       3.064   6.305  19.494  0.00  0.00    +0.000 S 
BRANCH  22  23
ATOM     23  C   UNL     1       2.095   7.812  19.430  0.00  0.00    +0.000 C 
ATOM     24  O   UNL     1       1.525   8.239  20.411  0.00  0.00    +0.000 OA
BRANCH  23  25
ATOM     25  C   UNL     1       2.122   8.503  18.106  0.00  0.00    +0.000 C 
BRANCH  25  26
ATOM     26  C   UNL     1       1.129   9.689  18.013  0.00  0.00    +0.000 C 
BRANCH  26  27
ATOM     27  C   UNL     1       1.806  11.020  18.337  0.00  0.00    +0.000 C 
BRANCH  27  28
ATOM     28  C   UNL     1       1.130  11.674  19.522  0.00  0.00    +0.000 C 
BRANCH  28  29
ATOM     29  C   UNL     1      -0.384  11.670  19.365  0.00  0.00    +0.000 C 
BRANCH  29  30
ATOM     30  C   UNL     1      -1.042  11.029  20.579  0.00  0.00    +0.000 C 
BRANCH  30  32
ATOM     31  C   UNL     1      -0.809  10.516  23.017  0.00  0.00    +0.000 C 
ATOM     32  C   UNL     1      -0.142  11.134  21.803  0.00  0.00    +0.000 C 
ENDBRANCH  30  32
ENDBRANCH  29  30
ENDBRANCH  28  29
ENDBRANCH  27  28
ENDBRANCH  26  27
ENDBRANCH  25  26
ENDBRANCH  23  25
ENDBRANCH  22  23
ENDBRANCH  21  22
ENDBRANCH   1  21
TORSDOF 24
ENDMDL
MODEL 2
REMARK VINA RESULT:      -6.1      2.362      8.272
REMARK  Name = 
REMARK  27 active torsions:
REMARK  status: ('A' for Active; 'I' for Inactive)
REMARK    1  A    between atoms: C_1  and  C_2
REMARK    2  A    between atoms: C_2  and  C_3
REMARK    3  A    between atoms: C_3  and  C_4
REMARK    4  A    between atoms: C_4  and  C_5
REMARK    5  A    between atoms: C_5  and  C_6
REMARK    6  A    between atoms: C_6  and  C_7
REMARK    7  A    between atoms: C_7  and  C_8
REMARK    8  A    between atoms: C_8  and  C_9
REMARK    9  A    between atoms: C_9  and  S_11
REMARK   10  A    between atoms: S_11  and  C_12
REMARK   11  A    between atoms: C_12  and  C_13
REMARK   12  A    between atoms: C_13  and  C_14
REMARK   13  A    between atoms: C_13  and  S_21
REMARK   14  A    between atoms: C_14  and  O_15
REMARK   15  A    between atoms: O_15  and  P_16
REMARK   16  A    between atoms: P_16  and  O_18
REMARK   17  A    between atoms: P_16  and  O_19
REMARK   18  A    between atoms: O_19  and  C_20
REMARK   19  A    between atoms: S_21  and  C_22
REMARK   20  A    between atoms: C_22  and  C_24
REMARK   21  A    between atoms: C_24  and  C_25
REMARK   22  A    between atoms: C_25  and  C_26
REMARK   23  A    between atoms: C_26  and  C_27
REMARK   24  A    between atoms: C_27  and  C_28
REMARK   25  A    between atoms: C_28  and  C_29
REMARK   26  A    between atoms: C_29  and  C_30
REMARK   27  A    between atoms: C_30  and  C_31
REMARK                            x       y       z     vdW  Elec       q    Type
REMARK                         _______ _______ _______ _____ _____    ______ ____
ROOT
ATOM      1  C   UNL     1       3.150   6.378  18.895  0.00  0.00    +0.000 C 
ENDROOT
BRANCH   1   2
ATOM      2  S   UNL     1       2.624   7.830  17.820  0.00  0.00    +0.000 S 
BRANCH   2   3
ATOM      3  C   UNL     1       1.671   8.766  18.973  0.00  0.00    +0.000 C 
ATOM      4  O   UNL     1       1.775   8.580  20.174  0.00  0.00    +0.000 OA
BRANCH   3   5
ATOM      5  C   UNL     1       0.713   9.761  18.373  0.00  0.00    +0.000 C 
BRANCH   5   6
ATOM      6  C   UNL     1      -0.133  10.394  19.474  0.00  0.00    +0.000 C 
BRANCH   6   7
ATOM      7  C   UNL     1      -1.499  10.807  18.945  0.00  0.00    +0.000 C 
BRANCH   7   8
ATOM      8  C   UNL     1      -1.892   9.935  17.759  0.00  0.00    +0.000 C 
BRANCH   8   9
ATOM      9  C   UNL     1      -3.405   9.906  17.591  0.00  0.00    +0.000 C 
BRANCH   9  10
ATOM     10  C   UNL     1      -3.848  10.933  16.555  0.00  0.00    +0.000 C 
BRANCH  10  11
ATOM     11  C   UNL     1      -2.925  10.914  15.343  0.00  0.00    +0.000 C 
ATOM     12  C   UNL     1      -3.485  10.017  14.253  0.00  0.00    +0.000 C 
ENDBRANCH  10  11
ENDBRANCH   9  10
ENDBRANCH   8   9
ENDBRANCH   7   8
ENDBRANCH   6   7
ENDBRANCH   5   6
ENDBRANCH   3   5
ENDBRANCH   2   3
ENDBRANCH   1   2
BRANCH   1  13
ATOM     13  C   UNL     1       1.861   5.735  19.518  0.00  0.00    +0.000 C 
BRANCH  13  14
ATOM     14  O   UNL     1       1.878   5.050  20.796  0.00  0.00    +0.000 OA
BRANCH  14  15
ATOM     15  P   UNL     1       1.892   3.428  20.819  0.00  0.00    +0.000 P 
ATOM     16  O   UNL     1       1.941   2.911  22.252  0.00  0.00    +0.000 OA
BRANCH  15  17
ATOM     17  O   UNL     1       2.792   2.488  19.902  0.00  0.00    +0.000 OA
ATOM     18  C   UNL     1       2.637   1.825  18.675  0.00  0.00    +0.000 C 
ENDBRANCH  15  17
BRANCH  15  19
ATOM     19  O   UNL     1       0.455   3.236  20.152  0.00  0.00    +0.000 OA
ATOM     20  H   UNL     1       0.250   2.275  20.225  0.00  0.00    +0.000 HD
ENDBRANCH  15  19
ENDBRANCH  14  15
ENDBRANCH  13  14
ENDBRANCH   1  13
BRANCH   1  21
ATOM     21  C   UNL     1       4.061   5.355  18.179  0.00  0.00    +0.000 C 
BRANCH  21  22
ATOM     22  S   UNL     1       5.466   6.158  17.329  0.00  0.00    +0.000 S 
BRANCH  22  23
ATOM     23  C   UNL     1       6.770   5.786  18.502  0.00  0.00    +0.000 C 
ATOM     24  O   UNL     1       6.757   4.768  19.158  0.00  0.00    +0.000 OA
BRANCH  23  25
ATOM     25  C   UNL     1       7.874   6.792  18.531  0.00  0.00    +0.000 C 
BRANCH  25  26
ATOM     26  C   UNL     1       7.826   7.791  17.349  0.00  0.00    +0.000 C 
BRANCH  26  27
ATOM     27  C   UNL     1       7.934   9.238  17.826  0.00  0.00    +0.000 C 
BRANCH  27  28
ATOM     28  C   UNL     1       8.962   9.348  18.930  0.00  0.00    +0.000 C 
BRANCH  28  29
ATOM     29  C   UNL     1       9.580  10.738  18.974  0.00  0.00    +0.000 C 
BRANCH  29  30
ATOM     30  C   UNL     1       8.912  11.649  17.952  0.00  0.00    +0.000 C 
BRANCH  30  32
ATOM     31  C   UNL     1       8.310  14.043  18.356  0.00  0.00    +0.000 C 
ATOM     32  C   UNL     1       9.440  13.073  18.068  0.00  0.00    +0.000 C 
ENDBRANCH  30  32
ENDBRANCH  29  30
ENDBRANCH  28  29
ENDBRANCH  27  28
ENDBRANCH  26  27
ENDBRANCH  25  26
ENDBRANCH  23  25
ENDBRANCH  22  23
ENDBRANCH  21  22
ENDBRANCH   1  21
TORSDOF 24
ENDMDL
MODEL 3
REMARK VINA RESULT:      -5.9      3.403      5.760
REMARK  Name = 
REMARK  27 active torsions:
REMARK  status: ('A' for Active; 'I' for Inactive)
REMARK    1  A    between atoms: C_1  and  C_2
REMARK    2  A    between atoms: C_2  and  C_3
REMARK    3  A    between atoms: C_3  and  C_4
REMARK    4  A    between atoms: C_4  and  C_5
REMARK    5  A    between atoms: C_5  and  C_6
REMARK    6  A    between atoms: C_6  and  C_7
REMARK    7  A    between atoms: C_7  and  C_8
REMARK    8  A    between atoms: C_8  and  C_9
REMARK    9  A    between atoms: C_9  and  S_11
REMARK   10  A    between atoms: S_11  and  C_12
REMARK   11  A    between atoms: C_12  and  C_13
REMARK   12  A    between atoms: C_13  and  C_14
REMARK   13  A    between atoms: C_13  and  S_21
REMARK   14  A    between atoms: C_14  and  O_15
REMARK   15  A    between atoms: O_15  and  P_16
REMARK   16  A    between atoms: P_16  and  O_18
REMARK   17  A    between atoms: P_16  and  O_19
REMARK   18  A    between atoms: O_19  and  C_20
REMARK   19  A    between atoms: S_21  and  C_22
REMARK   20  A    between atoms: C_22  and  C_24
REMARK   21  A    between atoms: C_24  and  C_25
REMARK   22  A    between atoms: C_25  and  C_26
REMARK   23  A    between atoms: C_26  and  C_27
REMARK   24  A    between atoms: C_27  and  C_28
REMARK   25  A    between atoms: C_28  and  C_29
REMARK   26  A    between atoms: C_29  and  C_30
REMARK   27  A    between atoms: C_30  and  C_31
REMARK                            x       y       z     vdW  Elec       q    Type
REMARK                         _______ _______ _______ _____ _____    ______ ____
ROOT
ATOM      1  C   UNL     1       4.735   6.102  17.593  0.00  0.00    +0.000 C 
ENDROOT
BRANCH   1   2
ATOM      2  S   UNL     1       6.574   6.453  17.774  0.00  0.00    +0.000 S 
BRANCH   2   3
ATOM      3  C   UNL     1       7.238   4.826  17.612  0.00  0.00    +0.000 C 
ATOM      4  O   UNL     1       7.902   4.326  18.504  0.00  0.00    +0.000 OA
BRANCH   3   5
ATOM      5  C   UNL     1       6.961   4.135  16.302  0.00  0.00    +0.000 C 
BRANCH   5   6
ATOM      6  C   UNL     1       7.191   5.106  15.147  0.00  0.00    +0.000 C 
BRANCH   6   7
ATOM      7  C   UNL     1       6.080   4.995  14.112  0.00  0.00    +0.000 C 
BRANCH   7   8
ATOM      8  C   UNL     1       5.973   3.564  13.604  0.00  0.00    +0.000 C 
BRANCH   8   9
ATOM      9  C   UNL     1       6.079   3.522  12.085  0.00  0.00    +0.000 C 
BRANCH   9  10
ATOM     10  C   UNL     1       5.266   2.362  11.523  0.00  0.00    +0.000 C 
BRANCH  10  11
ATOM     11  C   UNL     1       6.181   1.231  11.067  0.00  0.00    +0.000 C 
ATOM     12  C   UNL     1       7.606   1.726  10.896  0.00  0.00    +0.000 C 
ENDBRANCH  10  11
ENDBRANCH   9  10
ENDBRANCH   8   9
ENDBRANCH   7   8
ENDBRANCH   6   7
ENDBRANCH   5   6
ENDBRANCH   3   5
ENDBRANCH   2   3
ENDBRANCH   1   2
BRANCH   1  13
ATOM     13  C   UNL     1       4.351   4.957  18.594  0.00  0.00    +0.000 C 
BRANCH  13  14
ATOM     14  O   UNL     1       4.062   3.607  18.153  0.00  0.00    +0.000 OA
BRANCH  14  15
ATOM     15  P   UNL     1       2.571   3.008  18.379  0.00  0.00    +0.000 P 
ATOM     16  O   UNL     1       1.599   3.584  17.355  0.00  0.00    +0.000 OA
BRANCH  15  17
ATOM     17  O   UNL     1       1.821   2.868  19.777  0.00  0.00    +0.000 OA
ATOM     18  C   UNL     1       1.323   3.748  20.749  0.00  0.00    +0.000 C 
ENDBRANCH  15  17
BRANCH  15  19
ATOM     19  O   UNL     1       2.949   1.488  18.070  0.00  0.00    +0.000 OA
ATOM     20  H   UNL     1       2.734   0.985  18.890  0.00  0.00    +0.000 HD
ENDBRANCH  15  19
ENDBRANCH  14  15
ENDBRANCH  13  14
ENDBRANCH   1  13
BRANCH   1  21
ATOM     21  C   UNL     1       3.835   7.353  17.716  0.00  0.00    +0.000 C 
BRANCH  21  22
ATOM     22  S   UNL     1       2.094   6.921  18.064  0.00  0.00    +0.000 S 
BRANCH  22  23
ATOM     23  C   UNL     1       1.740   8.132  19.337  0.00  0.00    +0.000 C 
ATOM     24  O   UNL     1       1.889   7.875  20.512  0.00  0.00    +0.000 OA
BRANCH  23  25
ATOM     25  C   UNL     1       1.329   9.470  18.815  0.00  0.00    +0.000 C 
BRANCH  25  26
ATOM     26  C   UNL     1       0.527  10.309  19.840  0.00  0.00    +0.000 C 
BRANCH  26  27
ATOM     27  C   UNL     1      -0.668  11.006  19.191  0.00  0.00    +0.000 C 
BRANCH  27  28
ATOM     28  C   UNL     1      -1.042  10.308  17.902  0.00  0.00    +0.000 C 
BRANCH  28  29
ATOM     29  C   UNL     1      -2.552  10.219  17.741  0.00  0.00    +0.000 C 
BRANCH  29  30
ATOM     30  C   UNL     1      -2.907   9.576  16.406  0.00  0.00    +0.000 C 
BRANCH  30  32
ATOM     31  C   UNL     1      -3.618  10.072  14.059  0.00  0.00    +0.000 C 
ATOM     32  C   UNL     1      -2.915  10.612  15.290  0.00  0.00    +0.000 C 
ENDBRANCH  30  32
ENDBRANCH  29  30
ENDBRANCH  28  29
ENDBRANCH  27  28
ENDBRANCH  26  27
ENDBRANCH  25  26
ENDBRANCH  23  25
ENDBRANCH  22  23
ENDBRANCH  21  22
ENDBRANCH   1  21
TORSDOF 24
ENDMDL
MODEL 4
REMARK VINA RESULT:      -5.9      1.825      8.089
REMARK  Name = 
REMARK  27 active torsions:
REMARK  status: ('A' for Active; 'I' for Inactive)
REMARK    1  A    between atoms: C_1  and  C_2
REMARK    2  A    between atoms: C_2  and  C_3
REMARK    3  A    between atoms: C_3  and  C_4
REMARK    4  A    between atoms: C_4  and  C_5
REMARK    5  A    between atoms: C_5  and  C_6
REMARK    6  A    between atoms: C_6  and  C_7
REMARK    7  A    between atoms: C_7  and  C_8
REMARK    8  A    between atoms: C_8  and  C_9
REMARK    9  A    between atoms: C_9  and  S_11
REMARK   10  A    between atoms: S_11  and  C_12
REMARK   11  A    between atoms: C_12  and  C_13
REMARK   12  A    between atoms: C_13  and  C_14
REMARK   13  A    between atoms: C_13  and  S_21
REMARK   14  A    between atoms: C_14  and  O_15
REMARK   15  A    between atoms: O_15  and  P_16
REMARK   16  A    between atoms: P_16  and  O_18
REMARK   17  A    between atoms: P_16  and  O_19
REMARK   18  A    between atoms: O_19  and  C_20
REMARK   19  A    between atoms: S_21  and  C_22
REMARK   20  A    between atoms: C_22  and  C_24
REMARK   21  A    between atoms: C_24  and  C_25
REMARK   22  A    between atoms: C_25  and  C_26
REMARK   23  A    between atoms: C_26  and  C_27
REMARK   24  A    between atoms: C_27  and  C_28
REMARK   25  A    between atoms: C_28  and  C_29
REMARK   26  A    between atoms: C_29  and  C_30
REMARK   27  A    between atoms: C_30  and  C_31
REMARK                            x       y       z     vdW  Elec       q    Type
REMARK                         _______ _______ _______ _____ _____    ______ ____
ROOT
ATOM      1  C   UNL     1       4.325   5.807  18.272  0.00  0.00    +0.000 C 
ENDROOT
BRANCH   1   2
ATOM      2  S   UNL     1       2.445   5.737  18.257  0.00  0.00    +0.000 S 
BRANCH   2   3
ATOM      3  C   UNL     1       2.077   6.403  19.849  0.00  0.00    +0.000 C 
ATOM      4  O   UNL     1       1.886   5.674  20.808  0.00  0.00    +0.000 OA
BRANCH   3   5
ATOM      5  C   UNL     1       1.982   7.905  19.923  0.00  0.00    +0.000 C 
BRANCH   5   6
ATOM      6  C   UNL     1       1.529   8.326  21.318  0.00  0.00    +0.000 C 
BRANCH   6   7
ATOM      7  C   UNL     1       0.203   9.071  21.261  0.00  0.00    +0.000 C 
BRANCH   7   8
ATOM      8  C   UNL     1      -0.537   8.933  22.585  0.00  0.00    +0.000 C 
BRANCH   8   9
ATOM      9  C   UNL     1      -0.791  10.301  23.204  0.00  0.00    +0.000 C 
BRANCH   9  10
ATOM     10  C   UNL     1      -0.774  11.385  22.134  0.00  0.00    +0.000 C 
BRANCH  10  11
ATOM     11  C   UNL     1      -1.614  12.583  22.563  0.00  0.00    +0.000 C 
ATOM     12  C   UNL     1      -0.817  13.870  22.444  0.00  0.00    +0.000 C 
ENDBRANCH  10  11
ENDBRANCH   9  10
ENDBRANCH   8   9
ENDBRANCH   7   8
ENDBRANCH   6   7
ENDBRANCH   5   6
ENDBRANCH   3   5
ENDBRANCH   2   3
ENDBRANCH   1   2
BRANCH   1  13
ATOM     13  C   UNL     1       4.873   4.342  18.155  0.00  0.00    +0.000 C 
BRANCH  13  14
ATOM     14  O   UNL     1       5.245   3.559  19.318  0.00  0.00    +0.000 OA
BRANCH  14  15
ATOM     15  P   UNL     1       4.207   2.444  19.879  0.00  0.00    +0.000 P 
ATOM     16  O   UNL     1       3.490   1.750  18.727  0.00  0.00    +0.000 OA
BRANCH  15  17
ATOM     17  O   UNL     1       3.181   2.642  21.080  0.00  0.00    +0.000 OA
ATOM     18  C   UNL     1       1.826   2.360  21.308  0.00  0.00    +0.000 C 
ENDBRANCH  15  17
BRANCH  15  19
ATOM     19  O   UNL     1       5.311   1.512  20.557  0.00  0.00    +0.000 OA
ATOM     20  H   UNL     1       5.529   1.937  21.420  0.00  0.00    +0.000 HD
ENDBRANCH  15  19
ENDBRANCH  14  15
ENDBRANCH  13  14
ENDBRANCH   1  13
BRANCH   1  21
ATOM     21  C   UNL     1       4.932   6.775  17.231  0.00  0.00    +0.000 C 
BRANCH  21  22
ATOM     22  S   UNL     1       6.592   6.245  16.679  0.00  0.00    +0.000 S 
BRANCH  22  23
ATOM     23  C   UNL     1       7.587   7.039  17.940  0.00  0.00    +0.000 C 
ATOM     24  O   UNL     1       7.970   6.434  18.918  0.00  0.00    +0.000 OA
BRANCH  23  25
ATOM     25  C   UNL     1       7.948   8.457  17.635  0.00  0.00    +0.000 C 
BRANCH  25  26
ATOM     26  C   UNL     1       8.745   9.146  18.772  0.00  0.00    +0.000 C 
BRANCH  26  27
ATOM     27  C   UNL     1       8.856  10.653  18.552  0.00  0.00    +0.000 C 
BRANCH  27  28
ATOM     28  C   UNL     1      10.263  11.121  18.852  0.00  0.00    +0.000 C 
BRANCH  28  29
ATOM     29  C   UNL     1      10.881  11.820  17.649  0.00  0.00    +0.000 C 
BRANCH  29  30
ATOM     30  C   UNL     1      12.073  12.664  18.080  0.00  0.00    +0.000 C 
BRANCH  30  32
ATOM     31  C   UNL     1      12.276  14.734  19.471  0.00  0.00    +0.000 C 
ATOM     32  C   UNL     1      11.680  14.130  18.213  0.00  0.00    +0.000 C 
ENDBRANCH  30  32
ENDBRANCH  29  30
ENDBRANCH  28  29
ENDBRANCH  27  28
ENDBRANCH  26  27
ENDBRANCH  25  26
ENDBRANCH  23  25
ENDBRANCH  22  23
ENDBRANCH  21  22
ENDBRANCH   1  21
TORSDOF 24
ENDMDL
MODEL 5
REMARK VINA RESULT:      -5.9      4.060      6.072
REMARK  Name = 
REMARK  27 active torsions:
REMARK  status: ('A' for Active; 'I' for Inactive)
REMARK    1  A    between atoms: C_1  and  C_2
REMARK    2  A    between atoms: C_2  and  C_3
REMARK    3  A    between atoms: C_3  and  C_4
REMARK    4  A    between atoms: C_4  and  C_5
REMARK    5  A    between atoms: C_5  and  C_6
REMARK    6  A    between atoms: C_6  and  C_7
REMARK    7  A    between atoms: C_7  and  C_8
REMARK    8  A    between atoms: C_8  and  C_9
REMARK    9  A    between atoms: C_9  and  S_11
REMARK   10  A    between atoms: S_11  and  C_12
REMARK   11  A    between atoms: C_12  and  C_13
REMARK   12  A    between atoms: C_13  and  C_14
REMARK   13  A    between atoms: C_13  and  S_21
REMARK   14  A    between atoms: C_14  and  O_15
REMARK   15  A    between atoms: O_15  and  P_16
REMARK   16  A    between atoms: P_16  and  O_18
REMARK   17  A    between atoms: P_16  and  O_19
REMARK   18  A    between atoms: O_19  and  C_20
REMARK   19  A    between atoms: S_21  and  C_22
REMARK   20  A    between atoms: C_22  and  C_24
REMARK   21  A    between atoms: C_24  and  C_25
REMARK   22  A    between atoms: C_25  and  C_26
REMARK   23  A    between atoms: C_26  and  C_27
REMARK   24  A    between atoms: C_27  and  C_28
REMARK   25  A    between atoms: C_28  and  C_29
REMARK   26  A    between atoms: C_29  and  C_30
REMARK   27  A    between atoms: C_30  and  C_31
REMARK                            x       y       z     vdW  Elec       q    Type
REMARK                         _______ _______ _______ _____ _____    ______ ____
ROOT
ATOM      1  C   UNL     1       2.967   6.374  18.319  0.00  0.00    +0.000 C 
ENDROOT
BRANCH   1   2
ATOM      2  S   UNL     1       4.710   6.563  17.637  0.00  0.00    +0.000 S 
BRANCH   2   3
ATOM      3  C   UNL     1       5.120   4.879  17.306  0.00  0.00    +0.000 C 
ATOM      4  O   UNL     1       5.749   4.214  18.112  0.00  0.00    +0.000 OA
BRANCH   3   5
ATOM      5  C   UNL     1       4.677   4.351  15.966  0.00  0.00    +0.000 C 
BRANCH   5   6
ATOM      6  C   UNL     1       5.586   4.899  14.869  0.00  0.00    +0.000 C 
BRANCH   6   7
ATOM      7  C   UNL     1       6.362   3.778  14.192  0.00  0.00    +0.000 C 
BRANCH   7   8
ATOM      8  C   UNL     1       6.246   3.896  12.678  0.00  0.00    +0.000 C 
BRANCH   8   9
ATOM      9  C   UNL     1       5.267   2.866  12.131  0.00  0.00    +0.000 C 
BRANCH   9  10
ATOM     10  C   UNL     1       3.993   3.543  11.643  0.00  0.00    +0.000 C 
BRANCH  10  11
ATOM     11  C   UNL     1       3.844   3.396  10.134  0.00  0.00    +0.000 C 
ATOM     12  C   UNL     1       2.807   4.367   9.596  0.00  0.00    +0.000 C 
ENDBRANCH  10  11
ENDBRANCH   9  10
ENDBRANCH   8   9
ENDBRANCH   7   8
ENDBRANCH   6   7
ENDBRANCH   5   6
ENDBRANCH   3   5
ENDBRANCH   2   3
ENDBRANCH   1   2
BRANCH   1  13
ATOM     13  C   UNL     1       3.046   5.546  19.649  0.00  0.00    +0.000 C 
BRANCH  13  14
ATOM     14  O   UNL     1       1.895   4.861  20.205  0.00  0.00    +0.000 OA
BRANCH  14  15
ATOM     15  P   UNL     1       2.035   3.299  20.622  0.00  0.00    +0.000 P 
ATOM     16  O   UNL     1       2.379   3.167  22.101  0.00  0.00    +0.000 OA
BRANCH  15  17
ATOM     17  O   UNL     1       2.823   2.181  19.808  0.00  0.00    +0.000 OA
ATOM     18  C   UNL     1       3.048   1.885  18.455  0.00  0.00    +0.000 C 
ENDBRANCH  15  17
BRANCH  15  19
ATOM     19  O   UNL     1       0.519   2.904  20.313  0.00  0.00    +0.000 OA
ATOM     20  H   UNL     1       0.425   1.963  20.588  0.00  0.00    +0.000 HD
ENDBRANCH  15  19
ENDBRANCH  14  15
ENDBRANCH  13  14
ENDBRANCH   1  13
BRANCH   1  21
ATOM     21  C   UNL     1       2.196   7.705  18.469  0.00  0.00    +0.000 C 
BRANCH  21  22
ATOM     22  S   UNL     1       1.709   8.031  20.200  0.00  0.00    +0.000 S 
BRANCH  22  23
ATOM     23  C   UNL     1       0.835   9.579  19.972  0.00  0.00    +0.000 C 
ATOM     24  O   UNL     1       0.490  10.256  20.916  0.00  0.00    +0.000 OA
BRANCH  23  25
ATOM     25  C   UNL     1       0.648   9.974  18.542  0.00  0.00    +0.000 C 
BRANCH  25  26
ATOM     26  C   UNL     1      -0.562  10.915  18.320  0.00  0.00    +0.000 C 
BRANCH  26  27
ATOM     27  C   UNL     1      -1.753  10.174  17.715  0.00  0.00    +0.000 C 
BRANCH  27  28
ATOM     28  C   UNL     1      -2.456  11.052  16.704  0.00  0.00    +0.000 C 
BRANCH  28  29
ATOM     29  C   UNL     1      -3.919  10.660  16.555  0.00  0.00    +0.000 C 
BRANCH  29  30
ATOM     30  C   UNL     1      -4.614  10.675  17.910  0.00  0.00    +0.000 C 
BRANCH  30  32
ATOM     31  C   UNL     1      -4.371  12.373  19.732  0.00  0.00    +0.000 C 
ATOM     32  C   UNL     1      -4.922  12.102  18.345  0.00  0.00    +0.000 C 
ENDBRANCH  30  32
ENDBRANCH  29  30
ENDBRANCH  28  29
ENDBRANCH  27  28
ENDBRANCH  26  27
ENDBRANCH  25  26
ENDBRANCH  23  25
ENDBRANCH  22  23
ENDBRANCH  21  22
ENDBRANCH   1  21
TORSDOF 24
ENDMDL
MODEL 6
REMARK VINA RESULT:      -5.8      3.680      8.833
REMARK  Name = 
REMARK  27 active torsions:
REMARK  status: ('A' for Active; 'I' for Inactive)
REMARK    1  A    between atoms: C_1  and  C_2
REMARK    2  A    between atoms: C_2  and  C_3
REMARK    3  A    between atoms: C_3  and  C_4
REMARK    4  A    between atoms: C_4  and  C_5
REMARK    5  A    between atoms: C_5  and  C_6
REMARK    6  A    between atoms: C_6  and  C_7
REMARK    7  A    between atoms: C_7  and  C_8
REMARK    8  A    between atoms: C_8  and  C_9
REMARK    9  A    between atoms: C_9  and  S_11
REMARK   10  A    between atoms: S_11  and  C_12
REMARK   11  A    between atoms: C_12  and  C_13
REMARK   12  A    between atoms: C_13  and  C_14
REMARK   13  A    between atoms: C_13  and  S_21
REMARK   14  A    between atoms: C_14  and  O_15
REMARK   15  A    between atoms: O_15  and  P_16
REMARK   16  A    between atoms: P_16  and  O_18
REMARK   17  A    between atoms: P_16  and  O_19
REMARK   18  A    between atoms: O_19  and  C_20
REMARK   19  A    between atoms: S_21  and  C_22
REMARK   20  A    between atoms: C_22  and  C_24
REMARK   21  A    between atoms: C_24  and  C_25
REMARK   22  A    between atoms: C_25  and  C_26
REMARK   23  A    between atoms: C_26  and  C_27
REMARK   24  A    between atoms: C_27  and  C_28
REMARK   25  A    between atoms: C_28  and  C_29
REMARK   26  A    between atoms: C_29  and  C_30
REMARK   27  A    between atoms: C_30  and  C_31
REMARK                            x       y       z     vdW  Elec       q    Type
REMARK                         _______ _______ _______ _____ _____    ______ ____
ROOT
ATOM      1  C   UNL     1       4.149   6.546  18.242  0.00  0.00    +0.000 C 
ENDROOT
BRANCH   1   2
ATOM      2  S   UNL     1       2.283   6.783  18.210  0.00  0.00    +0.000 S 
BRANCH   2   3
ATOM      3  C   UNL     1       2.174   8.544  18.186  0.00  0.00    +0.000 C 
ATOM      4  O   UNL     1       2.950   9.214  17.526  0.00  0.00    +0.000 OA
BRANCH   3   5
ATOM      5  C   UNL     1       1.098   9.143  19.054  0.00  0.00    +0.000 C 
BRANCH   5   6
ATOM      6  C   UNL     1       0.964  10.634  18.756  0.00  0.00    +0.000 C 
BRANCH   6   7
ATOM      7  C   UNL     1       0.661  11.420  20.024  0.00  0.00    +0.000 C 
BRANCH   7   8
ATOM      8  C   UNL     1       0.944  10.568  21.254  0.00  0.00    +0.000 C 
BRANCH   8   9
ATOM      9  C   UNL     1      -0.251  10.571  22.197  0.00  0.00    +0.000 C 
BRANCH   9  10
ATOM     10  C   UNL     1      -0.860  11.965  22.287  0.00  0.00    +0.000 C 
BRANCH  10  11
ATOM     11  C   UNL     1      -2.186  11.930  23.037  0.00  0.00    +0.000 C 
ATOM     12  C   UNL     1      -2.565  13.317  23.526  0.00  0.00    +0.000 C 
ENDBRANCH  10  11
ENDBRANCH   9  10
ENDBRANCH   8   9
ENDBRANCH   7   8
ENDBRANCH   6   7
ENDBRANCH   5   6
ENDBRANCH   3   5
ENDBRANCH   2   3
ENDBRANCH   1   2
BRANCH   1  13
ATOM     13  C   UNL     1       4.485   5.423  19.284  0.00  0.00    +0.000 C 
BRANCH  13  14
ATOM     14  O   UNL     1       3.502   4.916  20.222  0.00  0.00    +0.000 OA
BRANCH  14  15
ATOM     15  P   UNL     1       2.975   3.390  20.059  0.00  0.00    +0.000 P 
ATOM     16  O   UNL     1       4.059   2.401  20.472  0.00  0.00    +0.000 OA
BRANCH  15  17
ATOM     17  O   UNL     1       2.190   2.800  18.807  0.00  0.00    +0.000 OA
ATOM     18  C   UNL     1       2.529   2.097  17.640  0.00  0.00    +0.000 C 
ENDBRANCH  15  17
BRANCH  15  19
ATOM     19  O   UNL     1       1.806   3.498  21.141  0.00  0.00    +0.000 OA
ATOM     20  H   UNL     1       1.869   4.407  21.516  0.00  0.00    +0.000 HD
ENDBRANCH  15  19
ENDBRANCH  14  15
ENDBRANCH  13  14
ENDBRANCH   1  13
BRANCH   1  21
ATOM     21  C   UNL     1       4.781   6.304  16.853  0.00  0.00    +0.000 C 
BRANCH  21  22
ATOM     22  S   UNL     1       5.141   4.537  16.554  0.00  0.00    +0.000 S 
BRANCH  22  23
ATOM     23  C   UNL     1       6.894   4.650  16.202  0.00  0.00    +0.000 C 
ATOM     24  O   UNL     1       7.722   4.578  17.085  0.00  0.00    +0.000 OA
BRANCH  23  25
ATOM     25  C   UNL     1       7.223   4.763  14.749  0.00  0.00    +0.000 C 
BRANCH  25  26
ATOM     26  C   UNL     1       6.326   3.878  13.847  0.00  0.00    +0.000 C 
BRANCH  26  27
ATOM     27  C   UNL     1       6.635   4.086  12.365  0.00  0.00    +0.000 C 
BRANCH  27  28
ATOM     28  C   UNL     1       6.578   2.765  11.631  0.00  0.00    +0.000 C 
BRANCH  28  29
ATOM     29  C   UNL     1       5.146   2.264  11.505  0.00  0.00    +0.000 C 
BRANCH  29  30
ATOM     30  C   UNL     1       4.185   3.435  11.354  0.00  0.00    +0.000 C 
BRANCH  30  32
ATOM     31  C   UNL     1       2.898   4.401   9.437  0.00  0.00    +0.000 C 
ATOM     32  C   UNL     1       3.157   3.156  10.265  0.00  0.00    +0.000 C 
ENDBRANCH  30  32
ENDBRANCH  29  30
ENDBRANCH  28  29
ENDBRANCH  27  28
ENDBRANCH  26  27
ENDBRANCH  25  26
ENDBRANCH  23  25
ENDBRANCH  22  23
ENDBRANCH  21  22
ENDBRANCH   1  21
TORSDOF 24
ENDMDL
MODEL 7
REMARK VINA RESULT:      -5.8      1.856      2.964
REMARK  Name = 
REMARK  27 active torsions:
REMARK  status: ('A' for Active; 'I' for Inactive)
REMARK    1  A    between atoms: C_1  and  C_2
REMARK    2  A    between atoms: C_2  and  C_3
REMARK    3  A    between atoms: C_3  and  C_4
REMARK    4  A    between atoms: C_4  and  C_5
REMARK    5  A    between atoms: C_5  and  C_6
REMARK    6  A    between atoms: C_6  and  C_7
REMARK    7  A    between atoms: C_7  and  C_8
REMARK    8  A    between atoms: C_8  and  C_9
REMARK    9  A    between atoms: C_9  and  S_11
REMARK   10  A    between atoms: S_11  and  C_12
REMARK   11  A    between atoms: C_12  and  C_13
REMARK   12  A    between atoms: C_13  and  C_14
REMARK   13  A    between atoms: C_13  and  S_21
REMARK   14  A    between atoms: C_14  and  O_15
REMARK   15  A    between atoms: O_15  and  P_16
REMARK   16  A    between atoms: P_16  and  O_18
REMARK   17  A    between atoms: P_16  and  O_19
REMARK   18  A    between atoms: O_19  and  C_20
REMARK   19  A    between atoms: S_21  and  C_22
REMARK   20  A    between atoms: C_22  and  C_24
REMARK   21  A    between atoms: C_24  and  C_25
REMARK   22  A    between atoms: C_25  and  C_26
REMARK   23  A    between atoms: C_26  and  C_27
REMARK   24  A    between atoms: C_27  and  C_28
REMARK   25  A    between atoms: C_28  and  C_29
REMARK   26  A    between atoms: C_29  and  C_30
REMARK   27  A    between atoms: C_30  and  C_31
REMARK                            x       y       z     vdW  Elec       q    Type
REMARK                         _______ _______ _______ _____ _____    ______ ____
ROOT
ATOM      1  C   UNL     1       2.460   5.709  19.124  0.00  0.00    +0.000 C 
ENDROOT
BRANCH   1   2
ATOM      2  S   UNL     1       4.330   5.544  19.254  0.00  0.00    +0.000 S 
BRANCH   2   3
ATOM      3  C   UNL     1       4.720   4.927  17.647  0.00  0.00    +0.000 C 
ATOM      4  O   UNL     1       4.825   3.730  17.441  0.00  0.00    +0.000 OA
BRANCH   3   5
ATOM      5  C   UNL     1       4.944   5.970  16.584  0.00  0.00    +0.000 C 
BRANCH   5   6
ATOM      6  C   UNL     1       5.942   7.011  17.083  0.00  0.00    +0.000 C 
BRANCH   6   7
ATOM      7  C   UNL     1       7.303   6.382  17.345  0.00  0.00    +0.000 C 
BRANCH   7   8
ATOM      8  C   UNL     1       8.114   7.255  18.294  0.00  0.00    +0.000 C 
BRANCH   8   9
ATOM      9  C   UNL     1       8.105   8.705  17.831  0.00  0.00    +0.000 C 
BRANCH   9  10
ATOM     10  C   UNL     1       8.822   9.594  18.840  0.00  0.00    +0.000 C 
BRANCH  10  11
ATOM     11  C   UNL     1       9.146  10.953  18.230  0.00  0.00    +0.000 C 
ATOM     12  C   UNL     1      10.583  11.348  18.526  0.00  0.00    +0.000 C 
ENDBRANCH  10  11
ENDBRANCH   9  10
ENDBRANCH   8   9
ENDBRANCH   7   8
ENDBRANCH   6   7
ENDBRANCH   5   6
ENDBRANCH   3   5
ENDBRANCH   2   3
ENDBRANCH   1   2
BRANCH   1  13
ATOM     13  C   UNL     1       1.851   5.546  20.560  0.00  0.00    +0.000 C 
BRANCH  13  14
ATOM     14  O   UNL     1       2.337   4.556  21.501  0.00  0.00    +0.000 OA
BRANCH  14  15
ATOM     15  P   UNL     1       2.279   2.987  21.089  0.00  0.00    +0.000 P 
ATOM     16  O   UNL     1       3.059   2.140  22.089  0.00  0.00    +0.000 OA
BRANCH  15  17
ATOM     17  O   UNL     1       2.502   2.394  19.629  0.00  0.00    +0.000 OA
ATOM     18  C   UNL     1       1.716   2.213  18.480  0.00  0.00    +0.000 C 
ENDBRANCH  15  17
BRANCH  15  19
ATOM     19  O   UNL     1       0.700   2.826  21.258  0.00  0.00    +0.000 OA
ATOM     20  H   UNL     1       0.570   2.277  22.066  0.00  0.00    +0.000 HD
ENDBRANCH  15  19
ENDBRANCH  14  15
ENDBRANCH  13  14
ENDBRANCH   1  13
BRANCH   1  21
ATOM     21  C   UNL     1       1.985   6.987  18.396  0.00  0.00    +0.000 C 
BRANCH  21  22
ATOM     22  S   UNL     1       1.779   8.398  19.539  0.00  0.00    +0.000 S 
BRANCH  22  23
ATOM     23  C   UNL     1       1.698   9.733  18.345  0.00  0.00    +0.000 C 
ATOM     24  O   UNL     1       2.321   9.690  17.306  0.00  0.00    +0.000 OA
BRANCH  23  25
ATOM     25  C   UNL     1       0.757  10.832  18.716  0.00  0.00    +0.000 C 
BRANCH  25  26
ATOM     26  C   UNL     1      -0.692  10.343  18.962  0.00  0.00    +0.000 C 
BRANCH  26  27
ATOM     27  C   UNL     1      -1.504  11.358  19.764  0.00  0.00    +0.000 C 
BRANCH  27  28
ATOM     28  C   UNL     1      -0.606  12.096  20.733  0.00  0.00    +0.000 C 
BRANCH  28  29
ATOM     29  C   UNL     1      -0.670  11.481  22.123  0.00  0.00    +0.000 C 
BRANCH  29  30
ATOM     30  C   UNL     1      -1.345  12.438  23.097  0.00  0.00    +0.000 C 
BRANCH  30  32
ATOM     31  C   UNL     1      -3.707  13.228  22.855  0.00  0.00    +0.000 C 
ATOM     32  C   UNL     1      -2.814  12.078  23.280  0.00  0.00    +0.000 C 
ENDBRANCH  30  32
ENDBRANCH  29  30
ENDBRANCH  28  29
ENDBRANCH  27  28
ENDBRANCH  26  27
ENDBRANCH  25  26
ENDBRANCH  23  25
ENDBRANCH  22  23
ENDBRANCH  21  22
ENDBRANCH   1  21
TORSDOF 24
ENDMDL
MODEL 8
REMARK VINA RESULT:      -5.7      1.751      7.465
REMARK  Name = 
REMARK  27 active torsions:
REMARK  status: ('A' for Active; 'I' for Inactive)
REMARK    1  A    between atoms: C_1  and  C_2
REMARK    2  A    between atoms: C_2  and  C_3
REMARK    3  A    between atoms: C_3  and  C_4
REMARK    4  A    between atoms: C_4  and  C_5
REMARK    5  A    between atoms: C_5  and  C_6
REMARK    6  A    between atoms: C_6  and  C_7
REMARK    7  A    between atoms: C_7  and  C_8
REMARK    8  A    between atoms: C_8  and  C_9
REMARK    9  A    between atoms: C_9  and  S_11
REMARK   10  A    between atoms: S_11  and  C_12
REMARK   11  A    between atoms: C_12  and  C_13
REMARK   12  A    between atoms: C_13  and  C_14
REMARK   13  A    between atoms: C_13  and  S_21
REMARK   14  A    between atoms: C_14  and  O_15
REMARK   15  A    between atoms: O_15  and  P_16
REMARK   16  A    between atoms: P_16  and  O_18
REMARK   17  A    between atoms: P_16  and  O_19
REMARK   18  A    between atoms: O_19  and  C_20
REMARK   19  A    between atoms: S_21  and  C_22
REMARK   20  A    between atoms: C_22  and  C_24
REMARK   21  A    between atoms: C_24  and  C_25
REMARK   22  A    between atoms: C_25  and  C_26
REMARK   23  A    between atoms: C_26  and  C_27
REMARK   24  A    between atoms: C_27  and  C_28
REMARK   25  A    between atoms: C_28  and  C_29
REMARK   26  A    between atoms: C_29  and  C_30
REMARK   27  A    between atoms: C_30  and  C_31
REMARK                            x       y       z     vdW  Elec       q    Type
REMARK                         _______ _______ _______ _____ _____    ______ ____
ROOT
ATOM      1  C   UNL     1       4.164   5.198  17.926  0.00  0.00    +0.000 C 
ENDROOT
BRANCH   1   2
ATOM      2  S   UNL     1       2.314   5.475  18.126  0.00  0.00    +0.000 S 
BRANCH   2   3
ATOM      3  C   UNL     1       2.297   7.095  18.826  0.00  0.00    +0.000 C 
ATOM      4  O   UNL     1       2.311   7.258  20.035  0.00  0.00    +0.000 OA
BRANCH   3   5
ATOM      5  C   UNL     1       2.226   8.232  17.841  0.00  0.00    +0.000 C 
BRANCH   5   6
ATOM      6  C   UNL     1       1.564   9.442  18.495  0.00  0.00    +0.000 C 
BRANCH   6   7
ATOM      7  C   UNL     1       0.141   9.628  17.986  0.00  0.00    +0.000 C 
BRANCH   7   8
ATOM      8  C   UNL     1      -0.700  10.357  19.026  0.00  0.00    +0.000 C 
BRANCH   8   9
ATOM      9  C   UNL     1      -1.013  11.775  18.568  0.00  0.00    +0.000 C 
BRANCH   9  10
ATOM     10  C   UNL     1       0.065  12.742  19.043  0.00  0.00    +0.000 C 
BRANCH  10  11
ATOM     11  C   UNL     1       0.404  12.498  20.509  0.00  0.00    +0.000 C 
ATOM     12  C   UNL     1       0.928  13.766  21.159  0.00  0.00    +0.000 C 
ENDBRANCH  10  11
ENDBRANCH   9  10
ENDBRANCH   8   9
ENDBRANCH   7   8
ENDBRANCH   6   7
ENDBRANCH   5   6
ENDBRANCH   3   5
ENDBRANCH   2   3
ENDBRANCH   1   2
BRANCH   1  13
ATOM     13  C   UNL     1       4.748   4.756  19.313  0.00  0.00    +0.000 C 
BRANCH  13  14
ATOM     14  O   UNL     1       5.343   3.450  19.523  0.00  0.00    +0.000 OA
BRANCH  14  15
ATOM     15  P   UNL     1       4.479   2.306  20.284  0.00  0.00    +0.000 P 
ATOM     16  O   UNL     1       3.044   2.773  20.503  0.00  0.00    +0.000 OA
BRANCH  15  17
ATOM     17  O   UNL     1       4.948   1.470  21.554  0.00  0.00    +0.000 OA
ATOM     18  C   UNL     1       5.852   0.424  21.799  0.00  0.00    +0.000 C 
ENDBRANCH  15  17
BRANCH  15  19
ATOM     19  O   UNL     1       4.591   1.212  19.127  0.00  0.00    +0.000 OA
ATOM     20  H   UNL     1       3.678   0.865  18.995  0.00  0.00    +0.000 HD
ENDBRANCH  15  19
ENDBRANCH  14  15
ENDBRANCH  13  14
ENDBRANCH   1  13
BRANCH   1  21
ATOM     21  C   UNL     1       4.542   4.245  16.769  0.00  0.00    +0.000 C 
BRANCH  21  22
ATOM     22  S   UNL     1       5.731   5.006  15.607  0.00  0.00    +0.000 S 
BRANCH  22  23
ATOM     23  C   UNL     1       6.941   5.613  16.782  0.00  0.00    +0.000 C 
ATOM     24  O   UNL     1       7.804   4.890  17.230  0.00  0.00    +0.000 OA
BRANCH  23  25
ATOM     25  C   UNL     1       6.825   7.072  17.084  0.00  0.00    +0.000 C 
BRANCH  25  26
ATOM     26  C   UNL     1       7.948   7.597  18.013  0.00  0.00    +0.000 C 
BRANCH  26  27
ATOM     27  C   UNL     1       8.144   9.105  17.868  0.00  0.00    +0.000 C 
BRANCH  27  28
ATOM     28  C   UNL     1       9.093   9.612  18.931  0.00  0.00    +0.000 C 
BRANCH  28  29
ATOM     29  C   UNL     1       9.309  11.113  18.807  0.00  0.00    +0.000 C 
BRANCH  29  30
ATOM     30  C   UNL     1      10.437  11.409  17.827  0.00  0.00    +0.000 C 
BRANCH  30  32
ATOM     31  C   UNL     1      11.751  13.538  17.769  0.00  0.00    +0.000 C 
ATOM     32  C   UNL     1      10.430  12.877  17.420  0.00  0.00    +0.000 C 
ENDBRANCH  30  32
ENDBRANCH  29  30
ENDBRANCH  28  29
ENDBRANCH  27  28
ENDBRANCH  26  27
ENDBRANCH  25  26
ENDBRANCH  23  25
ENDBRANCH  22  23
ENDBRANCH  21  22
ENDBRANCH   1  21
TORSDOF 24
ENDMDL
MODEL 9
REMARK VINA RESULT:      -5.7      3.630      6.041
REMARK  Name = 
REMARK  27 active torsions:
REMARK  status: ('A' for Active; 'I' for Inactive)
REMARK    1  A    between atoms: C_1  and  C_2
REMARK    2  A    between atoms: C_2  and  C_3
REMARK    3  A    between atoms: C_3  and  C_4
REMARK    4  A    between atoms: C_4  and  C_5
REMARK    5  A    between atoms: C_5  and  C_6
REMARK    6  A    between atoms: C_6  and  C_7
REMARK    7  A    between atoms: C_7  and  C_8
REMARK    8  A    between atoms: C_8  and  C_9
REMARK    9  A    between atoms: C_9  and  S_11
REMARK   10  A    between atoms: S_11  and  C_12
REMARK   11  A    between atoms: C_12  and  C_13
REMARK   12  A    between atoms: C_13  and  C_14
REMARK   13  A    between atoms: C_13  and  S_21
REMARK   14  A    between atoms: C_14  and  O_15
REMARK   15  A    between atoms: O_15  and  P_16
REMARK   16  A    between atoms: P_16  and  O_18
REMARK   17  A    between atoms: P_16  and  O_19
REMARK   18  A    between atoms: O_19  and  C_20
REMARK   19  A    between atoms: S_21  and  C_22
REMARK   20  A    between atoms: C_22  and  C_24
REMARK   21  A    between atoms: C_24  and  C_25
REMARK   22  A    between atoms: C_25  and  C_26
REMARK   23  A    between atoms: C_26  and  C_27
REMARK   24  A    between atoms: C_27  and  C_28
REMARK   25  A    between atoms: C_28  and  C_29
REMARK   26  A    between atoms: C_29  and  C_30
REMARK   27  A    between atoms: C_30  and  C_31
REMARK                            x       y       z     vdW  Elec       q    Type
REMARK                         _______ _______ _______ _____ _____    ______ ____
ROOT
ATOM      1  C   UNL     1       2.968   5.785  18.581  0.00  0.00    +0.000 C 
ENDROOT
BRANCH   1   2
ATOM      2  S   UNL     1       4.788   5.444  18.911  0.00  0.00    +0.000 S 
BRANCH   2   3
ATOM      3  C   UNL     1       5.506   5.987  17.393  0.00  0.00    +0.000 C 
ATOM      4  O   UNL     1       5.886   7.137  17.252  0.00  0.00    +0.000 OA
BRANCH   3   5
ATOM      5  C   UNL     1       5.577   4.954  16.298  0.00  0.00    +0.000 C 
BRANCH   5   6
ATOM      6  C   UNL     1       6.959   4.980  15.652  0.00  0.00    +0.000 C 
BRANCH   6   7
ATOM      7  C   UNL     1       6.890   4.538  14.197  0.00  0.00    +0.000 C 
BRANCH   7   8
ATOM      8  C   UNL     1       5.504   3.995  13.876  0.00  0.00    +0.000 C 
BRANCH   8   9
ATOM      9  C   UNL     1       5.507   3.271  12.536  0.00  0.00    +0.000 C 
BRANCH   9  10
ATOM     10  C   UNL     1       4.655   4.021  11.520  0.00  0.00    +0.000 C 
BRANCH  10  11
ATOM     11  C   UNL     1       3.667   3.079  10.841  0.00  0.00    +0.000 C 
ATOM     12  C   UNL     1       2.932   3.787   9.717  0.00  0.00    +0.000 C 
ENDBRANCH  10  11
ENDBRANCH   9  10
ENDBRANCH   8   9
ENDBRANCH   7   8
ENDBRANCH   6   7
ENDBRANCH   5   6
ENDBRANCH   3   5
ENDBRANCH   2   3
ENDBRANCH   1   2
BRANCH   1  13
ATOM     13  C   UNL     1       2.141   5.279  19.815  0.00  0.00    +0.000 C 
BRANCH  13  14
ATOM     14  O   UNL     1       2.698   4.376  20.804  0.00  0.00    +0.000 OA
BRANCH  14  15
ATOM     15  P   UNL     1       2.731   2.785  20.485  0.00  0.00    +0.000 P 
ATOM     16  O   UNL     1       4.078   2.187  20.876  0.00  0.00    +0.000 OA
BRANCH  15  17
ATOM     17  O   UNL     1       2.229   2.089  19.145  0.00  0.00    +0.000 OA
ATOM     18  C   UNL     1       2.566   2.154  17.784  0.00  0.00    +0.000 C 
ENDBRANCH  15  17
BRANCH  15  19
ATOM     19  O   UNL     1       1.569   2.384  21.503  0.00  0.00    +0.000 OA
ATOM     20  H   UNL     1       0.791   2.151  20.946  0.00  0.00    +0.000 HD
ENDBRANCH  15  19
ENDBRANCH  14  15
ENDBRANCH  13  14
ENDBRANCH   1  13
BRANCH   1  21
ATOM     21  C   UNL     1       2.656   7.248  18.191  0.00  0.00    +0.000 C 
BRANCH  21  22
ATOM     22  S   UNL     1       1.872   8.176  19.557  0.00  0.00    +0.000 S 
BRANCH  22  23
ATOM     23  C   UNL     1       1.271   9.594  18.640  0.00  0.00    +0.000 C 
ATOM     24  O   UNL     1       1.775   9.927  17.589  0.00  0.00    +0.000 OA
BRANCH  23  25
ATOM     25  C   UNL     1       0.076  10.255  19.246  0.00  0.00    +0.000 C 
BRANCH  25  26
ATOM     26  C   UNL     1      -0.141  11.706  18.749  0.00  0.00    +0.000 C 
BRANCH  26  27
ATOM     27  C   UNL     1      -1.616  12.000  18.484  0.00  0.00    +0.000 C 
BRANCH  27  28
ATOM     28  C   UNL     1      -2.065  11.314  17.213  0.00  0.00    +0.000 C 
BRANCH  28  29
ATOM     29  C   UNL     1      -3.303  10.462  17.453  0.00  0.00    +0.000 C 
BRANCH  29  30
ATOM     30  C   UNL     1      -4.464  10.961  16.602  0.00  0.00    +0.000 C 
BRANCH  30  32
ATOM     31  C   UNL     1      -6.456  11.337  18.069  0.00  0.00    +0.000 C 
ATOM     32  C   UNL     1      -5.286  11.994  17.361  0.00  0.00    +0.000 C 
ENDBRANCH  30  32
ENDBRANCH  29  30
ENDBRANCH  28  29
ENDBRANCH  27  28
ENDBRANCH  26  27
ENDBRANCH  25  26
ENDBRANCH  23  25
ENDBRANCH  22  23
ENDBRANCH  21  22
ENDBRANCH   1  21
TORSDOF 24
ENDMDL
