MODEL 1
REMARK VINA RESULT:      -5.4      0.000      0.000
REMARK  Name = 
REMARK  0 active torsions:
REMARK  status: ('A' for Active; 'I' for Inactive)
REMARK                            x       y       z     vdW  Elec       q    Type
REMARK                         _______ _______ _______ _____ _____    ______ ____
ROOT
ATOM      1  C   UNL     1       2.534   3.883  17.059  0.00  0.00    +0.000 A 
ATOM      2  C   UNL     1       3.847   3.507  17.328  0.00  0.00    +0.000 A 
ATOM      3  C   UNL     1       4.200   3.065  18.604  0.00  0.00    +0.000 A 
ATOM      4  C   UNL     1       3.235   3.000  19.625  0.00  0.00    +0.000 A 
ATOM      5  C   UNL     1       3.531   2.578  20.924  0.00  0.00    +0.000 A 
ATOM      6  N   UNL     1       2.629   2.500  21.930  0.00  0.00    +0.000 NA
ATOM      7  C   UNL     1       1.364   2.858  21.631  0.00  0.00    +0.000 A 
ATOM      8  C   UNL     1       0.956   3.295  20.380  0.00  0.00    +0.000 A 
ATOM      9  C   UNL     1       1.904   3.372  19.353  0.00  0.00    +0.000 A 
ATOM     10  C   UNL     1       1.566   3.813  18.063  0.00  0.00    +0.000 A 
ENDROOT
TORSDOF 0
ENDMDL
MODEL 2
REMARK VINA RESULT:      -5.3      3.570      5.260
REMARK  Name = 
REMARK  0 active torsions:
REMARK  status: ('A' for Active; 'I' for Inactive)
REMARK                            x       y       z     vdW  Elec       q    Type
REMARK                         _______ _______ _______ _____ _____    ______ ____
ROOT
ATOM      1  C   UNL     1       2.539   4.508  17.744  0.00  0.00    +0.000 A 
ATOM      2  C   UNL     1       2.673   5.844  18.113  0.00  0.00    +0.000 A 
ATOM      3  C   UNL     1       3.839   6.542  17.799  0.00  0.00    +0.000 A 
ATOM      4  C   UNL     1       4.887   5.902  17.115  0.00  0.00    +0.000 A 
ATOM      5  C   UNL     1       6.084   6.545  16.785  0.00  0.00    +0.000 A 
ATOM      6  N   UNL     1       7.111   5.962  16.124  0.00  0.00    +0.000 NA
ATOM      7  C   UNL     1       6.943   4.673  15.769  0.00  0.00    +0.000 A 
ATOM      8  C   UNL     1       5.802   3.935  16.046  0.00  0.00    +0.000 A 
ATOM      9  C   UNL     1       4.751   4.553  16.733  0.00  0.00    +0.000 A 
ATOM     10  C   UNL     1       3.570   3.865  17.055  0.00  0.00    +0.000 A 
ENDROOT
TORSDOF 0
ENDMDL
MODEL 3
REMARK VINA RESULT:      -5.3      2.139      3.645
REMARK  Name = 
REMARK  0 active torsions:
REMARK  status: ('A' for Active; 'I' for Inactive)
REMARK                            x       y       z     vdW  Elec       q    Type
REMARK                         _______ _______ _______ _____ _____    ______ ____
ROOT
ATOM      1  C   UNL     1       0.800   2.875  19.500  0.00  0.00    +0.000 A 
ATOM      2  C   UNL     1       1.095   3.617  20.640  0.00  0.00    +0.000 A 
ATOM      3  C   UNL     1       2.186   4.486  20.646  0.00  0.00    +0.000 A 
ATOM      4  C   UNL     1       2.997   4.614  19.505  0.00  0.00    +0.000 A 
ATOM      5  C   UNL     1       4.111   5.457  19.455  0.00  0.00    +0.000 A 
ATOM      6  N   UNL     1       4.911   5.609  18.373  0.00  0.00    +0.000 NA
ATOM      7  C   UNL     1       4.589   4.886  17.282  0.00  0.00    +0.000 A 
ATOM      8  C   UNL     1       3.511   4.017  17.218  0.00  0.00    +0.000 A 
ATOM      9  C   UNL     1       2.697   3.871  18.347  0.00  0.00    +0.000 A 
ATOM     10  C   UNL     1       1.593   3.002  18.357  0.00  0.00    +0.000 A 
ENDROOT
TORSDOF 0
ENDMDL
MODEL 4
REMARK VINA RESULT:      -5.2      2.436      3.203
REMARK  Name = 
REMARK  0 active torsions:
REMARK  status: ('A' for Active; 'I' for Inactive)
REMARK                            x       y       z     vdW  Elec       q    Type
REMARK                         _______ _______ _______ _____ _____    ______ ____
ROOT
ATOM      1  C   UNL     1       2.083   6.907  20.212  0.00  0.00    +0.000 A 
ATOM      2  C   UNL     1       2.565   7.091  18.919  0.00  0.00    +0.000 A 
ATOM      3  C   UNL     1       2.595   6.020  18.026  0.00  0.00    +0.000 A 
ATOM      4  C   UNL     1       2.145   4.749  18.426  0.00  0.00    +0.000 A 
ATOM      5  C   UNL     1       2.163   3.636  17.581  0.00  0.00    +0.000 A 
ATOM      6  N   UNL     1       1.735   2.400  17.930  0.00  0.00    +0.000 NA
ATOM      7  C   UNL     1       1.262   2.261  19.185  0.00  0.00    +0.000 A 
ATOM      8  C   UNL     1       1.200   3.292  20.109  0.00  0.00    +0.000 A 
ATOM      9  C   UNL     1       1.650   4.563  19.731  0.00  0.00    +0.000 A 
ATOM     10  C   UNL     1       1.625   5.652  20.617  0.00  0.00    +0.000 A 
ENDROOT
TORSDOF 0
ENDMDL
MODEL 5
REMARK VINA RESULT:      -5.2      2.613      3.492
REMARK  Name = 
REMARK  0 active torsions:
REMARK  status: ('A' for Active; 'I' for Inactive)
REMARK                            x       y       z     vdW  Elec       q    Type
REMARK                         _______ _______ _______ _____ _____    ______ ____
ROOT
ATOM      1  C   UNL     1       1.266   2.404  19.727  0.00  0.00    +0.000 A 
ATOM      2  C   UNL     1       1.625   2.417  18.382  0.00  0.00    +0.000 A 
ATOM      3  C   UNL     1       2.035   3.607  17.780  0.00  0.00    +0.000 A 
ATOM      4  C   UNL     1       2.084   4.799  18.524  0.00  0.00    +0.000 A 
ATOM      5  C   UNL     1       2.473   6.023  17.973  0.00  0.00    +0.000 A 
ATOM      6  N   UNL     1       2.536   7.188  18.659  0.00  0.00    +0.000 NA
ATOM      7  C   UNL     1       2.195   7.137  19.962  0.00  0.00    +0.000 A 
ATOM      8  C   UNL     1       1.790   5.982  20.613  0.00  0.00    +0.000 A 
ATOM      9  C   UNL     1       1.729   4.786  19.887  0.00  0.00    +0.000 A 
ATOM     10  C   UNL     1       1.320   3.580  20.478  0.00  0.00    +0.000 A 
ENDROOT
TORSDOF 0
ENDMDL
MODEL 6
REMARK VINA RESULT:      -5.1      2.434      3.810
REMARK  Name = 
REMARK  0 active torsions:
REMARK  status: ('A' for Active; 'I' for Inactive)
REMARK                            x       y       z     vdW  Elec       q    Type
REMARK                         _______ _______ _______ _____ _____    ______ ____
ROOT
ATOM      1  C   UNL     1       0.876   3.799  20.412  0.00  0.00    +0.000 A 
ATOM      2  C   UNL     1       0.869   2.745  19.502  0.00  0.00    +0.000 A 
ATOM      3  C   UNL     1       1.735   2.761  18.409  0.00  0.00    +0.000 A 
ATOM      4  C   UNL     1       2.615   3.840  18.215  0.00  0.00    +0.000 A 
ATOM      5  C   UNL     1       3.495   3.919  17.133  0.00  0.00    +0.000 A 
ATOM      6  N   UNL     1       4.358   4.939  16.917  0.00  0.00    +0.000 NA
ATOM      7  C   UNL     1       4.348   5.936  17.825  0.00  0.00    +0.000 A 
ATOM      8  C   UNL     1       3.517   5.967  18.934  0.00  0.00    +0.000 A 
ATOM      9  C   UNL     1       2.630   4.904  19.139  0.00  0.00    +0.000 A 
ATOM     10  C   UNL     1       1.753   4.872  20.235  0.00  0.00    +0.000 A 
ENDROOT
TORSDOF 0
ENDMDL
MODEL 7
REMARK VINA RESULT:      -5.1      2.329      3.297
REMARK  Name = 
REMARK  0 active torsions:
REMARK  status: ('A' for Active; 'I' for Inactive)
REMARK                            x       y       z     vdW  Elec       q    Type
REMARK                         _______ _______ _______ _____ _____    ______ ____
ROOT
ATOM      1  C   UNL     1       2.176   2.388  17.921  0.00  0.00    +0.000 A 
ATOM      2  C   UNL     1       1.599   2.147  19.165  0.00  0.00    +0.000 A 
ATOM      3  C   UNL     1       1.402   3.200  20.059  0.00  0.00    +0.000 A 
ATOM      4  C   UNL     1       1.787   4.507  19.713  0.00  0.00    +0.000 A 
ATOM      5  C   UNL     1       1.628   5.598  20.571  0.00  0.00    +0.000 A 
ATOM      6  N   UNL     1       1.983   6.870  20.271  0.00  0.00    +0.000 NA
ATOM      7  C   UNL     1       2.526   7.069  19.053  0.00  0.00    +0.000 A 
ATOM      8  C   UNL     1       2.736   6.063  18.123  0.00  0.00    +0.000 A 
ATOM      9  C   UNL     1       2.364   4.754  18.452  0.00  0.00    +0.000 A 
ATOM     10  C   UNL     1       2.554   3.684  17.563  0.00  0.00    +0.000 A 
ENDROOT
TORSDOF 0
ENDMDL
MODEL 8
REMARK VINA RESULT:      -5.1      3.650      5.454
REMARK  Name = 
REMARK  0 active torsions:
REMARK  status: ('A' for Active; 'I' for Inactive)
REMARK                            x       y       z     vdW  Elec       q    Type
REMARK                         _______ _______ _______ _____ _____    ______ ____
ROOT
ATOM      1  C   UNL     1       3.723   3.761  18.467  0.00  0.00    +0.000 A 
ATOM      2  C   UNL     1       4.464   4.585  19.311  0.00  0.00    +0.000 A 
ATOM      3  C   UNL     1       5.581   5.262  18.821  0.00  0.00    +0.000 A 
ATOM      4  C   UNL     1       5.968   5.115  17.477  0.00  0.00    +0.000 A 
ATOM      5  C   UNL     1       7.084   5.756  16.933  0.00  0.00    +0.000 A 
ATOM      6  N   UNL     1       7.484   5.641  15.645  0.00  0.00    +0.000 NA
ATOM      7  C   UNL     1       6.736   4.846  14.854  0.00  0.00    +0.000 A 
ATOM      8  C   UNL     1       5.612   4.158  15.284  0.00  0.00    +0.000 A 
ATOM      9  C   UNL     1       5.216   4.288  16.620  0.00  0.00    +0.000 A 
ATOM     10  C   UNL     1       4.093   3.615  17.129  0.00  0.00    +0.000 A 
ENDROOT
TORSDOF 0
ENDMDL
MODEL 9
REMARK VINA RESULT:      -5.1      2.362      3.057
REMARK  Name = 
REMARK  0 active torsions:
REMARK  status: ('A' for Active; 'I' for Inactive)
REMARK                            x       y       z     vdW  Elec       q    Type
REMARK                         _______ _______ _______ _____ _____    ______ ____
ROOT
ATOM      1  C   UNL     1       3.288   7.200  17.839  0.00  0.00    +0.000 A 
ATOM      2  C   UNL     1       4.462   6.714  17.269  0.00  0.00    +0.000 A 
ATOM      3  C   UNL     1       4.645   5.340  17.111  0.00  0.00    +0.000 A 
ATOM      4  C   UNL     1       3.650   4.439  17.529  0.00  0.00    +0.000 A 
ATOM      5  C   UNL     1       3.783   3.052  17.409  0.00  0.00    +0.000 A 
ATOM      6  N   UNL     1       2.846   2.155  17.797  0.00  0.00    +0.000 NA
ATOM      7  C   UNL     1       1.716   2.661  18.332  0.00  0.00    +0.000 A 
ATOM      8  C   UNL     1       1.477   4.016  18.503  0.00  0.00    +0.000 A 
ATOM      9  C   UNL     1       2.459   4.928  18.099  0.00  0.00    +0.000 A 
ATOM     10  C   UNL     1       2.289   6.314  18.249  0.00  0.00    +0.000 A 
ENDROOT
TORSDOF 0
ENDMDL
