MODEL 1
REMARK VINA RESULT:      -8.5      0.000      0.000
REMARK  Name = 
REMARK  4 active torsions:
REMARK  status: ('A' for Active; 'I' for Inactive)
REMARK    1  A    between atoms: C_1  and  O_2
REMARK    2  A    between atoms: O_2  and  C_3
REMARK    3  A    between atoms: C_10  and  S_11
REMARK    4  A    between atoms: S_11  and  C_14
REMARK                            x       y       z     vdW  Elec       q    Type
REMARK                         _______ _______ _______ _____ _____    ______ ____
ROOT
ATOM      1  C   UNL     1      -3.495   9.631  12.643  0.00  0.00    +0.000 C 
ATOM      2  O   UNL     1      -2.281   9.497  12.655  0.00  0.00    +0.000 OA
ATOM      3  N   UNL     1      -4.319  10.051  13.651  0.00  0.00    +0.000 N 
ATOM      4  C   UNL     1      -3.831  10.421  14.874  0.00  0.00    +0.000 A 
ATOM      5  N   UNL     1      -2.578  10.445  15.263  0.00  0.00    +0.000 NA
ATOM      6  C   UNL     1      -2.582  10.897  16.552  0.00  0.00    +0.000 A 
ATOM      7  C   UNL     1      -1.504  11.125  17.412  0.00  0.00    +0.000 A 
ATOM      8  C   UNL     1      -1.781  11.599  18.700  0.00  0.00    +0.000 A 
ATOM      9  C   UNL     1      -3.096  11.855  19.117  0.00  0.00    +0.000 A 
ATOM     10  C   UNL     1      -4.182  11.626  18.260  0.00  0.00    +0.000 A 
ATOM     11  C   UNL     1      -3.880  11.150  16.981  0.00  0.00    +0.000 A 
ATOM     12  N   UNL     1      -4.655  10.844  15.888  0.00  0.00    +0.000 N 
ATOM     13  H   UNL     1      -5.304  10.075  13.444  0.00  0.00    +0.000 HD
ATOM     14  H   UNL     1      -5.659  10.928  15.836  0.00  0.00    +0.000 HD
ENDROOT
BRANCH   8  15
ATOM     15  S   UNL     1      -0.419  12.008  19.758  0.00  0.00    +0.000 S 
ATOM     16  O   UNL     1       0.621  12.618  18.952  0.00  0.00    +0.000 OA
ATOM     17  O   UNL     1      -0.936  12.657  20.947  0.00  0.00    +0.000 OA
BRANCH  15  18
ATOM     18  C   UNL     1       0.252  10.506  20.290  0.00  0.00    +0.000 A 
ATOM     19  C   UNL     1       0.075   9.944  21.541  0.00  0.00    +0.000 A 
ATOM     20  N   UNL     1       0.714   8.734  21.553  0.00  0.00    +0.000 N 
ATOM     21  C   UNL     1       1.313   8.501  20.335  0.00  0.00    +0.000 A 
ATOM     22  C   UNL     1       2.046   7.391  19.895  0.00  0.00    +0.000 A 
ATOM     23  C   UNL     1       2.540   7.414  18.588  0.00  0.00    +0.000 A 
ATOM     24  C   UNL     1       2.313   8.506  17.757  0.00  0.00    +0.000 A 
ATOM     25  C   UNL     1       1.576   9.605  18.210  0.00  0.00    +0.000 A 
ATOM     26  C   UNL     1       1.055   9.610  19.522  0.00  0.00    +0.000 A 
ATOM     27  H   UNL     1       0.732   8.089  22.332  0.00  0.00    +0.000 HD
ENDBRANCH  15  18
ENDBRANCH   8  15
BRANCH   1  29
ATOM     28  C   UNL     1      -5.667   9.495  11.795  0.00  0.00    +0.000 C 
ATOM     29  O   UNL     1      -4.264   9.353  11.550  0.00  0.00    +0.000 OA
ENDBRANCH   1  29
TORSDOF 3
ENDMDL
MODEL 2
REMARK VINA RESULT:      -8.4      5.263      7.879
REMARK  Name = 
REMARK  4 active torsions:
REMARK  status: ('A' for Active; 'I' for Inactive)
REMARK    1  A    between atoms: C_1  and  O_2
REMARK    2  A    between atoms: O_2  and  C_3
REMARK    3  A    between atoms: C_10  and  S_11
REMARK    4  A    between atoms: S_11  and  C_14
REMARK                            x       y       z     vdW  Elec       q    Type
REMARK                         _______ _______ _______ _____ _____    ______ ____
ROOT
ATOM      1  C   UNL     1      -0.476  11.725  22.268  0.00  0.00    +0.000 C 
ATOM      2  O   UNL     1      -0.358  10.857  23.118  0.00  0.00    +0.000 OA
ATOM      3  N   UNL     1      -0.066  11.707  20.963  0.00  0.00    +0.000 N 
ATOM      4  C   UNL     1       0.551  10.614  20.417  0.00  0.00    +0.000 A 
ATOM      5  N   UNL     1       0.827   9.473  21.004  0.00  0.00    +0.000 NA
ATOM      6  C   UNL     1       1.427   8.688  20.060  0.00  0.00    +0.000 A 
ATOM      7  C   UNL     1       1.892   7.374  20.169  0.00  0.00    +0.000 A 
ATOM      8  C   UNL     1       2.471   6.788  19.037  0.00  0.00    +0.000 A 
ATOM      9  C   UNL     1       2.571   7.484  17.823  0.00  0.00    +0.000 A 
ATOM     10  C   UNL     1       2.107   8.803  17.708  0.00  0.00    +0.000 A 
ATOM     11  C   UNL     1       1.537   9.368  18.852  0.00  0.00    +0.000 A 
ATOM     12  N   UNL     1       0.964  10.591  19.107  0.00  0.00    +0.000 N 
ATOM     13  H   UNL     1      -0.243  12.539  20.425  0.00  0.00    +0.000 HD
ATOM     14  H   UNL     1       0.854  11.341  18.442  0.00  0.00    +0.000 HD
ENDROOT
BRANCH   8  15
ATOM     15  S   UNL     1       2.955   5.085  19.125  0.00  0.00    +0.000 S 
ATOM     16  O   UNL     1       2.910   4.667  20.513  0.00  0.00    +0.000 OA
ATOM     17  O   UNL     1       2.254   4.352  18.089  0.00  0.00    +0.000 OA
BRANCH  15  18
ATOM     18  C   UNL     1       4.629   5.032  18.697  0.00  0.00    +0.000 A 
ATOM     19  C   UNL     1       5.687   5.096  19.584  0.00  0.00    +0.000 A 
ATOM     20  N   UNL     1       6.845   4.965  18.866  0.00  0.00    +0.000 N 
ATOM     21  C   UNL     1       6.561   4.825  17.526  0.00  0.00    +0.000 A 
ATOM     22  C   UNL     1       7.428   4.641  16.442  0.00  0.00    +0.000 A 
ATOM     23  C   UNL     1       6.862   4.518  15.169  0.00  0.00    +0.000 A 
ATOM     24  C   UNL     1       5.484   4.583  14.992  0.00  0.00    +0.000 A 
ATOM     25  C   UNL     1       4.631   4.764  16.086  0.00  0.00    +0.000 A 
ATOM     26  C   UNL     1       5.170   4.883  17.385  0.00  0.00    +0.000 A 
ATOM     27  H   UNL     1       7.778   4.951  19.258  0.00  0.00    +0.000 HD
ENDBRANCH  15  18
ENDBRANCH   8  15
BRANCH   1  29
ATOM     28  C   UNL     1      -2.242  12.829  23.325  0.00  0.00    +0.000 C 
ATOM     29  O   UNL     1      -1.068  12.930  22.512  0.00  0.00    +0.000 OA
ENDBRANCH   1  29
TORSDOF 3
ENDMDL
MODEL 3
REMARK VINA RESULT:      -8.4      5.551      8.116
REMARK  Name = 
REMARK  4 active torsions:
REMARK  status: ('A' for Active; 'I' for Inactive)
REMARK    1  A    between atoms: C_1  and  O_2
REMARK    2  A    between atoms: O_2  and  C_3
REMARK    3  A    between atoms: C_10  and  S_11
REMARK    4  A    between atoms: S_11  and  C_14
REMARK                            x       y       z     vdW  Elec       q    Type
REMARK                         _______ _______ _______ _____ _____    ______ ____
ROOT
ATOM      1  C   UNL     1      -0.544  11.234  22.626  0.00  0.00    +0.000 C 
ATOM      2  O   UNL     1      -0.598  10.316  23.430  0.00  0.00    +0.000 OA
ATOM      3  N   UNL     1      -0.007  11.240  21.368  0.00  0.00    +0.000 N 
ATOM      4  C   UNL     1       0.554  10.119  20.819  0.00  0.00    +0.000 A 
ATOM      5  N   UNL     1       0.656   8.927  21.359  0.00  0.00    +0.000 NA
ATOM      6  C   UNL     1       1.270   8.135  20.431  0.00  0.00    +0.000 A 
ATOM      7  C   UNL     1       1.592   6.776  20.505  0.00  0.00    +0.000 A 
ATOM      8  C   UNL     1       2.225   6.192  19.401  0.00  0.00    +0.000 A 
ATOM      9  C   UNL     1       2.515   6.935  18.247  0.00  0.00    +0.000 A 
ATOM     10  C   UNL     1       2.196   8.298  18.167  0.00  0.00    +0.000 A 
ATOM     11  C   UNL     1       1.568   8.860  19.283  0.00  0.00    +0.000 A 
ATOM     12  N   UNL     1       1.094  10.121  19.556  0.00  0.00    +0.000 N 
ATOM     13  H   UNL     1      -0.046  12.112  20.868  0.00  0.00    +0.000 HD
ATOM     14  H   UNL     1       1.126  10.910  18.930  0.00  0.00    +0.000 HD
ENDROOT
BRANCH   8  15
ATOM     15  S   UNL     1       2.529   4.446  19.431  0.00  0.00    +0.000 S 
ATOM     16  O   UNL     1       3.047   4.093  20.739  0.00  0.00    +0.000 OA
ATOM     17  O   UNL     1       1.382   3.767  18.861  0.00  0.00    +0.000 OA
BRANCH  15  18
ATOM     18  C   UNL     1       3.841   4.162  18.341  0.00  0.00    +0.000 A 
ATOM     19  C   UNL     1       3.762   3.454  17.156  0.00  0.00    +0.000 A 
ATOM     20  N   UNL     1       4.991   3.500  16.556  0.00  0.00    +0.000 N 
ATOM     21  C   UNL     1       5.872   4.218  17.333  0.00  0.00    +0.000 A 
ATOM     22  C   UNL     1       7.216   4.537  17.101  0.00  0.00    +0.000 A 
ATOM     23  C   UNL     1       7.882   5.298  18.067  0.00  0.00    +0.000 A 
ATOM     24  C   UNL     1       7.228   5.716  19.221  0.00  0.00    +0.000 A 
ATOM     25  C   UNL     1       5.884   5.392  19.437  0.00  0.00    +0.000 A 
ATOM     26  C   UNL     1       5.181   4.633  18.477  0.00  0.00    +0.000 A 
ATOM     27  H   UNL     1       5.222   3.087  15.662  0.00  0.00    +0.000 HD
ENDBRANCH  15  18
ENDBRANCH   8  15
BRANCH   1  29
ATOM     28  C   UNL     1      -0.295  13.526  22.251  0.00  0.00    +0.000 C 
ATOM     29  O   UNL     1      -1.039  12.480  22.884  0.00  0.00    +0.000 OA
ENDBRANCH   1  29
TORSDOF 3
ENDMDL
MODEL 4
REMARK VINA RESULT:      -8.3      7.763     10.722
REMARK  Name = 
REMARK  4 active torsions:
REMARK  status: ('A' for Active; 'I' for Inactive)
REMARK    1  A    between atoms: C_1  and  O_2
REMARK    2  A    between atoms: O_2  and  C_3
REMARK    3  A    between atoms: C_10  and  S_11
REMARK    4  A    between atoms: S_11  and  C_14
REMARK                            x       y       z     vdW  Elec       q    Type
REMARK                         _______ _______ _______ _____ _____    ______ ____
ROOT
ATOM      1  C   UNL     1       8.784  11.928  17.936  0.00  0.00    +0.000 C 
ATOM      2  O   UNL     1       7.918  12.034  17.082  0.00  0.00    +0.000 OA
ATOM      3  N   UNL     1       9.166  10.816  18.635  0.00  0.00    +0.000 N 
ATOM      4  C   UNL     1       8.588   9.595  18.417  0.00  0.00    +0.000 A 
ATOM      5  N   UNL     1       7.644   9.297  17.556  0.00  0.00    +0.000 NA
ATOM      6  C   UNL     1       7.407   7.959  17.691  0.00  0.00    +0.000 A 
ATOM      7  C   UNL     1       6.511   7.145  16.990  0.00  0.00    +0.000 A 
ATOM      8  C   UNL     1       6.463   5.786  17.321  0.00  0.00    +0.000 A 
ATOM      9  C   UNL     1       7.295   5.245  18.313  0.00  0.00    +0.000 A 
ATOM     10  C   UNL     1       8.194   6.056  19.022  0.00  0.00    +0.000 A 
ATOM     11  C   UNL     1       8.221   7.410  18.675  0.00  0.00    +0.000 A 
ATOM     12  N   UNL     1       8.969   8.476  19.116  0.00  0.00    +0.000 N 
ATOM     13  H   UNL     1       9.895  10.943  19.317  0.00  0.00    +0.000 HD
ATOM     14  H   UNL     1       9.685   8.439  19.825  0.00  0.00    +0.000 HD
ENDROOT
BRANCH   8  15
ATOM     15  S   UNL     1       5.422   4.721  16.360  0.00  0.00    +0.000 S 
ATOM     16  O   UNL     1       4.697   5.532  15.401  0.00  0.00    +0.000 OA
ATOM     17  O   UNL     1       6.197   3.568  15.945  0.00  0.00    +0.000 OA
BRANCH  15  18
ATOM     18  C   UNL     1       4.213   4.119  17.439  0.00  0.00    +0.000 A 
ATOM     19  C   UNL     1       3.846   2.793  17.575  0.00  0.00    +0.000 A 
ATOM     20  N   UNL     1       2.902   2.717  18.564  0.00  0.00    +0.000 N 
ATOM     21  C   UNL     1       2.642   3.971  19.070  0.00  0.00    +0.000 A 
ATOM     22  C   UNL     1       1.775   4.359  20.098  0.00  0.00    +0.000 A 
ATOM     23  C   UNL     1       1.711   5.718  20.419  0.00  0.00    +0.000 A 
ATOM     24  C   UNL     1       2.481   6.650  19.731  0.00  0.00    +0.000 A 
ATOM     25  C   UNL     1       3.345   6.247  18.708  0.00  0.00    +0.000 A 
ATOM     26  C   UNL     1       3.440   4.880  18.367  0.00  0.00    +0.000 A 
ATOM     27  H   UNL     1       2.470   1.864  18.896  0.00  0.00    +0.000 HD
ENDBRANCH  15  18
ENDBRANCH   8  15
BRANCH   1  29
ATOM     28  C   UNL     1      10.818  13.053  17.704  0.00  0.00    +0.000 C 
ATOM     29  O   UNL     1       9.547  12.979  18.358  0.00  0.00    +0.000 OA
ENDBRANCH   1  29
TORSDOF 3
ENDMDL
MODEL 5
REMARK VINA RESULT:      -7.9      3.262      6.903
REMARK  Name = 
REMARK  4 active torsions:
REMARK  status: ('A' for Active; 'I' for Inactive)
REMARK    1  A    between atoms: C_1  and  O_2
REMARK    2  A    between atoms: O_2  and  C_3
REMARK    3  A    between atoms: C_10  and  S_11
REMARK    4  A    between atoms: S_11  and  C_14
REMARK                            x       y       z     vdW  Elec       q    Type
REMARK                         _______ _______ _______ _____ _____    ______ ____
ROOT
ATOM      1  C   UNL     1       3.767   5.231  18.075  0.00  0.00    +0.000 C 
ATOM      2  O   UNL     1       3.960   6.045  17.185  0.00  0.00    +0.000 OA
ATOM      3  N   UNL     1       3.097   5.397  19.256  0.00  0.00    +0.000 N 
ATOM      4  C   UNL     1       2.498   6.583  19.584  0.00  0.00    +0.000 A 
ATOM      5  N   UNL     1       2.458   7.685  18.872  0.00  0.00    +0.000 NA
ATOM      6  C   UNL     1       1.740   8.589  19.601  0.00  0.00    +0.000 A 
ATOM      7  C   UNL     1       1.390   9.904  19.280  0.00  0.00    +0.000 A 
ATOM      8  C   UNL     1       0.636  10.629  20.211  0.00  0.00    +0.000 A 
ATOM      9  C   UNL     1       0.226  10.055  21.424  0.00  0.00    +0.000 A 
ATOM     10  C   UNL     1       0.575   8.737  21.753  0.00  0.00    +0.000 A 
ATOM     11  C   UNL     1       1.331   8.036  20.809  0.00  0.00    +0.000 A 
ATOM     12  N   UNL     1       1.824   6.753  20.768  0.00  0.00    +0.000 N 
ATOM     13  H   UNL     1       3.065   4.600  19.869  0.00  0.00    +0.000 HD
ATOM     14  H   UNL     1       1.700   6.052  21.482  0.00  0.00    +0.000 HD
ENDROOT
BRANCH   8  15
ATOM     15  S   UNL     1       0.082  12.252  19.767  0.00  0.00    +0.000 S 
ATOM     16  O   UNL     1       0.113  13.088  20.952  0.00  0.00    +0.000 OA
ATOM     17  O   UNL     1       0.749  12.649  18.542  0.00  0.00    +0.000 OA
BRANCH  15  18
ATOM     18  C   UNL     1      -1.594  12.104  19.370  0.00  0.00    +0.000 A 
ATOM     19  C   UNL     1      -2.634  12.741  20.021  0.00  0.00    +0.000 A 
ATOM     20  N   UNL     1      -3.797  12.413  19.378  0.00  0.00    +0.000 N 
ATOM     21  C   UNL     1      -3.535  11.567  18.324  0.00  0.00    +0.000 A 
ATOM     22  C   UNL     1      -4.411  11.004  17.388  0.00  0.00    +0.000 A 
ATOM     23  C   UNL     1      -3.868  10.174  16.404  0.00  0.00    +0.000 A 
ATOM     24  C   UNL     1      -2.503   9.914  16.363  0.00  0.00    +0.000 A 
ATOM     25  C   UNL     1      -1.639  10.486  17.303  0.00  0.00    +0.000 A 
ATOM     26  C   UNL     1      -2.155  11.337  18.304  0.00  0.00    +0.000 A 
ATOM     27  H   UNL     1      -4.717  12.756  19.622  0.00  0.00    +0.000 HD
ENDBRANCH  15  18
ENDBRANCH   8  15
BRANCH   1  29
ATOM     28  C   UNL     1       3.198   2.980  17.828  0.00  0.00    +0.000 C 
ATOM     29  O   UNL     1       4.232   3.949  18.025  0.00  0.00    +0.000 OA
ENDBRANCH   1  29
TORSDOF 3
ENDMDL
MODEL 6
REMARK VINA RESULT:      -7.9      5.198      7.762
REMARK  Name = 
REMARK  4 active torsions:
REMARK  status: ('A' for Active; 'I' for Inactive)
REMARK    1  A    between atoms: C_1  and  O_2
REMARK    2  A    between atoms: O_2  and  C_3
REMARK    3  A    between atoms: C_10  and  S_11
REMARK    4  A    between atoms: S_11  and  C_14
REMARK                            x       y       z     vdW  Elec       q    Type
REMARK                         _______ _______ _______ _____ _____    ______ ____
ROOT
ATOM      1  C   UNL     1      -0.688  10.319  22.938  0.00  0.00    +0.000 C 
ATOM      2  O   UNL     1      -0.064   9.491  23.584  0.00  0.00    +0.000 OA
ATOM      3  N   UNL     1      -0.613  10.596  21.600  0.00  0.00    +0.000 N 
ATOM      4  C   UNL     1       0.221   9.900  20.767  0.00  0.00    +0.000 A 
ATOM      5  N   UNL     1       1.027   8.913  21.080  0.00  0.00    +0.000 NA
ATOM      6  C   UNL     1       1.639   8.532  19.920  0.00  0.00    +0.000 A 
ATOM      7  C   UNL     1       2.569   7.510  19.708  0.00  0.00    +0.000 A 
ATOM      8  C   UNL     1       3.047   7.319  18.405  0.00  0.00    +0.000 A 
ATOM      9  C   UNL     1       2.599   8.113  17.339  0.00  0.00    +0.000 A 
ATOM     10  C   UNL     1       1.668   9.141  17.546  0.00  0.00    +0.000 A 
ATOM     11  C   UNL     1       1.209   9.314  18.855  0.00  0.00    +0.000 A 
ATOM     12  N   UNL     1       0.299  10.174  19.423  0.00  0.00    +0.000 N 
ATOM     13  H   UNL     1      -1.204  11.336  21.261  0.00  0.00    +0.000 HD
ATOM     14  H   UNL     1      -0.230  10.879  18.934  0.00  0.00    +0.000 HD
ENDROOT
BRANCH   8  15
ATOM     15  S   UNL     1       4.133   5.952  18.098  0.00  0.00    +0.000 S 
ATOM     16  O   UNL     1       4.538   5.992  16.706  0.00  0.00    +0.000 OA
ATOM     17  O   UNL     1       5.107   5.885  19.170  0.00  0.00    +0.000 OA
BRANCH  15  18
ATOM     18  C   UNL     1       3.169   4.524  18.240  0.00  0.00    +0.000 A 
ATOM     19  C   UNL     1       2.819   3.684  17.200  0.00  0.00    +0.000 A 
ATOM     20  N   UNL     1       2.105   2.641  17.724  0.00  0.00    +0.000 N 
ATOM     21  C   UNL     1       1.975   2.790  19.086  0.00  0.00    +0.000 A 
ATOM     22  C   UNL     1       1.350   1.958  20.023  0.00  0.00    +0.000 A 
ATOM     23  C   UNL     1       1.375   2.352  21.364  0.00  0.00    +0.000 A 
ATOM     24  C   UNL     1       1.997   3.535  21.749  0.00  0.00    +0.000 A 
ATOM     25  C   UNL     1       2.620   4.354  20.802  0.00  0.00    +0.000 A 
ATOM     26  C   UNL     1       2.620   3.980  19.441  0.00  0.00    +0.000 A 
ATOM     27  H   UNL     1       1.739   1.858  17.196  0.00  0.00    +0.000 HD
ENDBRANCH  15  18
ENDBRANCH   8  15
BRANCH   1  29
ATOM     28  C   UNL     1      -2.041  12.194  22.608  0.00  0.00    +0.000 C 
ATOM     29  O   UNL     1      -1.611  11.157  23.495  0.00  0.00    +0.000 OA
ENDBRANCH   1  29
TORSDOF 3
ENDMDL
MODEL 7
REMARK VINA RESULT:      -7.8      5.451      8.418
REMARK  Name = 
REMARK  4 active torsions:
REMARK  status: ('A' for Active; 'I' for Inactive)
REMARK    1  A    between atoms: C_1  and  O_2
REMARK    2  A    between atoms: O_2  and  C_3
REMARK    3  A    between atoms: C_10  and  S_11
REMARK    4  A    between atoms: S_11  and  C_14
REMARK                            x       y       z     vdW  Elec       q    Type
REMARK                         _______ _______ _______ _____ _____    ______ ____
ROOT
ATOM      1  C   UNL     1       1.115  10.877  19.750  0.00  0.00    +0.000 C 
ATOM      2  O   UNL     1       1.412  10.819  18.567  0.00  0.00    +0.000 OA
ATOM      3  N   UNL     1       1.059   9.866  20.670  0.00  0.00    +0.000 N 
ATOM      4  C   UNL     1       1.380   8.577  20.343  0.00  0.00    +0.000 A 
ATOM      5  N   UNL     1       1.778   8.120  19.179  0.00  0.00    +0.000 NA
ATOM      6  C   UNL     1       1.993   6.781  19.342  0.00  0.00    +0.000 A 
ATOM      7  C   UNL     1       2.446   5.839  18.413  0.00  0.00    +0.000 A 
ATOM      8  C   UNL     1       2.586   4.513  18.839  0.00  0.00    +0.000 A 
ATOM      9  C   UNL     1       2.299   4.136  20.160  0.00  0.00    +0.000 A 
ATOM     10  C   UNL     1       1.843   5.075  21.096  0.00  0.00    +0.000 A 
ATOM     11  C   UNL     1       1.708   6.391  20.645  0.00  0.00    +0.000 A 
ATOM     12  N   UNL     1       1.325   7.559  21.263  0.00  0.00    +0.000 N 
ATOM     13  H   UNL     1       0.770  10.121  21.599  0.00  0.00    +0.000 HD
ATOM     14  H   UNL     1       1.062   7.653  22.232  0.00  0.00    +0.000 HD
ENDROOT
BRANCH   8  15
ATOM     15  S   UNL     1       3.273   3.333  17.709  0.00  0.00    +0.000 S 
ATOM     16  O   UNL     1       3.777   2.207  18.472  0.00  0.00    +0.000 OA
ATOM     17  O   UNL     1       2.344   3.150  16.611  0.00  0.00    +0.000 OA
BRANCH  15  18
ATOM     18  C   UNL     1       4.677   4.074  17.026  0.00  0.00    +0.000 A 
ATOM     19  C   UNL     1       4.981   4.132  15.679  0.00  0.00    +0.000 A 
ATOM     20  N   UNL     1       6.140   4.846  15.539  0.00  0.00    +0.000 N 
ATOM     21  C   UNL     1       6.603   5.247  16.772  0.00  0.00    +0.000 A 
ATOM     22  C   UNL     1       7.729   6.011  17.101  0.00  0.00    +0.000 A 
ATOM     23  C   UNL     1       7.962   6.281  18.453  0.00  0.00    +0.000 A 
ATOM     24  C   UNL     1       7.102   5.800  19.435  0.00  0.00    +0.000 A 
ATOM     25  C   UNL     1       5.979   5.041  19.090  0.00  0.00    +0.000 A 
ATOM     26  C   UNL     1       5.711   4.758  17.734  0.00  0.00    +0.000 A 
ATOM     27  H   UNL     1       6.588   5.069  14.659  0.00  0.00    +0.000 HD
ENDBRANCH  15  18
ENDBRANCH   8  15
BRANCH   1  29
ATOM     28  C   UNL     1      -0.188  11.850  21.427  0.00  0.00    +0.000 C 
ATOM     29  O   UNL     1       0.761  12.040  20.372  0.00  0.00    +0.000 OA
ENDBRANCH   1  29
TORSDOF 3
ENDMDL
MODEL 8
REMARK VINA RESULT:      -7.8      7.526     10.961
REMARK  Name = 
REMARK  4 active torsions:
REMARK  status: ('A' for Active; 'I' for Inactive)
REMARK    1  A    between atoms: C_1  and  O_2
REMARK    2  A    between atoms: O_2  and  C_3
REMARK    3  A    between atoms: C_10  and  S_11
REMARK    4  A    between atoms: S_11  and  C_14
REMARK                            x       y       z     vdW  Elec       q    Type
REMARK                         _______ _______ _______ _____ _____    ______ ____
ROOT
ATOM      1  C   UNL     1       9.391  12.415  18.142  0.00  0.00    +0.000 C 
ATOM      2  O   UNL     1       8.573  12.589  17.252  0.00  0.00    +0.000 OA
ATOM      3  N   UNL     1       9.659  11.274  18.847  0.00  0.00    +0.000 N 
ATOM      4  C   UNL     1       9.004  10.100  18.592  0.00  0.00    +0.000 A 
ATOM      5  N   UNL     1       8.079   9.877  17.688  0.00  0.00    +0.000 NA
ATOM      6  C   UNL     1       7.739   8.559  17.801  0.00  0.00    +0.000 A 
ATOM      7  C   UNL     1       6.818   7.818  17.054  0.00  0.00    +0.000 A 
ATOM      8  C   UNL     1       6.655   6.464  17.370  0.00  0.00    +0.000 A 
ATOM      9  C   UNL     1       7.402   5.857  18.392  0.00  0.00    +0.000 A 
ATOM     10  C   UNL     1       8.326   6.596  19.145  0.00  0.00    +0.000 A 
ATOM     11  C   UNL     1       8.467   7.946  18.813  0.00  0.00    +0.000 A 
ATOM     12  N   UNL     1       9.272   8.951  19.297  0.00  0.00    +0.000 N 
ATOM     13  H   UNL     1      10.366  11.343  19.560  0.00  0.00    +0.000 HD
ATOM     14  H   UNL     1       9.952   8.857  20.035  0.00  0.00    +0.000 HD
ENDROOT
BRANCH   8  15
ATOM     15  S   UNL     1       5.582   5.484  16.355  0.00  0.00    +0.000 S 
ATOM     16  O   UNL     1       5.272   6.238  15.155  0.00  0.00    +0.000 OA
ATOM     17  O   UNL     1       6.112   4.137  16.288  0.00  0.00    +0.000 OA
BRANCH  15  18
ATOM     18  C   UNL     1       4.083   5.364  17.207  0.00  0.00    +0.000 A 
ATOM     19  C   UNL     1       3.283   6.428  17.581  0.00  0.00    +0.000 A 
ATOM     20  N   UNL     1       2.162   5.922  18.180  0.00  0.00    +0.000 N 
ATOM     21  C   UNL     1       2.220   4.546  18.212  0.00  0.00    +0.000 A 
ATOM     22  C   UNL     1       1.291   3.622  18.704  0.00  0.00    +0.000 A 
ATOM     23  C   UNL     1       1.605   2.264  18.600  0.00  0.00    +0.000 A 
ATOM     24  C   UNL     1       2.804   1.850  18.031  0.00  0.00    +0.000 A 
ATOM     25  C   UNL     1       3.721   2.786  17.540  0.00  0.00    +0.000 A 
ATOM     26  C   UNL     1       3.430   4.164  17.622  0.00  0.00    +0.000 A 
ATOM     27  H   UNL     1       1.388   6.470  18.533  0.00  0.00    +0.000 HD
ENDBRANCH  15  18
ENDBRANCH   8  15
BRANCH   1  29
ATOM     28  C   UNL     1      11.596  13.153  18.359  0.00  0.00    +0.000 C 
ATOM     29  O   UNL     1      10.209  13.405  18.606  0.00  0.00    +0.000 OA
ENDBRANCH   1  29
TORSDOF 3
ENDMDL
MODEL 9
REMARK VINA RESULT:      -7.8      6.297      9.134
REMARK  Name = 
REMARK  4 active torsions:
REMARK  status: ('A' for Active; 'I' for Inactive)
REMARK    1  A    between atoms: C_1  and  O_2
REMARK    2  A    between atoms: O_2  and  C_3
REMARK    3  A    between atoms: C_10  and  S_11
REMARK    4  A    between atoms: S_11  and  C_14
REMARK                            x       y       z     vdW  Elec       q    Type
REMARK                         _______ _______ _______ _____ _____    ______ ____
ROOT
ATOM      1  C   UNL     1       6.321   3.398  12.460  0.00  0.00    +0.000 C 
ATOM      2  O   UNL     1       5.113   3.477  12.302  0.00  0.00    +0.000 OA
ATOM      3  N   UNL     1       7.059   3.685  13.576  0.00  0.00    +0.000 N 
ATOM      4  C   UNL     1       6.472   4.102  14.739  0.00  0.00    +0.000 A 
ATOM      5  N   UNL     1       5.193   4.278  14.974  0.00  0.00    +0.000 NA
ATOM      6  C   UNL     1       5.091   4.684  16.274  0.00  0.00    +0.000 A 
ATOM      7  C   UNL     1       3.946   4.982  17.020  0.00  0.00    +0.000 A 
ATOM      8  C   UNL     1       4.116   5.377  18.352  0.00  0.00    +0.000 A 
ATOM      9  C   UNL     1       5.390   5.458  18.934  0.00  0.00    +0.000 A 
ATOM     10  C   UNL     1       6.543   5.163  18.191  0.00  0.00    +0.000 A 
ATOM     11  C   UNL     1       6.347   4.774  16.862  0.00  0.00    +0.000 A 
ATOM     12  N   UNL     1       7.209   4.391  15.862  0.00  0.00    +0.000 N 
ATOM     13  H   UNL     1       8.055   3.570  13.496  0.00  0.00    +0.000 HD
ATOM     14  H   UNL     1       8.212   4.322  15.943  0.00  0.00    +0.000 HD
ENDROOT
BRANCH   8  15
ATOM     15  S   UNL     1       2.670   5.640  19.343  0.00  0.00    +0.000 S 
ATOM     16  O   UNL     1       1.574   4.886  18.765  0.00  0.00    +0.000 OA
ATOM     17  O   UNL     1       3.035   5.498  20.739  0.00  0.00    +0.000 OA
BRANCH  15  18
ATOM     18  C   UNL     1       2.230   7.299  19.132  0.00  0.00    +0.000 A 
ATOM     19  C   UNL     1       2.493   8.063  18.011  0.00  0.00    +0.000 A 
ATOM     20  N   UNL     1       1.939   9.299  18.205  0.00  0.00    +0.000 N 
ATOM     21  C   UNL     1       1.327   9.357  19.438  0.00  0.00    +0.000 A 
ATOM     22  C   UNL     1       0.620  10.406  20.038  0.00  0.00    +0.000 A 
ATOM     23  C   UNL     1       0.088  10.188  21.312  0.00  0.00    +0.000 A 
ATOM     24  C   UNL     1       0.263   8.970  21.960  0.00  0.00    +0.000 A 
ATOM     25  C   UNL     1       0.969   7.930  21.346  0.00  0.00    +0.000 A 
ATOM     26  C   UNL     1       1.510   8.115  20.055  0.00  0.00    +0.000 A 
ATOM     27  H   UNL     1       1.954  10.059  17.537  0.00  0.00    +0.000 HD
ENDBRANCH  15  18
ENDBRANCH   8  15
BRANCH   1  29
ATOM     28  C   UNL     1       6.933   1.653  11.034  0.00  0.00    +0.000 C 
ATOM     29  O   UNL     1       7.176   2.992  11.476  0.00  0.00    +0.000 OA
ENDBRANCH   1  29
TORSDOF 3
ENDMDL
