MODEL 1
REMARK VINA RESULT:      -9.0      0.000      0.000
REMARK  Name = 
REMARK  9 active torsions:
REMARK  status: ('A' for Active; 'I' for Inactive)
REMARK    1  A    between atoms: C_1  and  O_2
REMARK    2  A    between atoms: O_2  and  C_3
REMARK    3  A    between atoms: C_3  and  C_5
REMARK    4  A    between atoms: C_8  and  C_9
REMARK    5  A    between atoms: C_12  and  C_13
REMARK    6  A    between atoms: C_13  and  C_14
REMARK    7  A    between atoms: C_14  and  N_15
REMARK    8  A    between atoms: C_20  and  O_21
REMARK    9  A    between atoms: O_21  and  C_22
REMARK                            x       y       z     vdW  Elec       q    Type
REMARK                         _______ _______ _______ _____ _____    ______ ____
ROOT
ATOM      1  C   UNL     1       2.546   4.155  19.727  0.00  0.00    +0.000 C 
ATOM      2  N   UNL     1       1.886   3.459  18.641  0.00  0.00    +0.000 N 
ATOM      3  C   UNL     1       0.879   2.637  19.076  0.00  0.00    +0.000 C 
ATOM      4  O   UNL     1       0.181   1.938  18.366  0.00  0.00    +0.000 OA
ATOM      5  N   UNL     1       0.793   2.729  20.424  0.00  0.00    +0.000 N 
ATOM      6  C   UNL     1       1.768   3.544  20.913  0.00  0.00    +0.000 C 
ATOM      7  O   UNL     1       1.958   3.759  22.104  0.00  0.00    +0.000 OA
ATOM      8  H   UNL     1       2.178   3.468  17.673  0.00  0.00    +0.000 HD
ATOM      9  H   UNL     1       0.142   2.204  20.978  0.00  0.00    +0.000 HD
ENDROOT
BRANCH   1  13
ATOM     10  C   UNL     1       1.792   8.478  19.357  0.00  0.00    +0.000 A 
ATOM     11  C   UNL     1       1.578   7.790  20.563  0.00  0.00    +0.000 A 
ATOM     12  C   UNL     1       1.849   6.424  20.694  0.00  0.00    +0.000 A 
ATOM     13  C   UNL     1       2.308   5.667  19.607  0.00  0.00    +0.000 A 
ATOM     14  C   UNL     1       2.549   6.357  18.405  0.00  0.00    +0.000 A 
ATOM     15  C   UNL     1       2.293   7.730  18.284  0.00  0.00    +0.000 A 
BRANCH  10  19
ATOM     16  C   UNL     1       1.032  12.712  19.003  0.00  0.00    +0.000 A 
ATOM     17  C   UNL     1       1.919  12.074  18.137  0.00  0.00    +0.000 A 
ATOM     18  C   UNL     1       2.149  10.702  18.253  0.00  0.00    +0.000 A 
ATOM     19  C   UNL     1       1.517   9.928  19.244  0.00  0.00    +0.000 A 
ATOM     20  C   UNL     1       0.626  10.592  20.109  0.00  0.00    +0.000 A 
ATOM     21  C   UNL     1       0.381  11.967  19.991  0.00  0.00    +0.000 A 
BRANCH  16  22
ATOM     22  C   UNL     1       0.823  14.168  18.822  0.00  0.00    +0.000 C 
ATOM     23  O   UNL     1      -0.269  14.669  18.608  0.00  0.00    +0.000 OA
BRANCH  22  25
ATOM     24  C   UNL     1       1.916  16.200  18.527  0.00  0.00    +0.000 C 
ATOM     25  O   UNL     1       1.997  14.834  18.927  0.00  0.00    +0.000 OA
ENDBRANCH  22  25
ENDBRANCH  16  22
ENDBRANCH  10  19
ENDBRANCH   1  13
BRANCH   1  26
ATOM     26  C   UNL     1       4.045   3.781  19.867  0.00  0.00    +0.000 C 
BRANCH  26  27
ATOM     27  N   UNL     1       4.884   3.909  18.682  0.00  0.00    +0.000 N 
ATOM     28  C   UNL     1       5.843   4.992  18.549  0.00  0.00    +0.000 C 
ATOM     29  C   UNL     1       6.157   4.962  17.095  0.00  0.00    +0.000 A 
ATOM     30  C   UNL     1       6.918   5.845  16.357  0.00  0.00    +0.000 A 
ATOM     31  C   UNL     1       7.068   5.591  14.993  0.00  0.00    +0.000 A 
ATOM     32  C   UNL     1       6.482   4.463  14.383  0.00  0.00    +0.000 A 
ATOM     33  C   UNL     1       5.692   3.586  15.134  0.00  0.00    +0.000 A 
ATOM     34  C   UNL     1       5.541   3.869  16.483  0.00  0.00    +0.000 A 
ATOM     35  C   UNL     1       4.700   3.206  17.499  0.00  0.00    +0.000 C 
ATOM     36  O   UNL     1       3.950   2.271  17.300  0.00  0.00    +0.000 OA
BRANCH  32  37
ATOM     37  O   UNL     1       6.760   4.362  13.047  0.00  0.00    +0.000 OA
ATOM     38  C   UNL     1       6.218   3.250  12.349  0.00  0.00    +0.000 C 
ENDBRANCH  32  37
ENDBRANCH  26  27
ENDBRANCH   1  26
TORSDOF 7
ENDMDL
MODEL 2
REMARK VINA RESULT:      -8.9      0.674      1.105
REMARK  Name = 
REMARK  9 active torsions:
REMARK  status: ('A' for Active; 'I' for Inactive)
REMARK    1  A    between atoms: C_1  and  O_2
REMARK    2  A    between atoms: O_2  and  C_3
REMARK    3  A    between atoms: C_3  and  C_5
REMARK    4  A    between atoms: C_8  and  C_9
REMARK    5  A    between atoms: C_12  and  C_13
REMARK    6  A    between atoms: C_13  and  C_14
REMARK    7  A    between atoms: C_14  and  N_15
REMARK    8  A    between atoms: C_20  and  O_21
REMARK    9  A    between atoms: O_21  and  C_22
REMARK                            x       y       z     vdW  Elec       q    Type
REMARK                         _______ _______ _______ _____ _____    ______ ____
ROOT
ATOM      1  C   UNL     1       2.529   4.199  19.835  0.00  0.00    +0.000 C 
ATOM      2  N   UNL     1       1.892   3.562  18.699  0.00  0.00    +0.000 N 
ATOM      3  C   UNL     1       0.908   2.684  19.069  0.00  0.00    +0.000 C 
ATOM      4  O   UNL     1       0.233   2.017  18.308  0.00  0.00    +0.000 OA
ATOM      5  N   UNL     1       0.815   2.678  20.419  0.00  0.00    +0.000 N 
ATOM      6  C   UNL     1       1.764   3.484  20.971  0.00  0.00    +0.000 C 
ATOM      7  O   UNL     1       1.944   3.621  22.174  0.00  0.00    +0.000 OA
ATOM      8  H   UNL     1       2.187   3.648  17.735  0.00  0.00    +0.000 HD
ATOM      9  H   UNL     1       0.177   2.097  20.932  0.00  0.00    +0.000 HD
ENDROOT
BRANCH   1  13
ATOM     10  C   UNL     1       1.653   8.514  19.762  0.00  0.00    +0.000 A 
ATOM     11  C   UNL     1       1.416   7.730  20.903  0.00  0.00    +0.000 A 
ATOM     12  C   UNL     1       1.725   6.366  20.941  0.00  0.00    +0.000 A 
ATOM     13  C   UNL     1       2.248   5.708  19.819  0.00  0.00    +0.000 A 
ATOM     14  C   UNL     1       2.513   6.495  18.683  0.00  0.00    +0.000 A 
ATOM     15  C   UNL     1       2.217   7.865  18.656  0.00  0.00    +0.000 A 
BRANCH  10  19
ATOM     16  C   UNL     1       0.696  12.723  19.755  0.00  0.00    +0.000 A 
ATOM     17  C   UNL     1       0.369  11.921  20.847  0.00  0.00    +0.000 A 
ATOM     18  C   UNL     1       0.693  10.563  20.844  0.00  0.00    +0.000 A 
ATOM     19  C   UNL     1       1.337   9.960  19.747  0.00  0.00    +0.000 A 
ATOM     20  C   UNL     1       1.658  10.788  18.654  0.00  0.00    +0.000 A 
ATOM     21  C   UNL     1       1.346  12.154  18.656  0.00  0.00    +0.000 A 
BRANCH  16  22
ATOM     22  C   UNL     1       0.335  14.158  19.825  0.00  0.00    +0.000 C 
ATOM     23  O   UNL     1       0.457  14.835  20.833  0.00  0.00    +0.000 OA
BRANCH  22  25
ATOM     24  C   UNL     1      -0.400  15.990  18.593  0.00  0.00    +0.000 C 
ATOM     25  O   UNL     1      -0.136  14.589  18.631  0.00  0.00    +0.000 OA
ENDBRANCH  22  25
ENDBRANCH  16  22
ENDBRANCH  10  19
ENDBRANCH   1  13
BRANCH   1  26
ATOM     26  C   UNL     1       4.037   3.859  19.956  0.00  0.00    +0.000 C 
BRANCH  26  27
ATOM     27  N   UNL     1       4.847   3.948  18.747  0.00  0.00    +0.000 N 
ATOM     28  C   UNL     1       5.738   5.072  18.517  0.00  0.00    +0.000 C 
ATOM     29  C   UNL     1       6.028   4.955  17.062  0.00  0.00    +0.000 A 
ATOM     30  C   UNL     1       6.724   5.825  16.248  0.00  0.00    +0.000 A 
ATOM     31  C   UNL     1       6.865   5.482  14.903  0.00  0.00    +0.000 A 
ATOM     32  C   UNL     1       6.336   4.280  14.386  0.00  0.00    +0.000 A 
ATOM     33  C   UNL     1       5.612   3.416  15.215  0.00  0.00    +0.000 A 
ATOM     34  C   UNL     1       5.468   3.787  16.544  0.00  0.00    +0.000 A 
ATOM     35  C   UNL     1       4.685   3.152  17.622  0.00  0.00    +0.000 C 
ATOM     36  O   UNL     1       3.987   2.164  17.506  0.00  0.00    +0.000 OA
BRANCH  32  37
ATOM     37  O   UNL     1       6.596   4.099  13.055  0.00  0.00    +0.000 OA
ATOM     38  C   UNL     1       5.693   3.288  12.318  0.00  0.00    +0.000 C 
ENDBRANCH  32  37
ENDBRANCH  26  27
ENDBRANCH   1  26
TORSDOF 7
ENDMDL
MODEL 3
REMARK VINA RESULT:      -8.8      1.245      1.814
REMARK  Name = 
REMARK  9 active torsions:
REMARK  status: ('A' for Active; 'I' for Inactive)
REMARK    1  A    between atoms: C_1  and  O_2
REMARK    2  A    between atoms: O_2  and  C_3
REMARK    3  A    between atoms: C_3  and  C_5
REMARK    4  A    between atoms: C_8  and  C_9
REMARK    5  A    between atoms: C_12  and  C_13
REMARK    6  A    between atoms: C_13  and  C_14
REMARK    7  A    between atoms: C_14  and  N_15
REMARK    8  A    between atoms: C_20  and  O_21
REMARK    9  A    between atoms: O_21  and  C_22
REMARK                            x       y       z     vdW  Elec       q    Type
REMARK                         _______ _______ _______ _____ _____    ______ ____
ROOT
ATOM      1  C   UNL     1       2.484   4.344  19.669  0.00  0.00    +0.000 C 
ATOM      2  N   UNL     1       1.650   3.687  18.682  0.00  0.00    +0.000 N 
ATOM      3  C   UNL     1       0.802   2.765  19.236  0.00  0.00    +0.000 C 
ATOM      4  O   UNL     1       0.009   2.074  18.624  0.00  0.00    +0.000 OA
ATOM      5  N   UNL     1       0.994   2.746  20.576  0.00  0.00    +0.000 N 
ATOM      6  C   UNL     1       2.004   3.589  20.929  0.00  0.00    +0.000 C 
ATOM      7  O   UNL     1       2.427   3.725  22.070  0.00  0.00    +0.000 OA
ATOM      8  H   UNL     1       1.732   3.792  17.679  0.00  0.00    +0.000 HD
ATOM      9  H   UNL     1       0.503   2.135  21.202  0.00  0.00    +0.000 HD
ENDROOT
BRANCH   1  13
ATOM     10  C   UNL     1       1.442   8.619  19.830  0.00  0.00    +0.000 A 
ATOM     11  C   UNL     1       1.204   7.757  20.915  0.00  0.00    +0.000 A 
ATOM     12  C   UNL     1       1.565   6.407  20.879  0.00  0.00    +0.000 A 
ATOM     13  C   UNL     1       2.144   5.839  19.736  0.00  0.00    +0.000 A 
ATOM     14  C   UNL     1       2.409   6.703  18.658  0.00  0.00    +0.000 A 
ATOM     15  C   UNL     1       2.061   8.061  18.705  0.00  0.00    +0.000 A 
BRANCH  10  19
ATOM     16  C   UNL     1       0.328  12.783  20.056  0.00  0.00    +0.000 A 
ATOM     17  C   UNL     1       0.232  11.959  21.177  0.00  0.00    +0.000 A 
ATOM     18  C   UNL     1       0.606  10.617  21.096  0.00  0.00    +0.000 A 
ATOM     19  C   UNL     1       1.069  10.050  19.894  0.00  0.00    +0.000 A 
ATOM     20  C   UNL     1       1.157  10.899  18.774  0.00  0.00    +0.000 A 
ATOM     21  C   UNL     1       0.796  12.251  18.851  0.00  0.00    +0.000 A 
BRANCH  16  22
ATOM     22  C   UNL     1      -0.074  14.201  20.210  0.00  0.00    +0.000 C 
ATOM     23  O   UNL     1      -0.512  14.667  21.249  0.00  0.00    +0.000 OA
BRANCH  22  25
ATOM     24  C   UNL     1       1.213  15.790  19.101  0.00  0.00    +0.000 C 
ATOM     25  O   UNL     1       0.118  14.878  19.054  0.00  0.00    +0.000 OA
ENDBRANCH  22  25
ENDBRANCH  16  22
ENDBRANCH  10  19
ENDBRANCH   1  13
BRANCH   1  26
ATOM     26  C   UNL     1       3.996   4.068  19.466  0.00  0.00    +0.000 C 
BRANCH  26  27
ATOM     27  N   UNL     1       4.584   4.444  18.187  0.00  0.00    +0.000 N 
ATOM     28  C   UNL     1       4.128   3.850  16.942  0.00  0.00    +0.000 C 
ATOM     29  C   UNL     1       5.224   4.203  16.000  0.00  0.00    +0.000 A 
ATOM     30  C   UNL     1       5.404   3.799  14.694  0.00  0.00    +0.000 A 
ATOM     31  C   UNL     1       6.523   4.280  14.013  0.00  0.00    +0.000 A 
ATOM     32  C   UNL     1       7.436   5.165  14.625  0.00  0.00    +0.000 A 
ATOM     33  C   UNL     1       7.258   5.550  15.958  0.00  0.00    +0.000 A 
ATOM     34  C   UNL     1       6.149   5.044  16.619  0.00  0.00    +0.000 A 
ATOM     35  C   UNL     1       5.752   5.179  18.035  0.00  0.00    +0.000 C 
ATOM     36  O   UNL     1       6.376   5.766  18.896  0.00  0.00    +0.000 OA
BRANCH  32  37
ATOM     37  O   UNL     1       8.455   5.552  13.797  0.00  0.00    +0.000 OA
ATOM     38  C   UNL     1       8.141   5.755  12.427  0.00  0.00    +0.000 C 
ENDBRANCH  32  37
ENDBRANCH  26  27
ENDBRANCH   1  26
TORSDOF 7
ENDMDL
MODEL 4
REMARK VINA RESULT:      -8.8      1.273      1.808
REMARK  Name = 
REMARK  9 active torsions:
REMARK  status: ('A' for Active; 'I' for Inactive)
REMARK    1  A    between atoms: C_1  and  O_2
REMARK    2  A    between atoms: O_2  and  C_3
REMARK    3  A    between atoms: C_3  and  C_5
REMARK    4  A    between atoms: C_8  and  C_9
REMARK    5  A    between atoms: C_12  and  C_13
REMARK    6  A    between atoms: C_13  and  C_14
REMARK    7  A    between atoms: C_14  and  N_15
REMARK    8  A    between atoms: C_20  and  O_21
REMARK    9  A    between atoms: O_21  and  C_22
REMARK                            x       y       z     vdW  Elec       q    Type
REMARK                         _______ _______ _______ _____ _____    ______ ____
ROOT
ATOM      1  C   UNL     1       2.428   4.328  19.647  0.00  0.00    +0.000 C 
ATOM      2  N   UNL     1       1.606   3.646  18.666  0.00  0.00    +0.000 N 
ATOM      3  C   UNL     1       0.769   2.721  19.231  0.00  0.00    +0.000 C 
ATOM      4  O   UNL     1      -0.012   2.011  18.626  0.00  0.00    +0.000 OA
ATOM      5  N   UNL     1       0.957   2.724  20.571  0.00  0.00    +0.000 N 
ATOM      6  C   UNL     1       1.954   3.585  20.915  0.00  0.00    +0.000 C 
ATOM      7  O   UNL     1       2.370   3.743  22.056  0.00  0.00    +0.000 OA
ATOM      8  H   UNL     1       1.691   3.738  17.662  0.00  0.00    +0.000 HD
ATOM      9  H   UNL     1       0.470   2.115  21.205  0.00  0.00    +0.000 HD
ENDROOT
BRANCH   1  13
ATOM     10  C   UNL     1       1.465   8.622  19.801  0.00  0.00    +0.000 A 
ATOM     11  C   UNL     1       1.983   8.021  18.641  0.00  0.00    +0.000 A 
ATOM     12  C   UNL     1       2.258   6.651  18.578  0.00  0.00    +0.000 A 
ATOM     13  C   UNL     1       2.069   5.819  19.691  0.00  0.00    +0.000 A 
ATOM     14  C   UNL     1       1.525   6.412  20.845  0.00  0.00    +0.000 A 
ATOM     15  C   UNL     1       1.235   7.783  20.898  0.00  0.00    +0.000 A 
BRANCH  10  19
ATOM     16  C   UNL     1       0.618  12.853  19.884  0.00  0.00    +0.000 A 
ATOM     17  C   UNL     1       1.183  12.263  18.755  0.00  0.00    +0.000 A 
ATOM     18  C   UNL     1       1.442  10.892  18.734  0.00  0.00    +0.000 A 
ATOM     19  C   UNL     1       1.164  10.071  19.842  0.00  0.00    +0.000 A 
ATOM     20  C   UNL     1       0.595  10.687  20.973  0.00  0.00    +0.000 A 
ATOM     21  C   UNL     1       0.320  12.061  20.997  0.00  0.00    +0.000 A 
BRANCH  16  22
ATOM     22  C   UNL     1       0.357  14.311  19.840  0.00  0.00    +0.000 C 
ATOM     23  O   UNL     1      -0.013  14.898  18.835  0.00  0.00    +0.000 OA
BRANCH  22  25
ATOM     24  C   UNL     1       1.686  15.779  21.061  0.00  0.00    +0.000 C 
ATOM     25  O   UNL     1       0.585  14.873  21.050  0.00  0.00    +0.000 OA
ENDBRANCH  22  25
ENDBRANCH  16  22
ENDBRANCH  10  19
ENDBRANCH   1  13
BRANCH   1  26
ATOM     26  C   UNL     1       3.945   4.069  19.453  0.00  0.00    +0.000 C 
BRANCH  26  27
ATOM     27  N   UNL     1       4.538   4.463  18.182  0.00  0.00    +0.000 N 
ATOM     28  C   UNL     1       4.094   3.879  16.928  0.00  0.00    +0.000 C 
ATOM     29  C   UNL     1       5.194   4.249  15.997  0.00  0.00    +0.000 A 
ATOM     30  C   UNL     1       5.385   3.860  14.687  0.00  0.00    +0.000 A 
ATOM     31  C   UNL     1       6.506   4.355  14.020  0.00  0.00    +0.000 A 
ATOM     32  C   UNL     1       7.409   5.239  14.647  0.00  0.00    +0.000 A 
ATOM     33  C   UNL     1       7.220   5.609  15.982  0.00  0.00    +0.000 A 
ATOM     34  C   UNL     1       6.110   5.089  16.631  0.00  0.00    +0.000 A 
ATOM     35  C   UNL     1       5.703   5.206  18.045  0.00  0.00    +0.000 C 
ATOM     36  O   UNL     1       6.318   5.787  18.917  0.00  0.00    +0.000 OA
BRANCH  32  37
ATOM     37  O   UNL     1       8.431   5.641  13.830  0.00  0.00    +0.000 OA
ATOM     38  C   UNL     1       8.178   5.669  12.433  0.00  0.00    +0.000 C 
ENDBRANCH  32  37
ENDBRANCH  26  27
ENDBRANCH   1  26
TORSDOF 7
ENDMDL
MODEL 5
REMARK VINA RESULT:      -8.7      4.514     11.555
REMARK  Name = 
REMARK  9 active torsions:
REMARK  status: ('A' for Active; 'I' for Inactive)
REMARK    1  A    between atoms: C_1  and  O_2
REMARK    2  A    between atoms: O_2  and  C_3
REMARK    3  A    between atoms: C_3  and  C_5
REMARK    4  A    between atoms: C_8  and  C_9
REMARK    5  A    between atoms: C_12  and  C_13
REMARK    6  A    between atoms: C_13  and  C_14
REMARK    7  A    between atoms: C_14  and  N_15
REMARK    8  A    between atoms: C_20  and  O_21
REMARK    9  A    between atoms: O_21  and  C_22
REMARK                            x       y       z     vdW  Elec       q    Type
REMARK                         _______ _______ _______ _____ _____    ______ ____
ROOT
ATOM      1  C   UNL     1      -0.244  11.725  19.862  0.00  0.00    +0.000 C 
ATOM      2  N   UNL     1      -1.664  11.557  19.626  0.00  0.00    +0.000 N 
ATOM      3  C   UNL     1      -2.072  12.111  18.441  0.00  0.00    +0.000 C 
ATOM      4  O   UNL     1      -3.212  12.113  18.017  0.00  0.00    +0.000 OA
ATOM      5  N   UNL     1      -0.999  12.658  17.824  0.00  0.00    +0.000 N 
ATOM      6  C   UNL     1       0.114  12.544  18.602  0.00  0.00    +0.000 C 
ATOM      7  O   UNL     1       1.211  13.003  18.313  0.00  0.00    +0.000 OA
ATOM      8  H   UNL     1      -2.329  11.177  20.287  0.00  0.00    +0.000 HD
ATOM      9  H   UNL     1      -1.047  13.143  16.946  0.00  0.00    +0.000 HD
ENDROOT
BRANCH   1  13
ATOM     10  C   UNL     1       1.696   7.772  19.872  0.00  0.00    +0.000 A 
ATOM     11  C   UNL     1       1.688   8.590  18.730  0.00  0.00    +0.000 A 
ATOM     12  C   UNL     1       1.102   9.860  18.733  0.00  0.00    +0.000 A 
ATOM     13  C   UNL     1       0.455  10.359  19.872  0.00  0.00    +0.000 A 
ATOM     14  C   UNL     1       0.484   9.555  21.026  0.00  0.00    +0.000 A 
ATOM     15  C   UNL     1       1.087   8.290  21.023  0.00  0.00    +0.000 A 
BRANCH  10  19
ATOM     16  C   UNL     1       3.543   3.871  19.863  0.00  0.00    +0.000 A 
ATOM     17  C   UNL     1       2.394   4.112  20.614  0.00  0.00    +0.000 A 
ATOM     18  C   UNL     1       1.798   5.374  20.601  0.00  0.00    +0.000 A 
ATOM     19  C   UNL     1       2.337   6.438  19.854  0.00  0.00    +0.000 A 
ATOM     20  C   UNL     1       3.498   6.174  19.104  0.00  0.00    +0.000 A 
ATOM     21  C   UNL     1       4.095   4.906  19.102  0.00  0.00    +0.000 A 
BRANCH  16  22
ATOM     22  C   UNL     1       4.121   2.508  19.910  0.00  0.00    +0.000 C 
ATOM     23  O   UNL     1       5.174   2.242  20.466  0.00  0.00    +0.000 OA
BRANCH  22  25
ATOM     24  C   UNL     1       3.575   1.555  17.859  0.00  0.00    +0.000 C 
ATOM     25  O   UNL     1       3.322   1.629  19.261  0.00  0.00    +0.000 OA
ENDBRANCH  22  25
ENDBRANCH  16  22
ENDBRANCH  10  19
ENDBRANCH   1  13
BRANCH   1  26
ATOM     26  C   UNL     1       0.065  12.581  21.118  0.00  0.00    +0.000 C 
BRANCH  26  27
ATOM     27  N   UNL     1      -1.058  12.969  21.962  0.00  0.00    +0.000 N 
ATOM     28  C   UNL     1      -1.529  12.111  23.035  0.00  0.00    +0.000 C 
ATOM     29  C   UNL     1      -2.867  12.686  23.338  0.00  0.00    +0.000 A 
ATOM     30  C   UNL     1      -3.840  12.206  24.191  0.00  0.00    +0.000 A 
ATOM     31  C   UNL     1      -5.021  12.940  24.306  0.00  0.00    +0.000 A 
ATOM     32  C   UNL     1      -5.217  14.142  23.595  0.00  0.00    +0.000 A 
ATOM     33  C   UNL     1      -4.235  14.608  22.715  0.00  0.00    +0.000 A 
ATOM     34  C   UNL     1      -3.077  13.852  22.602  0.00  0.00    +0.000 A 
ATOM     35  C   UNL     1      -1.924  14.021  21.696  0.00  0.00    +0.000 C 
ATOM     36  O   UNL     1      -1.808  14.881  20.845  0.00  0.00    +0.000 OA
BRANCH  32  37
ATOM     37  O   UNL     1      -6.422  14.737  23.855  0.00  0.00    +0.000 OA
ATOM     38  C   UNL     1      -7.171  15.207  22.743  0.00  0.00    +0.000 C 
ENDBRANCH  32  37
ENDBRANCH  26  27
ENDBRANCH   1  26
TORSDOF 7
ENDMDL
MODEL 6
REMARK VINA RESULT:      -8.7      0.668      1.132
REMARK  Name = 
REMARK  9 active torsions:
REMARK  status: ('A' for Active; 'I' for Inactive)
REMARK    1  A    between atoms: C_1  and  O_2
REMARK    2  A    between atoms: O_2  and  C_3
REMARK    3  A    between atoms: C_3  and  C_5
REMARK    4  A    between atoms: C_8  and  C_9
REMARK    5  A    between atoms: C_12  and  C_13
REMARK    6  A    between atoms: C_13  and  C_14
REMARK    7  A    between atoms: C_14  and  N_15
REMARK    8  A    between atoms: C_20  and  O_21
REMARK    9  A    between atoms: O_21  and  C_22
REMARK                            x       y       z     vdW  Elec       q    Type
REMARK                         _______ _______ _______ _____ _____    ______ ____
ROOT
ATOM      1  C   UNL     1       2.457   4.234  19.802  0.00  0.00    +0.000 C 
ATOM      2  N   UNL     1       1.860   3.604  18.641  0.00  0.00    +0.000 N 
ATOM      3  C   UNL     1       0.897   2.687  18.974  0.00  0.00    +0.000 C 
ATOM      4  O   UNL     1       0.255   2.017  18.187  0.00  0.00    +0.000 OA
ATOM      5  N   UNL     1       0.782   2.647  20.322  0.00  0.00    +0.000 N 
ATOM      6  C   UNL     1       1.696   3.470  20.908  0.00  0.00    +0.000 C 
ATOM      7  O   UNL     1       1.851   3.584  22.117  0.00  0.00    +0.000 OA
ATOM      8  H   UNL     1       2.168   3.720  17.685  0.00  0.00    +0.000 HD
ATOM      9  H   UNL     1       0.153   2.035  20.811  0.00  0.00    +0.000 HD
ENDROOT
BRANCH   1  13
ATOM     10  C   UNL     1       1.584   8.549  19.872  0.00  0.00    +0.000 A 
ATOM     11  C   UNL     1       2.155   7.927  18.748  0.00  0.00    +0.000 A 
ATOM     12  C   UNL     1       2.402   6.551  18.710  0.00  0.00    +0.000 A 
ATOM     13  C   UNL     1       2.129   5.733  19.815  0.00  0.00    +0.000 A 
ATOM     14  C   UNL     1       1.532   6.346  20.932  0.00  0.00    +0.000 A 
ATOM     15  C   UNL     1       1.270   7.723  20.959  0.00  0.00    +0.000 A 
BRANCH  10  19
ATOM     16  C   UNL     1       0.822  12.798  19.873  0.00  0.00    +0.000 A 
ATOM     17  C   UNL     1       1.264  12.154  18.718  0.00  0.00    +0.000 A 
ATOM     18  C   UNL     1       1.496  10.778  18.725  0.00  0.00    +0.000 A 
ATOM     19  C   UNL     1       1.313  10.004  19.886  0.00  0.00    +0.000 A 
ATOM     20  C   UNL     1       0.868  10.674  21.042  0.00  0.00    +0.000 A 
ATOM     21  C   UNL     1       0.621  12.053  21.039  0.00  0.00    +0.000 A 
BRANCH  16  22
ATOM     22  C   UNL     1       0.584  14.258  19.797  0.00  0.00    +0.000 C 
ATOM     23  O   UNL     1       1.017  15.054  20.614  0.00  0.00    +0.000 OA
BRANCH  22  25
ATOM     24  C   UNL     1      -0.289  15.964  18.477  0.00  0.00    +0.000 C 
ATOM     25  O   UNL     1      -0.166  14.562  18.712  0.00  0.00    +0.000 OA
ENDBRANCH  22  25
ENDBRANCH  16  22
ENDBRANCH  10  19
ENDBRANCH   1  13
BRANCH   1  26
ATOM     26  C   UNL     1       3.972   3.937  19.941  0.00  0.00    +0.000 C 
BRANCH  26  27
ATOM     27  N   UNL     1       4.793   4.043  18.741  0.00  0.00    +0.000 N 
ATOM     28  C   UNL     1       5.650   5.192  18.512  0.00  0.00    +0.000 C 
ATOM     29  C   UNL     1       5.961   5.073  17.061  0.00  0.00    +0.000 A 
ATOM     30  C   UNL     1       6.637   5.958  16.247  0.00  0.00    +0.000 A 
ATOM     31  C   UNL     1       6.805   5.609  14.907  0.00  0.00    +0.000 A 
ATOM     32  C   UNL     1       6.320   4.387  14.395  0.00  0.00    +0.000 A 
ATOM     33  C   UNL     1       5.614   3.507  15.222  0.00  0.00    +0.000 A 
ATOM     34  C   UNL     1       5.443   3.884  16.546  0.00  0.00    +0.000 A 
ATOM     35  C   UNL     1       4.669   3.233  17.621  0.00  0.00    +0.000 C 
ATOM     36  O   UNL     1       4.004   2.222  17.506  0.00  0.00    +0.000 OA
BRANCH  32  37
ATOM     37  O   UNL     1       6.601   4.204  13.068  0.00  0.00    +0.000 OA
ATOM     38  C   UNL     1       5.838   3.232  12.368  0.00  0.00    +0.000 C 
ENDBRANCH  32  37
ENDBRANCH  26  27
ENDBRANCH   1  26
TORSDOF 7
ENDMDL
MODEL 7
REMARK VINA RESULT:      -8.6      0.508      1.240
REMARK  Name = 
REMARK  9 active torsions:
REMARK  status: ('A' for Active; 'I' for Inactive)
REMARK    1  A    between atoms: C_1  and  O_2
REMARK    2  A    between atoms: O_2  and  C_3
REMARK    3  A    between atoms: C_3  and  C_5
REMARK    4  A    between atoms: C_8  and  C_9
REMARK    5  A    between atoms: C_12  and  C_13
REMARK    6  A    between atoms: C_13  and  C_14
REMARK    7  A    between atoms: C_14  and  N_15
REMARK    8  A    between atoms: C_20  and  O_21
REMARK    9  A    between atoms: O_21  and  C_22
REMARK                            x       y       z     vdW  Elec       q    Type
REMARK                         _______ _______ _______ _____ _____    ______ ____
ROOT
ATOM      1  C   UNL     1       2.509   4.270  19.698  0.00  0.00    +0.000 C 
ATOM      2  N   UNL     1       1.858   3.543  18.627  0.00  0.00    +0.000 N 
ATOM      3  C   UNL     1       0.876   2.701  19.080  0.00  0.00    +0.000 C 
ATOM      4  O   UNL     1       0.190   1.975  18.385  0.00  0.00    +0.000 OA
ATOM      5  N   UNL     1       0.798   2.808  20.427  0.00  0.00    +0.000 N 
ATOM      6  C   UNL     1       1.755   3.655  20.899  0.00  0.00    +0.000 C 
ATOM      7  O   UNL     1       1.949   3.890  22.084  0.00  0.00    +0.000 OA
ATOM      8  H   UNL     1       2.142   3.547  17.656  0.00  0.00    +0.000 HD
ATOM      9  H   UNL     1       0.165   2.274  20.994  0.00  0.00    +0.000 HD
ENDROOT
BRANCH   1  13
ATOM     10  C   UNL     1       1.782   8.597  19.326  0.00  0.00    +0.000 A 
ATOM     11  C   UNL     1       2.236   7.827  18.242  0.00  0.00    +0.000 A 
ATOM     12  C   UNL     1       2.436   6.446  18.348  0.00  0.00    +0.000 A 
ATOM     13  C   UNL     1       2.231   5.773  19.560  0.00  0.00    +0.000 A 
ATOM     14  C   UNL     1       1.750   6.536  20.640  0.00  0.00    +0.000 A 
ATOM     15  C   UNL     1       1.535   7.916  20.524  0.00  0.00    +0.000 A 
BRANCH  10  19
ATOM     16  C   UNL     1       1.089  12.841  18.951  0.00  0.00    +0.000 A 
ATOM     17  C   UNL     1       0.431  12.096  19.929  0.00  0.00    +0.000 A 
ATOM     18  C   UNL     1       0.671  10.727  20.049  0.00  0.00    +0.000 A 
ATOM     19  C   UNL     1       1.559  10.054  19.189  0.00  0.00    +0.000 A 
ATOM     20  C   UNL     1       2.211  10.824  18.207  0.00  0.00    +0.000 A 
ATOM     21  C   UNL     1       1.985  12.202  18.089  0.00  0.00    +0.000 A 
BRANCH  16  22
ATOM     22  C   UNL     1       0.799  14.292  18.882  0.00  0.00    +0.000 C 
ATOM     23  O   UNL     1      -0.293  14.747  18.581  0.00  0.00    +0.000 OA
BRANCH  22  25
ATOM     24  C   UNL     1       1.774  15.746  20.414  0.00  0.00    +0.000 C 
ATOM     25  O   UNL     1       1.900  15.013  19.197  0.00  0.00    +0.000 OA
ENDBRANCH  22  25
ENDBRANCH  16  22
ENDBRANCH  10  19
ENDBRANCH   1  13
BRANCH   1  26
ATOM     26  C   UNL     1       4.017   3.936  19.830  0.00  0.00    +0.000 C 
BRANCH  26  27
ATOM     27  N   UNL     1       4.826   3.985  18.619  0.00  0.00    +0.000 N 
ATOM     28  C   UNL     1       5.720   5.099  18.352  0.00  0.00    +0.000 C 
ATOM     29  C   UNL     1       6.009   4.935  16.902  0.00  0.00    +0.000 A 
ATOM     30  C   UNL     1       6.706   5.776  16.060  0.00  0.00    +0.000 A 
ATOM     31  C   UNL     1       6.846   5.390  14.726  0.00  0.00    +0.000 A 
ATOM     32  C   UNL     1       6.313   4.174  14.249  0.00  0.00    +0.000 A 
ATOM     33  C   UNL     1       5.588   3.339  15.105  0.00  0.00    +0.000 A 
ATOM     34  C   UNL     1       5.446   3.752  16.422  0.00  0.00    +0.000 A 
ATOM     35  C   UNL     1       4.662   3.154  17.520  0.00  0.00    +0.000 C 
ATOM     36  O   UNL     1       3.962   2.164  17.436  0.00  0.00    +0.000 OA
BRANCH  32  37
ATOM     37  O   UNL     1       6.572   3.950  12.924  0.00  0.00    +0.000 OA
ATOM     38  C   UNL     1       7.463   4.845  12.273  0.00  0.00    +0.000 C 
ENDBRANCH  32  37
ENDBRANCH  26  27
ENDBRANCH   1  26
TORSDOF 7
ENDMDL
MODEL 8
REMARK VINA RESULT:      -8.6      3.887     10.110
REMARK  Name = 
REMARK  9 active torsions:
REMARK  status: ('A' for Active; 'I' for Inactive)
REMARK    1  A    between atoms: C_1  and  O_2
REMARK    2  A    between atoms: O_2  and  C_3
REMARK    3  A    between atoms: C_3  and  C_5
REMARK    4  A    between atoms: C_8  and  C_9
REMARK    5  A    between atoms: C_12  and  C_13
REMARK    6  A    between atoms: C_13  and  C_14
REMARK    7  A    between atoms: C_14  and  N_15
REMARK    8  A    between atoms: C_20  and  O_21
REMARK    9  A    between atoms: O_21  and  C_22
REMARK                            x       y       z     vdW  Elec       q    Type
REMARK                         _______ _______ _______ _____ _____    ______ ____
ROOT
ATOM      1  C   UNL     1       0.088  12.170  19.864  0.00  0.00    +0.000 C 
ATOM      2  N   UNL     1       0.659  12.872  20.997  0.00  0.00    +0.000 N 
ATOM      3  C   UNL     1      -0.274  13.183  21.950  0.00  0.00    +0.000 C 
ATOM      4  O   UNL     1      -0.053  13.778  22.988  0.00  0.00    +0.000 OA
ATOM      5  N   UNL     1      -1.481  12.725  21.545  0.00  0.00    +0.000 N 
ATOM      6  C   UNL     1      -1.393  12.170  20.304  0.00  0.00    +0.000 C 
ATOM      7  O   UNL     1      -2.345  11.728  19.673  0.00  0.00    +0.000 OA
ATOM      8  H   UNL     1       1.612  13.207  21.062  0.00  0.00    +0.000 HD
ATOM      9  H   UNL     1      -2.330  12.850  22.066  0.00  0.00    +0.000 HD
ENDROOT
BRANCH   1  13
ATOM     10  C   UNL     1       1.796   8.117  19.644  0.00  0.00    +0.000 A 
ATOM     11  C   UNL     1       1.273   8.636  20.841  0.00  0.00    +0.000 A 
ATOM     12  C   UNL     1       0.699   9.910  20.906  0.00  0.00    +0.000 A 
ATOM     13  C   UNL     1       0.659  10.748  19.783  0.00  0.00    +0.000 A 
ATOM     14  C   UNL     1       1.156  10.222  18.576  0.00  0.00    +0.000 A 
ATOM     15  C   UNL     1       1.715   8.937  18.512  0.00  0.00    +0.000 A 
BRANCH  10  19
ATOM     16  C   UNL     1       3.517   4.164  19.441  0.00  0.00    +0.000 A 
ATOM     17  C   UNL     1       3.869   5.142  18.511  0.00  0.00    +0.000 A 
ATOM     18  C   UNL     1       3.315   6.420  18.593  0.00  0.00    +0.000 A 
ATOM     19  C   UNL     1       2.382   6.759  19.591  0.00  0.00    +0.000 A 
ATOM     20  C   UNL     1       2.039   5.757  20.519  0.00  0.00    +0.000 A 
ATOM     21  C   UNL     1       2.601   4.474  20.451  0.00  0.00    +0.000 A 
BRANCH  16  22
ATOM     22  C   UNL     1       4.148   2.830  19.307  0.00  0.00    +0.000 C 
ATOM     23  O   UNL     1       4.820   2.312  20.184  0.00  0.00    +0.000 OA
BRANCH  22  25
ATOM     24  C   UNL     1       2.486   2.004  17.904  0.00  0.00    +0.000 C 
ATOM     25  O   UNL     1       3.870   2.292  18.096  0.00  0.00    +0.000 OA
ENDBRANCH  22  25
ENDBRANCH  16  22
ENDBRANCH  10  19
ENDBRANCH   1  13
BRANCH   1  26
ATOM     26  C   UNL     1       0.215  12.958  18.535  0.00  0.00    +0.000 C 
BRANCH  26  27
ATOM     27  N   UNL     1       1.346  13.866  18.395  0.00  0.00    +0.000 N 
ATOM     28  C   UNL     1       2.623  13.407  17.877  0.00  0.00    +0.000 C 
ATOM     29  C   UNL     1       3.543  14.506  18.277  0.00  0.00    +0.000 A 
ATOM     30  C   UNL     1       4.916  14.568  18.164  0.00  0.00    +0.000 A 
ATOM     31  C   UNL     1       5.554  15.725  18.613  0.00  0.00    +0.000 A 
ATOM     32  C   UNL     1       4.827  16.809  19.148  0.00  0.00    +0.000 A 
ATOM     33  C   UNL     1       3.437  16.728  19.281  0.00  0.00    +0.000 A 
ATOM     34  C   UNL     1       2.827  15.561  18.846  0.00  0.00    +0.000 A 
ATOM     35  C   UNL     1       1.416  15.138  18.946  0.00  0.00    +0.000 C 
ATOM     36  O   UNL     1       0.521  15.768  19.474  0.00  0.00    +0.000 OA
BRANCH  32  37
ATOM     37  O   UNL     1       5.616  17.867  19.509  0.00  0.00    +0.000 OA
ATOM     38  C   UNL     1       7.019  17.651  19.550  0.00  0.00    +0.000 C 
ENDBRANCH  32  37
ENDBRANCH  26  27
ENDBRANCH   1  26
TORSDOF 7
ENDMDL
MODEL 9
REMARK VINA RESULT:      -8.5      4.521     11.316
REMARK  Name = 
REMARK  9 active torsions:
REMARK  status: ('A' for Active; 'I' for Inactive)
REMARK    1  A    between atoms: C_1  and  O_2
REMARK    2  A    between atoms: O_2  and  C_3
REMARK    3  A    between atoms: C_3  and  C_5
REMARK    4  A    between atoms: C_8  and  C_9
REMARK    5  A    between atoms: C_12  and  C_13
REMARK    6  A    between atoms: C_13  and  C_14
REMARK    7  A    between atoms: C_14  and  N_15
REMARK    8  A    between atoms: C_20  and  O_21
REMARK    9  A    between atoms: O_21  and  C_22
REMARK                            x       y       z     vdW  Elec       q    Type
REMARK                         _______ _______ _______ _____ _____    ______ ____
ROOT
ATOM      1  C   UNL     1      -0.724  10.960  19.754  0.00  0.00    +0.000 C 
ATOM      2  N   UNL     1      -1.948  10.692  19.026  0.00  0.00    +0.000 N 
ATOM      3  C   UNL     1      -2.310  11.726  18.202  0.00  0.00    +0.000 C 
ATOM      4  O   UNL     1      -3.298  11.754  17.494  0.00  0.00    +0.000 OA
ATOM      5  N   UNL     1      -1.389  12.712  18.311  0.00  0.00    +0.000 N 
ATOM      6  C   UNL     1      -0.449  12.392  19.243  0.00  0.00    +0.000 C 
ATOM      7  O   UNL     1       0.468  13.128  19.584  0.00  0.00    +0.000 OA
ATOM      8  H   UNL     1      -2.553   9.893  19.164  0.00  0.00    +0.000 HD
ATOM      9  H   UNL     1      -1.445  13.585  17.819  0.00  0.00    +0.000 HD
ENDROOT
BRANCH   1  13
ATOM     10  C   UNL     1       2.371   8.094  18.492  0.00  0.00    +0.000 A 
ATOM     11  C   UNL     1       1.850   9.057  17.611  0.00  0.00    +0.000 A 
ATOM     12  C   UNL     1       0.892   9.990  18.018  0.00  0.00    +0.000 A 
ATOM     13  C   UNL     1       0.373   9.979  19.320  0.00  0.00    +0.000 A 
ATOM     14  C   UNL     1       0.912   9.035  20.213  0.00  0.00    +0.000 A 
ATOM     15  C   UNL     1       1.885   8.112  19.805  0.00  0.00    +0.000 A 
BRANCH  10  19
ATOM     16  C   UNL     1       5.369   5.294  17.149  0.00  0.00    +0.000 A 
ATOM     17  C   UNL     1       5.205   6.522  16.510  0.00  0.00    +0.000 A 
ATOM     18  C   UNL     1       4.241   7.425  16.959  0.00  0.00    +0.000 A 
ATOM     19  C   UNL     1       3.399   7.126  18.047  0.00  0.00    +0.000 A 
ATOM     20  C   UNL     1       3.580   5.881  18.678  0.00  0.00    +0.000 A 
ATOM     21  C   UNL     1       4.555   4.974  18.240  0.00  0.00    +0.000 A 
BRANCH  16  22
ATOM     22  C   UNL     1       6.418   4.384  16.631  0.00  0.00    +0.000 C 
ATOM     23  O   UNL     1       7.578   4.410  17.010  0.00  0.00    +0.000 OA
BRANCH  22  25
ATOM     24  C   UNL     1       6.269   3.881  14.365  0.00  0.00    +0.000 C 
ATOM     25  O   UNL     1       5.903   3.545  15.702  0.00  0.00    +0.000 OA
ENDBRANCH  22  25
ENDBRANCH  16  22
ENDBRANCH  10  19
ENDBRANCH   1  13
BRANCH   1  26
ATOM     26  C   UNL     1      -0.930  11.009  21.290  0.00  0.00    +0.000 C 
BRANCH  26  27
ATOM     27  N   UNL     1      -1.446  12.246  21.862  0.00  0.00    +0.000 N 
ATOM     28  C   UNL     1      -0.626  13.081  22.722  0.00  0.00    +0.000 C 
ATOM     29  C   UNL     1      -1.636  13.965  23.364  0.00  0.00    +0.000 A 
ATOM     30  C   UNL     1      -1.458  14.885  24.377  0.00  0.00    +0.000 A 
ATOM     31  C   UNL     1      -2.576  15.602  24.806  0.00  0.00    +0.000 A 
ATOM     32  C   UNL     1      -3.845  15.415  24.218  0.00  0.00    +0.000 A 
ATOM     33  C   UNL     1      -4.019  14.463  23.208  0.00  0.00    +0.000 A 
ATOM     34  C   UNL     1      -2.898  13.749  22.812  0.00  0.00    +0.000 A 
ATOM     35  C   UNL     1      -2.782  12.624  21.863  0.00  0.00    +0.000 C 
ATOM     36  O   UNL     1      -3.701  12.102  21.263  0.00  0.00    +0.000 OA
BRANCH  32  37
ATOM     37  O   UNL     1      -4.813  16.224  24.747  0.00  0.00    +0.000 OA
ATOM     38  C   UNL     1      -5.731  16.821  23.842  0.00  0.00    +0.000 C 
ENDBRANCH  32  37
ENDBRANCH  26  27
ENDBRANCH   1  26
TORSDOF 7
ENDMDL
