MODEL 1
REMARK VINA RESULT:      -7.1      0.000      0.000
REMARK  Name = 
REMARK  3 active torsions:
REMARK  status: ('A' for Active; 'I' for Inactive)
REMARK    1  A    between atoms: C_2  and  C_3
REMARK    2  A    between atoms: C_11  and  C_12
REMARK    3  A    between atoms: C_11  and  C_13
REMARK                            x       y       z     vdW  Elec       q    Type
REMARK                         _______ _______ _______ _____ _____    ______ ____
ROOT
ATOM      1  C   UNL     1       5.736   3.616  12.674  0.00  0.00    +0.000 A 
ATOM      2  C   UNL     1       7.041   4.107  12.528  0.00  0.00    +0.000 A 
ATOM      3  C   UNL     1       7.634   4.865  13.538  0.00  0.00    +0.000 A 
ATOM      4  C   UNL     1       6.926   5.136  14.705  0.00  0.00    +0.000 A 
ATOM      5  C   UNL     1       5.611   4.687  14.858  0.00  0.00    +0.000 A 
ATOM      6  C   UNL     1       5.022   3.927  13.841  0.00  0.00    +0.000 A 
ATOM      7  C   UNL     1       4.870   5.050  16.060  0.00  0.00    +0.000 C 
ATOM      8  C   UNL     1       5.569   5.572  17.078  0.00  0.00    +0.000 C 
ATOM      9  C   UNL     1       7.068   5.772  17.003  0.00  0.00    +0.000 C 
ATOM     10  C   UNL     1       7.788   4.599  17.684  0.00  0.00    +0.000 C 
ATOM     11  C   UNL     1       7.456   7.082  17.700  0.00  0.00    +0.000 C 
ATOM     12  O   UNL     1       7.573   5.882  15.655  0.00  0.00    +0.000 OA
ENDROOT
BRANCH   1  14
ATOM     13  C   UNL     1       3.904   3.164  11.047  0.00  0.00    +0.000 C 
ATOM     14  C   UNL     1       5.071   2.838  11.616  0.00  0.00    +0.000 C 
ENDBRANCH   1  14
TORSDOF 1
ENDMDL
MODEL 2
REMARK VINA RESULT:      -6.8      3.447      5.744
REMARK  Name = 
REMARK  3 active torsions:
REMARK  status: ('A' for Active; 'I' for Inactive)
REMARK    1  A    between atoms: C_2  and  C_3
REMARK    2  A    between atoms: C_11  and  C_12
REMARK    3  A    between atoms: C_11  and  C_13
REMARK                            x       y       z     vdW  Elec       q    Type
REMARK                         _______ _______ _______ _____ _____    ______ ____
ROOT
ATOM      1  C   UNL     1       2.271   3.604  19.368  0.00  0.00    +0.000 A 
ATOM      2  C   UNL     1       2.726   2.425  18.760  0.00  0.00    +0.000 A 
ATOM      3  C   UNL     1       3.654   2.474  17.719  0.00  0.00    +0.000 A 
ATOM      4  C   UNL     1       4.136   3.702  17.279  0.00  0.00    +0.000 A 
ATOM      5  C   UNL     1       3.670   4.893  17.846  0.00  0.00    +0.000 A 
ATOM      6  C   UNL     1       2.739   4.838  18.891  0.00  0.00    +0.000 A 
ATOM      7  C   UNL     1       4.138   6.167  17.314  0.00  0.00    +0.000 C 
ATOM      8  C   UNL     1       5.191   6.135  16.484  0.00  0.00    +0.000 C 
ATOM      9  C   UNL     1       5.884   4.841  16.116  0.00  0.00    +0.000 C 
ATOM     10  C   UNL     1       7.126   4.641  16.997  0.00  0.00    +0.000 C 
ATOM     11  C   UNL     1       6.305   4.875  14.642  0.00  0.00    +0.000 C 
ATOM     12  O   UNL     1       5.048   3.672  16.257  0.00  0.00    +0.000 OA
ENDROOT
BRANCH   1  14
ATOM     13  C   UNL     1       1.329   2.805  21.531  0.00  0.00    +0.000 C 
ATOM     14  C   UNL     1       1.272   3.590  20.449  0.00  0.00    +0.000 C 
ENDBRANCH   1  14
TORSDOF 1
ENDMDL
MODEL 3
REMARK VINA RESULT:      -6.7      4.397      6.154
REMARK  Name = 
REMARK  3 active torsions:
REMARK  status: ('A' for Active; 'I' for Inactive)
REMARK    1  A    between atoms: C_2  and  C_3
REMARK    2  A    between atoms: C_11  and  C_12
REMARK    3  A    between atoms: C_11  and  C_13
REMARK                            x       y       z     vdW  Elec       q    Type
REMARK                         _______ _______ _______ _____ _____    ______ ____
ROOT
ATOM      1  C   UNL     1       6.080   6.042  17.963  0.00  0.00    +0.000 A 
ATOM      2  C   UNL     1       4.973   6.602  17.307  0.00  0.00    +0.000 A 
ATOM      3  C   UNL     1       3.706   6.032  17.436  0.00  0.00    +0.000 A 
ATOM      4  C   UNL     1       3.535   4.898  18.224  0.00  0.00    +0.000 A 
ATOM      5  C   UNL     1       4.629   4.301  18.858  0.00  0.00    +0.000 A 
ATOM      6  C   UNL     1       5.898   4.878  18.725  0.00  0.00    +0.000 A 
ATOM      7  C   UNL     1       4.430   3.072  19.616  0.00  0.00    +0.000 C 
ATOM      8  C   UNL     1       3.166   2.717  19.888  0.00  0.00    +0.000 C 
ATOM      9  C   UNL     1       1.984   3.553  19.446  0.00  0.00    +0.000 C 
ATOM     10  C   UNL     1       1.518   4.455  20.599  0.00  0.00    +0.000 C 
ATOM     11  C   UNL     1       0.830   2.641  19.015  0.00  0.00    +0.000 C 
ATOM     12  O   UNL     1       2.262   4.397  18.308  0.00  0.00    +0.000 OA
ENDROOT
BRANCH   1  14
ATOM     13  C   UNL     1       7.709   7.895  17.623  0.00  0.00    +0.000 C 
ATOM     14  C   UNL     1       7.434   6.600  17.826  0.00  0.00    +0.000 C 
ENDBRANCH   1  14
TORSDOF 1
ENDMDL
MODEL 4
REMARK VINA RESULT:      -6.6      3.334      4.793
REMARK  Name = 
REMARK  3 active torsions:
REMARK  status: ('A' for Active; 'I' for Inactive)
REMARK    1  A    between atoms: C_2  and  C_3
REMARK    2  A    between atoms: C_11  and  C_12
REMARK    3  A    between atoms: C_11  and  C_13
REMARK                            x       y       z     vdW  Elec       q    Type
REMARK                         _______ _______ _______ _____ _____    ______ ____
ROOT
ATOM      1  C   UNL     1       5.945   4.450  16.349  0.00  0.00    +0.000 A 
ATOM      2  C   UNL     1       6.462   5.053  17.505  0.00  0.00    +0.000 A 
ATOM      3  C   UNL     1       5.661   5.237  18.632  0.00  0.00    +0.000 A 
ATOM      4  C   UNL     1       4.335   4.817  18.613  0.00  0.00    +0.000 A 
ATOM      5  C   UNL     1       3.786   4.246  17.461  0.00  0.00    +0.000 A 
ATOM      6  C   UNL     1       4.595   4.064  16.333  0.00  0.00    +0.000 A 
ATOM      7  C   UNL     1       2.374   3.885  17.447  0.00  0.00    +0.000 C 
ATOM      8  C   UNL     1       1.733   3.872  18.624  0.00  0.00    +0.000 C 
ATOM      9  C   UNL     1       2.434   4.205  19.924  0.00  0.00    +0.000 C 
ATOM     10  C   UNL     1       2.858   2.912  20.637  0.00  0.00    +0.000 C 
ATOM     11  C   UNL     1       1.495   5.004  20.836  0.00  0.00    +0.000 C 
ATOM     12  O   UNL     1       3.610   5.026  19.758  0.00  0.00    +0.000 OA
ENDROOT
BRANCH   1  14
ATOM     13  C   UNL     1       6.256   4.041  13.912  0.00  0.00    +0.000 C 
ATOM     14  C   UNL     1       6.754   4.267  15.134  0.00  0.00    +0.000 C 
ENDBRANCH   1  14
TORSDOF 1
ENDMDL
MODEL 5
REMARK VINA RESULT:      -6.5      4.450      6.423
REMARK  Name = 
REMARK  3 active torsions:
REMARK  status: ('A' for Active; 'I' for Inactive)
REMARK    1  A    between atoms: C_2  and  C_3
REMARK    2  A    between atoms: C_11  and  C_12
REMARK    3  A    between atoms: C_11  and  C_13
REMARK                            x       y       z     vdW  Elec       q    Type
REMARK                         _______ _______ _______ _____ _____    ______ ____
ROOT
ATOM      1  C   UNL     1       5.305   5.870  17.910  0.00  0.00    +0.000 A 
ATOM      2  C   UNL     1       5.748   4.551  18.083  0.00  0.00    +0.000 A 
ATOM      3  C   UNL     1       5.011   3.647  18.848  0.00  0.00    +0.000 A 
ATOM      4  C   UNL     1       3.823   4.054  19.446  0.00  0.00    +0.000 A 
ATOM      5  C   UNL     1       3.379   5.374  19.317  0.00  0.00    +0.000 A 
ATOM      6  C   UNL     1       4.123   6.277  18.547  0.00  0.00    +0.000 A 
ATOM      7  C   UNL     1       2.169   5.790  20.016  0.00  0.00    +0.000 C 
ATOM      8  C   UNL     1       1.397   4.825  20.533  0.00  0.00    +0.000 C 
ATOM      9  C   UNL     1       1.745   3.358  20.395  0.00  0.00    +0.000 C 
ATOM     10  C   UNL     1       0.971   2.744  19.219  0.00  0.00    +0.000 C 
ATOM     11  C   UNL     1       1.386   2.612  21.685  0.00  0.00    +0.000 C 
ATOM     12  O   UNL     1       3.151   3.111  20.178  0.00  0.00    +0.000 OA
ENDROOT
BRANCH   1  14
ATOM     13  C   UNL     1       7.313   7.264  17.429  0.00  0.00    +0.000 C 
ATOM     14  C   UNL     1       6.072   6.856  17.133  0.00  0.00    +0.000 C 
ENDBRANCH   1  14
TORSDOF 1
ENDMDL
MODEL 6
REMARK VINA RESULT:      -6.5      4.371      6.021
REMARK  Name = 
REMARK  3 active torsions:
REMARK  status: ('A' for Active; 'I' for Inactive)
REMARK    1  A    between atoms: C_2  and  C_3
REMARK    2  A    between atoms: C_11  and  C_12
REMARK    3  A    between atoms: C_11  and  C_13
REMARK                            x       y       z     vdW  Elec       q    Type
REMARK                         _______ _______ _______ _____ _____    ______ ____
ROOT
ATOM      1  C   UNL     1       6.050   6.203  17.785  0.00  0.00    +0.000 A 
ATOM      2  C   UNL     1       6.482   5.252  18.720  0.00  0.00    +0.000 A 
ATOM      3  C   UNL     1       5.573   4.384  19.325  0.00  0.00    +0.000 A 
ATOM      4  C   UNL     1       4.223   4.458  18.997  0.00  0.00    +0.000 A 
ATOM      5  C   UNL     1       3.763   5.421  18.094  0.00  0.00    +0.000 A 
ATOM      6  C   UNL     1       4.680   6.290  17.490  0.00  0.00    +0.000 A 
ATOM      7  C   UNL     1       2.334   5.522  17.827  0.00  0.00    +0.000 C 
ATOM      8  C   UNL     1       1.557   4.518  18.256  0.00  0.00    +0.000 C 
ATOM      9  C   UNL     1       2.126   3.315  18.979  0.00  0.00    +0.000 C 
ATOM     10  C   UNL     1       2.327   2.157  17.991  0.00  0.00    +0.000 C 
ATOM     11  C   UNL     1       1.169   2.874  20.093  0.00  0.00    +0.000 C 
ATOM     12  O   UNL     1       3.391   3.570  19.627  0.00  0.00    +0.000 OA
ENDROOT
BRANCH   1  14
ATOM     13  C   UNL     1       7.834   7.941  17.811  0.00  0.00    +0.000 C 
ATOM     14  C   UNL     1       6.977   7.153  17.150  0.00  0.00    +0.000 C 
ENDBRANCH   1  14
TORSDOF 1
ENDMDL
MODEL 7
REMARK VINA RESULT:      -6.5      3.662      5.181
REMARK  Name = 
REMARK  3 active torsions:
REMARK  status: ('A' for Active; 'I' for Inactive)
REMARK    1  A    between atoms: C_2  and  C_3
REMARK    2  A    between atoms: C_11  and  C_12
REMARK    3  A    between atoms: C_11  and  C_13
REMARK                            x       y       z     vdW  Elec       q    Type
REMARK                         _______ _______ _______ _____ _____    ______ ____
ROOT
ATOM      1  C   UNL     1       5.184   4.978  16.153  0.00  0.00    +0.000 A 
ATOM      2  C   UNL     1       4.853   6.063  16.977  0.00  0.00    +0.000 A 
ATOM      3  C   UNL     1       3.900   5.926  17.987  0.00  0.00    +0.000 A 
ATOM      4  C   UNL     1       3.272   4.701  18.183  0.00  0.00    +0.000 A 
ATOM      5  C   UNL     1       3.558   3.614  17.351  0.00  0.00    +0.000 A 
ATOM      6  C   UNL     1       4.516   3.758  16.339  0.00  0.00    +0.000 A 
ATOM      7  C   UNL     1       2.830   2.365  17.533  0.00  0.00    +0.000 C 
ATOM      8  C   UNL     1       2.109   2.234  18.656  0.00  0.00    +0.000 C 
ATOM      9  C   UNL     1       2.054   3.323  19.707  0.00  0.00    +0.000 C 
ATOM     10  C   UNL     1       3.054   3.017  20.832  0.00  0.00    +0.000 C 
ATOM     11  C   UNL     1       0.640   3.413  20.293  0.00  0.00    +0.000 C 
ATOM     12  O   UNL     1       2.351   4.640  19.196  0.00  0.00    +0.000 OA
ENDROOT
BRANCH   1  14
ATOM     13  C   UNL     1       6.306   4.212  14.065  0.00  0.00    +0.000 C 
ATOM     14  C   UNL     1       6.163   5.095  15.061  0.00  0.00    +0.000 C 
ENDBRANCH   1  14
TORSDOF 1
ENDMDL
MODEL 8
REMARK VINA RESULT:      -6.5      4.092      5.717
REMARK  Name = 
REMARK  3 active torsions:
REMARK  status: ('A' for Active; 'I' for Inactive)
REMARK    1  A    between atoms: C_2  and  C_3
REMARK    2  A    between atoms: C_11  and  C_12
REMARK    3  A    between atoms: C_11  and  C_13
REMARK                            x       y       z     vdW  Elec       q    Type
REMARK                         _______ _______ _______ _____ _____    ______ ____
ROOT
ATOM      1  C   UNL     1       4.701   5.017  16.673  0.00  0.00    +0.000 A 
ATOM      2  C   UNL     1       4.778   3.618  16.741  0.00  0.00    +0.000 A 
ATOM      3  C   UNL     1       4.163   2.922  17.782  0.00  0.00    +0.000 A 
ATOM      4  C   UNL     1       3.465   3.618  18.763  0.00  0.00    +0.000 A 
ATOM      5  C   UNL     1       3.404   5.015  18.736  0.00  0.00    +0.000 A 
ATOM      6  C   UNL     1       4.023   5.709  17.688  0.00  0.00    +0.000 A 
ATOM      7  C   UNL     1       2.728   5.721  19.817  0.00  0.00    +0.000 C 
ATOM      8  C   UNL     1       1.969   4.990  20.646  0.00  0.00    +0.000 C 
ATOM      9  C   UNL     1       1.802   3.495  20.473  0.00  0.00    +0.000 C 
ATOM     10  C   UNL     1       0.496   3.197  19.720  0.00  0.00    +0.000 C 
ATOM     11  C   UNL     1       1.766   2.811  21.845  0.00  0.00    +0.000 C 
ATOM     12  O   UNL     1       2.883   2.868  19.751  0.00  0.00    +0.000 OA
ENDROOT
BRANCH   1  14
ATOM     13  C   UNL     1       6.119   5.252  14.638  0.00  0.00    +0.000 C 
ATOM     14  C   UNL     1       5.361   5.785  15.605  0.00  0.00    +0.000 C 
ENDBRANCH   1  14
TORSDOF 1
ENDMDL
MODEL 9
REMARK VINA RESULT:      -6.4      3.355      5.625
REMARK  Name = 
REMARK  3 active torsions:
REMARK  status: ('A' for Active; 'I' for Inactive)
REMARK    1  A    between atoms: C_2  and  C_3
REMARK    2  A    between atoms: C_11  and  C_12
REMARK    3  A    between atoms: C_11  and  C_13
REMARK                            x       y       z     vdW  Elec       q    Type
REMARK                         _______ _______ _______ _____ _____    ______ ____
ROOT
ATOM      1  C   UNL     1       2.403   4.576  19.155  0.00  0.00    +0.000 A 
ATOM      2  C   UNL     1       2.104   5.560  18.201  0.00  0.00    +0.000 A 
ATOM      3  C   UNL     1       3.116   6.347  17.649  0.00  0.00    +0.000 A 
ATOM      4  C   UNL     1       4.435   6.156  18.046  0.00  0.00    +0.000 A 
ATOM      5  C   UNL     1       4.753   5.207  19.022  0.00  0.00    +0.000 A 
ATOM      6  C   UNL     1       3.734   4.419  19.572  0.00  0.00    +0.000 A 
ATOM      7  C   UNL     1       6.134   5.081  19.471  0.00  0.00    +0.000 C 
ATOM      8  C   UNL     1       7.075   5.696  18.740  0.00  0.00    +0.000 C 
ATOM      9  C   UNL     1       6.735   6.482  17.491  0.00  0.00    +0.000 C 
ATOM     10  C   UNL     1       6.958   5.610  16.247  0.00  0.00    +0.000 C 
ATOM     11  C   UNL     1       7.619   7.731  17.403  0.00  0.00    +0.000 C 
ATOM     12  O   UNL     1       5.374   6.963  17.458  0.00  0.00    +0.000 OA
ENDROOT
BRANCH   1  14
ATOM     13  C   UNL     1       1.430   3.226  21.008  0.00  0.00    +0.000 C 
ATOM     14  C   UNL     1       1.358   3.748  19.777  0.00  0.00    +0.000 C 
ENDBRANCH   1  14
TORSDOF 1
ENDMDL
