MODEL 1
REMARK VINA RESULT:      -8.6      0.000      0.000
REMARK  Name = 
REMARK  11 active torsions:
REMARK  status: ('A' for Active; 'I' for Inactive)
REMARK    1  A    between atoms: C_1  and  C_2
REMARK    2  A    between atoms: C_2  and  C_3
REMARK    3  A    between atoms: C_2  and  C_4
REMARK    4  A    between atoms: N_11  and  C_12
REMARK    5  A    between atoms: C_12  and  C_13
REMARK    6  A    between atoms: C_12  and  C_14
REMARK    7  A    between atoms: C_17  and  C_18
REMARK    8  A    between atoms: C_18  and  N_19
REMARK    9  A    between atoms: N_22  and  C_23
REMARK   10  A    between atoms: C_32  and  C_33
REMARK   11  A    between atoms: C_32  and  C_34
REMARK                            x       y       z     vdW  Elec       q    Type
REMARK                         _______ _______ _______ _____ _____    ______ ____
ROOT
ATOM      1  C   UNL     1       1.325  15.383  18.920  0.00  0.00    +0.000 C 
ATOM      2  N   UNL     1       1.315  14.054  19.500  0.00  0.00    +0.000 N 
ATOM      3  C   UNL     1       0.398  13.014  19.211  0.00  0.00    +0.000 A 
ATOM      4  C   UNL     1      -0.545  13.161  18.212  0.00  0.00    +0.000 A 
ATOM      5  C   UNL     1      -1.344  12.066  17.978  0.00  0.00    +0.000 A 
ATOM      6  N   UNL     1      -1.260  10.916  18.666  0.00  0.00    +0.000 NA
ATOM      7  C   UNL     1      -0.338  10.867  19.635  0.00  0.00    +0.000 A 
ATOM      8  N   UNL     1      -0.293   9.697  20.380  0.00  0.00    +0.000 N 
ATOM      9  N   UNL     1       0.494  11.873  19.901  0.00  0.00    +0.000 NA
ATOM     10  C   UNL     1       2.357  13.935  20.414  0.00  0.00    +0.000 C 
ATOM     11  O   UNL     1       2.601  13.059  21.219  0.00  0.00    +0.000 OA
ATOM     12  O   UNL     1       3.179  15.039  20.292  0.00  0.00    +0.000 OA
ATOM     13  C   UNL     1       2.823  15.725  19.081  0.00  0.00    +0.000 C 
ATOM     14  C   UNL     1       3.222  17.190  19.203  0.00  0.00    +0.000 C 
ATOM     15  C   UNL     1       3.652  15.116  17.935  0.00  0.00    +0.000 C 
ATOM     16  H   UNL     1      -0.748   8.990  19.806  0.00  0.00    +0.000 HD
ENDROOT
BRANCH   1  18
ATOM     17  C   UNL     1      -0.802  16.863  18.725  0.00  0.00    +0.000 C 
ATOM     18  C   UNL     1       0.284  16.299  19.644  0.00  0.00    +0.000 C 
ATOM     19  C   UNL     1      -0.337  15.647  20.889  0.00  0.00    +0.000 C 
ENDBRANCH   1  18
BRANCH   8  20
ATOM     20  C   UNL     1       1.008   9.316  20.928  0.00  0.00    +0.000 C 
ATOM     21  C   UNL     1       0.861   8.925  22.402  0.00  0.00    +0.000 C 
BRANCH  20  22
ATOM     22  C   UNL     1       1.589   8.137  20.152  0.00  0.00    +0.000 A 
ATOM     23  C   UNL     1       1.618   6.858  20.739  0.00  0.00    +0.000 A 
ATOM     24  C   UNL     1       2.118   5.755  20.037  0.00  0.00    +0.000 A 
ATOM     25  C   UNL     1       2.619   5.907  18.740  0.00  0.00    +0.000 A 
ATOM     26  C   UNL     1       2.584   7.179  18.150  0.00  0.00    +0.000 A 
ATOM     27  C   UNL     1       2.052   8.271  18.836  0.00  0.00    +0.000 A 
BRANCH  25  28
ATOM     28  C   UNL     1       3.142   4.725  17.950  0.00  0.00    +0.000 C 
BRANCH  28  29
ATOM     29  N   UNL     1       4.609   4.631  17.919  0.00  0.00    +0.000 NA
ATOM     30  C   UNL     1       5.204   5.406  19.026  0.00  0.00    +0.000 C 
ATOM     31  C   UNL     1       6.752   5.339  19.021  0.00  0.00    +0.000 C 
ATOM     32  N   UNL     1       7.393   5.721  17.746  0.00  0.00    +0.000 NA
ATOM     33  C   UNL     1       7.353   7.166  17.528  0.00  0.00    +0.000 C 
ATOM     34  C   UNL     1       6.734   4.996  16.644  0.00  0.00    +0.000 C 
ATOM     35  C   UNL     1       5.192   5.089  16.642  0.00  0.00    +0.000 C 
ENDBRANCH  28  29
ENDBRANCH  25  28
ENDBRANCH  20  22
ENDBRANCH   8  20
TORSDOF 5
ENDMDL
MODEL 2
REMARK VINA RESULT:      -8.4      0.725      1.335
REMARK  Name = 
REMARK  11 active torsions:
REMARK  status: ('A' for Active; 'I' for Inactive)
REMARK    1  A    between atoms: C_1  and  C_2
REMARK    2  A    between atoms: C_2  and  C_3
REMARK    3  A    between atoms: C_2  and  C_4
REMARK    4  A    between atoms: N_11  and  C_12
REMARK    5  A    between atoms: C_12  and  C_13
REMARK    6  A    between atoms: C_12  and  C_14
REMARK    7  A    between atoms: C_17  and  C_18
REMARK    8  A    between atoms: C_18  and  N_19
REMARK    9  A    between atoms: N_22  and  C_23
REMARK   10  A    between atoms: C_32  and  C_33
REMARK   11  A    between atoms: C_32  and  C_34
REMARK                            x       y       z     vdW  Elec       q    Type
REMARK                         _______ _______ _______ _____ _____    ______ ____
ROOT
ATOM      1  C   UNL     1       1.313  15.350  18.817  0.00  0.00    +0.000 C 
ATOM      2  N   UNL     1       1.250  14.051  19.459  0.00  0.00    +0.000 N 
ATOM      3  C   UNL     1       0.310  13.024  19.197  0.00  0.00    +0.000 A 
ATOM      4  C   UNL     1      -0.605  13.150  18.169  0.00  0.00    +0.000 A 
ATOM      5  C   UNL     1      -1.430  12.068  17.968  0.00  0.00    +0.000 A 
ATOM      6  N   UNL     1      -1.396  10.950  18.711  0.00  0.00    +0.000 NA
ATOM      7  C   UNL     1      -0.498  10.921  19.703  0.00  0.00    +0.000 A 
ATOM      8  N   UNL     1      -0.504   9.788  20.503  0.00  0.00    +0.000 N 
ATOM      9  N   UNL     1       0.357  11.915  19.942  0.00  0.00    +0.000 NA
ATOM     10  C   UNL     1       2.267  13.946  20.403  0.00  0.00    +0.000 C 
ATOM     11  O   UNL     1       2.466  13.103  21.254  0.00  0.00    +0.000 OA
ATOM     12  O   UNL     1       3.123  15.019  20.249  0.00  0.00    +0.000 OA
ATOM     13  C   UNL     1       2.816  15.657  18.999  0.00  0.00    +0.000 C 
ATOM     14  C   UNL     1       3.255  17.114  19.062  0.00  0.00    +0.000 C 
ATOM     15  C   UNL     1       3.653  14.971  17.903  0.00  0.00    +0.000 C 
ATOM     16  H   UNL     1      -0.966   9.067  19.952  0.00  0.00    +0.000 HD
ENDROOT
BRANCH   1  18
ATOM     17  C   UNL     1      -0.750  16.897  18.496  0.00  0.00    +0.000 C 
ATOM     18  C   UNL     1       0.282  16.328  19.472  0.00  0.00    +0.000 C 
ATOM     19  C   UNL     1      -0.404  15.745  20.717  0.00  0.00    +0.000 C 
ENDBRANCH   1  18
BRANCH   8  20
ATOM     20  C   UNL     1       0.772   9.397  21.100  0.00  0.00    +0.000 C 
ATOM     21  C   UNL     1       0.552   8.919  22.539  0.00  0.00    +0.000 C 
BRANCH  20  22
ATOM     22  C   UNL     1       1.417   8.274  20.292  0.00  0.00    +0.000 A 
ATOM     23  C   UNL     1       1.863   8.522  18.980  0.00  0.00    +0.000 A 
ATOM     24  C   UNL     1       2.484   7.518  18.229  0.00  0.00    +0.000 A 
ATOM     25  C   UNL     1       2.657   6.237  18.762  0.00  0.00    +0.000 A 
ATOM     26  C   UNL     1       2.221   5.989  20.072  0.00  0.00    +0.000 A 
ATOM     27  C   UNL     1       1.636   7.000  20.834  0.00  0.00    +0.000 A 
BRANCH  25  28
ATOM     28  C   UNL     1       3.349   5.140  17.979  0.00  0.00    +0.000 C 
BRANCH  28  29
ATOM     29  N   UNL     1       4.773   5.399  17.723  0.00  0.00    +0.000 NA
ATOM     30  C   UNL     1       4.941   6.258  16.534  0.00  0.00    +0.000 C 
ATOM     31  C   UNL     1       6.432   6.545  16.225  0.00  0.00    +0.000 C 
ATOM     32  N   UNL     1       7.289   5.348  16.098  0.00  0.00    +0.000 NA
ATOM     33  C   UNL     1       7.058   4.645  14.839  0.00  0.00    +0.000 C 
ATOM     34  C   UNL     1       7.050   4.466  17.255  0.00  0.00    +0.000 C 
ATOM     35  C   UNL     1       5.562   4.164  17.540  0.00  0.00    +0.000 C 
ENDBRANCH  28  29
ENDBRANCH  25  28
ENDBRANCH  20  22
ENDBRANCH   8  20
TORSDOF 5
ENDMDL
MODEL 3
REMARK VINA RESULT:      -8.3      0.875      1.221
REMARK  Name = 
REMARK  11 active torsions:
REMARK  status: ('A' for Active; 'I' for Inactive)
REMARK    1  A    between atoms: C_1  and  C_2
REMARK    2  A    between atoms: C_2  and  C_3
REMARK    3  A    between atoms: C_2  and  C_4
REMARK    4  A    between atoms: N_11  and  C_12
REMARK    5  A    between atoms: C_12  and  C_13
REMARK    6  A    between atoms: C_12  and  C_14
REMARK    7  A    between atoms: C_17  and  C_18
REMARK    8  A    between atoms: C_18  and  N_19
REMARK    9  A    between atoms: N_22  and  C_23
REMARK   10  A    between atoms: C_32  and  C_33
REMARK   11  A    between atoms: C_32  and  C_34
REMARK                            x       y       z     vdW  Elec       q    Type
REMARK                         _______ _______ _______ _____ _____    ______ ____
ROOT
ATOM      1  C   UNL     1       2.222  15.582  19.152  0.00  0.00    +0.000 C 
ATOM      2  N   UNL     1       1.983  14.269  19.718  0.00  0.00    +0.000 N 
ATOM      3  C   UNL     1       0.943  13.374  19.364  0.00  0.00    +0.000 A 
ATOM      4  C   UNL     1       0.094  13.658  18.312  0.00  0.00    +0.000 A 
ATOM      5  C   UNL     1      -0.841  12.692  18.020  0.00  0.00    +0.000 A 
ATOM      6  N   UNL     1      -0.968  11.542  18.701  0.00  0.00    +0.000 NA
ATOM      7  C   UNL     1      -0.123  11.357  19.722  0.00  0.00    +0.000 A 
ATOM      8  N   UNL     1      -0.295  10.193  20.458  0.00  0.00    +0.000 N 
ATOM      9  N   UNL     1       0.829  12.230  20.048  0.00  0.00    +0.000 NA
ATOM     10  C   UNL     1       2.939  13.998  20.691  0.00  0.00    +0.000 C 
ATOM     11  O   UNL     1       3.003  13.094  21.501  0.00  0.00    +0.000 OA
ATOM     12  O   UNL     1       3.919  14.969  20.629  0.00  0.00    +0.000 OA
ATOM     13  C   UNL     1       3.741  15.701  19.405  0.00  0.00    +0.000 C 
ATOM     14  C   UNL     1       4.342  17.092  19.565  0.00  0.00    +0.000 C 
ATOM     15  C   UNL     1       4.541  14.978  18.305  0.00  0.00    +0.000 C 
ATOM     16  H   UNL     1      -0.813   9.561  19.851  0.00  0.00    +0.000 HD
ENDROOT
BRANCH   1  18
ATOM     17  C   UNL     1       0.256  17.257  18.871  0.00  0.00    +0.000 C 
ATOM     18  C   UNL     1       1.284  16.640  19.821  0.00  0.00    +0.000 C 
ATOM     19  C   UNL     1       0.608  16.129  21.103  0.00  0.00    +0.000 C 
ENDBRANCH   1  18
BRANCH   8  20
ATOM     20  C   UNL     1       0.901   9.625  21.079  0.00  0.00    +0.000 C 
ATOM     21  C   UNL     1       0.555   9.059  22.460  0.00  0.00    +0.000 C 
BRANCH  20  22
ATOM     22  C   UNL     1       1.475   8.511  20.209  0.00  0.00    +0.000 A 
ATOM     23  C   UNL     1       1.639   7.219  20.744  0.00  0.00    +0.000 A 
ATOM     24  C   UNL     1       2.136   6.173  19.958  0.00  0.00    +0.000 A 
ATOM     25  C   UNL     1       2.500   6.396  18.626  0.00  0.00    +0.000 A 
ATOM     26  C   UNL     1       2.329   7.680  18.088  0.00  0.00    +0.000 A 
ATOM     27  C   UNL     1       1.800   8.714  18.861  0.00  0.00    +0.000 A 
BRANCH  25  28
ATOM     28  C   UNL     1       3.016   5.275  17.747  0.00  0.00    +0.000 C 
BRANCH  28  29
ATOM     29  N   UNL     1       4.276   5.588  17.060  0.00  0.00    +0.000 NA
ATOM     30  C   UNL     1       4.856   4.373  16.453  0.00  0.00    +0.000 C 
ATOM     31  C   UNL     1       6.193   4.662  15.727  0.00  0.00    +0.000 C 
ATOM     32  N   UNL     1       7.217   5.347  16.543  0.00  0.00    +0.000 NA
ATOM     33  C   UNL     1       7.825   4.447  17.521  0.00  0.00    +0.000 C 
ATOM     34  C   UNL     1       6.600   6.513  17.202  0.00  0.00    +0.000 C 
ATOM     35  C   UNL     1       5.280   6.210  17.946  0.00  0.00    +0.000 C 
ENDBRANCH  28  29
ENDBRANCH  25  28
ENDBRANCH  20  22
ENDBRANCH   8  20
TORSDOF 5
ENDMDL
MODEL 4
REMARK VINA RESULT:      -8.0      0.631      1.322
REMARK  Name = 
REMARK  11 active torsions:
REMARK  status: ('A' for Active; 'I' for Inactive)
REMARK    1  A    between atoms: C_1  and  C_2
REMARK    2  A    between atoms: C_2  and  C_3
REMARK    3  A    between atoms: C_2  and  C_4
REMARK    4  A    between atoms: N_11  and  C_12
REMARK    5  A    between atoms: C_12  and  C_13
REMARK    6  A    between atoms: C_12  and  C_14
REMARK    7  A    between atoms: C_17  and  C_18
REMARK    8  A    between atoms: C_18  and  N_19
REMARK    9  A    between atoms: N_22  and  C_23
REMARK   10  A    between atoms: C_32  and  C_33
REMARK   11  A    between atoms: C_32  and  C_34
REMARK                            x       y       z     vdW  Elec       q    Type
REMARK                         _______ _______ _______ _____ _____    ______ ____
ROOT
ATOM      1  C   UNL     1       1.067  15.361  18.812  0.00  0.00    +0.000 C 
ATOM      2  N   UNL     1       1.113  14.037  19.403  0.00  0.00    +0.000 N 
ATOM      3  C   UNL     1       0.204  12.976  19.168  0.00  0.00    +0.000 A 
ATOM      4  C   UNL     1      -0.792  13.096  18.217  0.00  0.00    +0.000 A 
ATOM      5  C   UNL     1      -1.580  11.983  18.033  0.00  0.00    +0.000 A 
ATOM      6  N   UNL     1      -1.438  10.841  18.724  0.00  0.00    +0.000 NA
ATOM      7  C   UNL     1      -0.467  10.819  19.645  0.00  0.00    +0.000 A 
ATOM      8  N   UNL     1      -0.360   9.656  20.395  0.00  0.00    +0.000 N 
ATOM      9  N   UNL     1       0.357  11.843  19.861  0.00  0.00    +0.000 NA
ATOM     10  C   UNL     1       2.202  13.946  20.263  0.00  0.00    +0.000 C 
ATOM     11  O   UNL     1       2.504  13.081  21.061  0.00  0.00    +0.000 OA
ATOM     12  O   UNL     1       2.994  15.065  20.091  0.00  0.00    +0.000 OA
ATOM     13  C   UNL     1       2.564  15.734  18.895  0.00  0.00    +0.000 C 
ATOM     14  C   UNL     1       2.939  17.207  18.985  0.00  0.00    +0.000 C 
ATOM     15  C   UNL     1       3.346  15.131  17.712  0.00  0.00    +0.000 C 
ATOM     16  H   UNL     1      -0.829   8.936  19.851  0.00  0.00    +0.000 HD
ENDROOT
BRANCH   1  18
ATOM     17  C   UNL     1       0.622  16.946  20.822  0.00  0.00    +0.000 C 
ATOM     18  C   UNL     1       0.045  16.262  19.582  0.00  0.00    +0.000 C 
ATOM     19  C   UNL     1      -0.670  17.278  18.678  0.00  0.00    +0.000 C 
ENDBRANCH   1  18
BRANCH   8  20
ATOM     20  C   UNL     1       0.974   9.306  20.880  0.00  0.00    +0.000 C 
ATOM     21  C   UNL     1       0.899   8.852  22.341  0.00  0.00    +0.000 C 
BRANCH  20  22
ATOM     22  C   UNL     1       1.569   8.182  20.036  0.00  0.00    +0.000 A 
ATOM     23  C   UNL     1       1.940   8.429  18.701  0.00  0.00    +0.000 A 
ATOM     24  C   UNL     1       2.514   7.423  17.915  0.00  0.00    +0.000 A 
ATOM     25  C   UNL     1       2.714   6.142  18.438  0.00  0.00    +0.000 A 
ATOM     26  C   UNL     1       2.353   5.894  19.770  0.00  0.00    +0.000 A 
ATOM     27  C   UNL     1       1.815   6.907  20.565  0.00  0.00    +0.000 A 
BRANCH  25  28
ATOM     28  C   UNL     1       3.357   5.043  17.616  0.00  0.00    +0.000 C 
BRANCH  28  29
ATOM     29  N   UNL     1       4.730   5.346  17.187  0.00  0.00    +0.000 NA
ATOM     30  C   UNL     1       5.657   4.280  17.617  0.00  0.00    +0.000 C 
ATOM     31  C   UNL     1       7.118   4.569  17.192  0.00  0.00    +0.000 C 
ATOM     32  N   UNL     1       7.646   5.885  17.610  0.00  0.00    +0.000 NA
ATOM     33  C   UNL     1       7.947   5.921  19.040  0.00  0.00    +0.000 C 
ATOM     34  C   UNL     1       6.672   6.928  17.243  0.00  0.00    +0.000 C 
ATOM     35  C   UNL     1       5.221   6.644  17.693  0.00  0.00    +0.000 C 
ENDBRANCH  28  29
ENDBRANCH  25  28
ENDBRANCH  20  22
ENDBRANCH   8  20
TORSDOF 5
ENDMDL
MODEL 5
REMARK VINA RESULT:      -8.0      4.286     10.703
REMARK  Name = 
REMARK  11 active torsions:
REMARK  status: ('A' for Active; 'I' for Inactive)
REMARK    1  A    between atoms: C_1  and  C_2
REMARK    2  A    between atoms: C_2  and  C_3
REMARK    3  A    between atoms: C_2  and  C_4
REMARK    4  A    between atoms: N_11  and  C_12
REMARK    5  A    between atoms: C_12  and  C_13
REMARK    6  A    between atoms: C_12  and  C_14
REMARK    7  A    between atoms: C_17  and  C_18
REMARK    8  A    between atoms: C_18  and  N_19
REMARK    9  A    between atoms: N_22  and  C_23
REMARK   10  A    between atoms: C_32  and  C_33
REMARK   11  A    between atoms: C_32  and  C_34
REMARK                            x       y       z     vdW  Elec       q    Type
REMARK                         _______ _______ _______ _____ _____    ______ ____
ROOT
ATOM      1  C   UNL     1       3.497   4.213  18.327  0.00  0.00    +0.000 C 
ATOM      2  N   UNL     1       2.887   5.280  19.097  0.00  0.00    +0.000 N 
ATOM      3  C   UNL     1       2.703   6.622  18.682  0.00  0.00    +0.000 A 
ATOM      4  C   UNL     1       3.009   7.010  17.392  0.00  0.00    +0.000 A 
ATOM      5  C   UNL     1       2.736   8.322  17.081  0.00  0.00    +0.000 A 
ATOM      6  N   UNL     1       2.223   9.207  17.951  0.00  0.00    +0.000 NA
ATOM      7  C   UNL     1       1.980   8.756  19.187  0.00  0.00    +0.000 A 
ATOM      8  N   UNL     1       1.503   9.687  20.098  0.00  0.00    +0.000 N 
ATOM      9  N   UNL     1       2.189   7.492  19.556  0.00  0.00    +0.000 NA
ATOM     10  C   UNL     1       2.500   4.795  20.343  0.00  0.00    +0.000 C 
ATOM     11  O   UNL     1       2.105   5.386  21.328  0.00  0.00    +0.000 OA
ATOM     12  O   UNL     1       2.620   3.419  20.337  0.00  0.00    +0.000 OA
ATOM     13  C   UNL     1       2.802   2.995  18.976  0.00  0.00    +0.000 C 
ATOM     14  C   UNL     1       3.529   1.656  18.965  0.00  0.00    +0.000 C 
ATOM     15  C   UNL     1       1.407   2.767  18.365  0.00  0.00    +0.000 C 
ATOM     16  H   UNL     1       1.116  10.443  19.537  0.00  0.00    +0.000 HD
ENDROOT
BRANCH   1  18
ATOM     17  C   UNL     1       5.755   4.466  17.069  0.00  0.00    +0.000 C 
ATOM     18  C   UNL     1       5.056   4.300  18.419  0.00  0.00    +0.000 C 
ATOM     19  C   UNL     1       5.548   5.354  19.423  0.00  0.00    +0.000 C 
ENDBRANCH   1  18
BRANCH   8  20
ATOM     20  C   UNL     1       0.631   9.184  21.159  0.00  0.00    +0.000 C 
ATOM     21  C   UNL     1       1.462   8.829  22.395  0.00  0.00    +0.000 C 
BRANCH  20  22
ATOM     22  C   UNL     1      -0.407  10.236  21.538  0.00  0.00    +0.000 A 
ATOM     23  C   UNL     1      -0.796  10.385  22.883  0.00  0.00    +0.000 A 
ATOM     24  C   UNL     1      -1.725  11.362  23.260  0.00  0.00    +0.000 A 
ATOM     25  C   UNL     1      -2.302  12.200  22.301  0.00  0.00    +0.000 A 
ATOM     26  C   UNL     1      -1.910  12.060  20.962  0.00  0.00    +0.000 A 
ATOM     27  C   UNL     1      -0.958  11.111  20.591  0.00  0.00    +0.000 A 
BRANCH  25  28
ATOM     28  C   UNL     1      -3.290  13.282  22.688  0.00  0.00    +0.000 C 
BRANCH  28  29
ATOM     29  N   UNL     1      -4.683  12.820  22.755  0.00  0.00    +0.000 NA
ATOM     30  C   UNL     1      -5.533  13.593  21.827  0.00  0.00    +0.000 C 
ATOM     31  C   UNL     1      -7.014  13.141  21.876  0.00  0.00    +0.000 C 
ATOM     32  N   UNL     1      -7.625  13.135  23.221  0.00  0.00    +0.000 NA
ATOM     33  C   UNL     1      -7.916  14.487  23.693  0.00  0.00    +0.000 C 
ATOM     34  C   UNL     1      -6.726  12.426  24.150  0.00  0.00    +0.000 C 
ATOM     35  C   UNL     1      -5.256  12.901  24.113  0.00  0.00    +0.000 C 
ENDBRANCH  28  29
ENDBRANCH  25  28
ENDBRANCH  20  22
ENDBRANCH   8  20
TORSDOF 5
ENDMDL
MODEL 6
REMARK VINA RESULT:      -7.9      1.997      2.531
REMARK  Name = 
REMARK  11 active torsions:
REMARK  status: ('A' for Active; 'I' for Inactive)
REMARK    1  A    between atoms: C_1  and  C_2
REMARK    2  A    between atoms: C_2  and  C_3
REMARK    3  A    between atoms: C_2  and  C_4
REMARK    4  A    between atoms: N_11  and  C_12
REMARK    5  A    between atoms: C_12  and  C_13
REMARK    6  A    between atoms: C_12  and  C_14
REMARK    7  A    between atoms: C_17  and  C_18
REMARK    8  A    between atoms: C_18  and  N_19
REMARK    9  A    between atoms: N_22  and  C_23
REMARK   10  A    between atoms: C_32  and  C_33
REMARK   11  A    between atoms: C_32  and  C_34
REMARK                            x       y       z     vdW  Elec       q    Type
REMARK                         _______ _______ _______ _____ _____    ______ ____
ROOT
ATOM      1  C   UNL     1       2.485  15.649  18.778  0.00  0.00    +0.000 C 
ATOM      2  N   UNL     1       2.052  14.516  19.573  0.00  0.00    +0.000 N 
ATOM      3  C   UNL     1       0.881  13.744  19.374  0.00  0.00    +0.000 A 
ATOM      4  C   UNL     1       0.074  13.956  18.273  0.00  0.00    +0.000 A 
ATOM      5  C   UNL     1      -1.004  13.109  18.150  0.00  0.00    +0.000 A 
ATOM      6  N   UNL     1      -1.299  12.139  19.029  0.00  0.00    +0.000 NA
ATOM      7  C   UNL     1      -0.481  12.019  20.081  0.00  0.00    +0.000 A 
ATOM      8  N   UNL     1      -0.822  11.052  21.016  0.00  0.00    +0.000 N 
ATOM      9  N   UNL     1       0.600  12.779  20.255  0.00  0.00    +0.000 NA
ATOM     10  C   UNL     1       2.966  14.286  20.596  0.00  0.00    +0.000 C 
ATOM     11  O   UNL     1       2.899  13.550  21.560  0.00  0.00    +0.000 OA
ATOM     12  O   UNL     1       4.084  15.065  20.371  0.00  0.00    +0.000 OA
ATOM     13  C   UNL     1       4.008  15.576  19.031  0.00  0.00    +0.000 C 
ATOM     14  C   UNL     1       4.819  16.862  18.940  0.00  0.00    +0.000 C 
ATOM     15  C   UNL     1       4.671  14.546  18.097  0.00  0.00    +0.000 C 
ATOM     16  H   UNL     1      -1.439  10.407  20.529  0.00  0.00    +0.000 HD
ENDROOT
BRANCH   1  18
ATOM     17  C   UNL     1       0.816  17.539  18.151  0.00  0.00    +0.000 C 
ATOM     18  C   UNL     1       1.731  16.945  19.223  0.00  0.00    +0.000 C 
ATOM     19  C   UNL     1       0.982  16.785  20.555  0.00  0.00    +0.000 C 
ENDBRANCH   1  18
BRANCH   8  20
ATOM     20  C   UNL     1       0.278  10.431  21.753  0.00  0.00    +0.000 C 
ATOM     21  C   UNL     1      -0.244   9.815  23.054  0.00  0.00    +0.000 C 
BRANCH  20  22
ATOM     22  C   UNL     1       0.935   9.342  20.910  0.00  0.00    +0.000 A 
ATOM     23  C   UNL     1       1.163   8.068  21.466  0.00  0.00    +0.000 A 
ATOM     24  C   UNL     1       1.736   7.043  20.704  0.00  0.00    +0.000 A 
ATOM     25  C   UNL     1       2.114   7.271  19.378  0.00  0.00    +0.000 A 
ATOM     26  C   UNL     1       1.880   8.536  18.819  0.00  0.00    +0.000 A 
ATOM     27  C   UNL     1       1.275   9.547  19.566  0.00  0.00    +0.000 A 
BRANCH  25  28
ATOM     28  C   UNL     1       2.713   6.170  18.525  0.00  0.00    +0.000 C 
BRANCH  28  29
ATOM     29  N   UNL     1       2.423   4.814  19.013  0.00  0.00    +0.000 NA
ATOM     30  C   UNL     1       3.652   4.169  19.518  0.00  0.00    +0.000 C 
ATOM     31  C   UNL     1       3.388   2.732  20.032  0.00  0.00    +0.000 C 
ATOM     32  N   UNL     1       2.713   1.834  19.071  0.00  0.00    +0.000 NA
ATOM     33  C   UNL     1       3.616   1.398  18.008  0.00  0.00    +0.000 C 
ATOM     34  C   UNL     1       1.533   2.525  18.520  0.00  0.00    +0.000 C 
ATOM     35  C   UNL     1       1.811   3.948  17.986  0.00  0.00    +0.000 C 
ENDBRANCH  28  29
ENDBRANCH  25  28
ENDBRANCH  20  22
ENDBRANCH   8  20
TORSDOF 5
ENDMDL
MODEL 7
REMARK VINA RESULT:      -7.9      3.750      5.559
REMARK  Name = 
REMARK  11 active torsions:
REMARK  status: ('A' for Active; 'I' for Inactive)
REMARK    1  A    between atoms: C_1  and  C_2
REMARK    2  A    between atoms: C_2  and  C_3
REMARK    3  A    between atoms: C_2  and  C_4
REMARK    4  A    between atoms: N_11  and  C_12
REMARK    5  A    between atoms: C_12  and  C_13
REMARK    6  A    between atoms: C_12  and  C_14
REMARK    7  A    between atoms: C_17  and  C_18
REMARK    8  A    between atoms: C_18  and  N_19
REMARK    9  A    between atoms: N_22  and  C_23
REMARK   10  A    between atoms: C_32  and  C_33
REMARK   11  A    between atoms: C_32  and  C_34
REMARK                            x       y       z     vdW  Elec       q    Type
REMARK                         _______ _______ _______ _____ _____    ______ ____
ROOT
ATOM      1  C   UNL     1      -5.260  13.031  21.693  0.00  0.00    +0.000 C 
ATOM      2  N   UNL     1      -4.013  12.650  21.058  0.00  0.00    +0.000 N 
ATOM      3  C   UNL     1      -2.828  12.227  21.709  0.00  0.00    +0.000 A 
ATOM      4  C   UNL     1      -2.807  12.027  23.076  0.00  0.00    +0.000 A 
ATOM      5  C   UNL     1      -1.621  11.559  23.593  0.00  0.00    +0.000 A 
ATOM      6  N   UNL     1      -0.525  11.319  22.856  0.00  0.00    +0.000 NA
ATOM      7  C   UNL     1      -0.623  11.564  21.544  0.00  0.00    +0.000 A 
ATOM      8  N   UNL     1       0.529  11.367  20.796  0.00  0.00    +0.000 N 
ATOM      9  N   UNL     1      -1.745  11.987  20.964  0.00  0.00    +0.000 NA
ATOM     10  C   UNL     1      -4.138  12.766  19.677  0.00  0.00    +0.000 C 
ATOM     11  O   UNL     1      -3.296  12.699  18.803  0.00  0.00    +0.000 OA
ATOM     12  O   UNL     1      -5.467  12.984  19.371  0.00  0.00    +0.000 OA
ATOM     13  C   UNL     1      -6.244  12.708  20.547  0.00  0.00    +0.000 C 
ATOM     14  C   UNL     1      -7.552  13.486  20.475  0.00  0.00    +0.000 C 
ATOM     15  C   UNL     1      -6.600  11.209  20.534  0.00  0.00    +0.000 C 
ATOM     16  H   UNL     1       1.114  10.749  21.353  0.00  0.00    +0.000 HD
ENDROOT
BRANCH   1  18
ATOM     17  C   UNL     1      -5.288  14.663  23.714  0.00  0.00    +0.000 C 
ATOM     18  C   UNL     1      -5.183  14.510  22.196  0.00  0.00    +0.000 C 
ATOM     19  C   UNL     1      -3.966  15.275  21.652  0.00  0.00    +0.000 C 
ENDBRANCH   1  18
BRANCH   8  20
ATOM     20  C   UNL     1       0.347  10.968  19.401  0.00  0.00    +0.000 C 
ATOM     21  C   UNL     1       0.799  12.096  18.469  0.00  0.00    +0.000 C 
BRANCH  20  22
ATOM     22  C   UNL     1       1.158   9.711  19.097  0.00  0.00    +0.000 A 
ATOM     23  C   UNL     1       1.795   9.573  17.849  0.00  0.00    +0.000 A 
ATOM     24  C   UNL     1       2.568   8.444  17.557  0.00  0.00    +0.000 A 
ATOM     25  C   UNL     1       2.708   7.417  18.495  0.00  0.00    +0.000 A 
ATOM     26  C   UNL     1       2.081   7.555  19.743  0.00  0.00    +0.000 A 
ATOM     27  C   UNL     1       1.341   8.697  20.048  0.00  0.00    +0.000 A 
BRANCH  25  28
ATOM     28  C   UNL     1       3.561   6.196  18.213  0.00  0.00    +0.000 C 
BRANCH  28  29
ATOM     29  N   UNL     1       3.197   5.018  19.012  0.00  0.00    +0.000 NA
ATOM     30  C   UNL     1       4.379   4.166  19.251  0.00  0.00    +0.000 C 
ATOM     31  C   UNL     1       4.033   2.906  20.083  0.00  0.00    +0.000 C 
ATOM     32  N   UNL     1       2.929   2.083  19.548  0.00  0.00    +0.000 NA
ATOM     33  C   UNL     1       3.339   1.319  18.372  0.00  0.00    +0.000 C 
ATOM     34  C   UNL     1       1.785   2.962  19.242  0.00  0.00    +0.000 C 
ATOM     35  C   UNL     1       2.134   4.203  18.391  0.00  0.00    +0.000 C 
ENDBRANCH  28  29
ENDBRANCH  25  28
ENDBRANCH  20  22
ENDBRANCH   8  20
TORSDOF 5
ENDMDL
MODEL 8
REMARK VINA RESULT:      -7.8      0.968      1.290
REMARK  Name = 
REMARK  11 active torsions:
REMARK  status: ('A' for Active; 'I' for Inactive)
REMARK    1  A    between atoms: C_1  and  C_2
REMARK    2  A    between atoms: C_2  and  C_3
REMARK    3  A    between atoms: C_2  and  C_4
REMARK    4  A    between atoms: N_11  and  C_12
REMARK    5  A    between atoms: C_12  and  C_13
REMARK    6  A    between atoms: C_12  and  C_14
REMARK    7  A    between atoms: C_17  and  C_18
REMARK    8  A    between atoms: C_18  and  N_19
REMARK    9  A    between atoms: N_22  and  C_23
REMARK   10  A    between atoms: C_32  and  C_33
REMARK   11  A    between atoms: C_32  and  C_34
REMARK                            x       y       z     vdW  Elec       q    Type
REMARK                         _______ _______ _______ _____ _____    ______ ____
ROOT
ATOM      1  C   UNL     1       0.281  15.609  19.693  0.00  0.00    +0.000 C 
ATOM      2  N   UNL     1       0.535  14.242  20.106  0.00  0.00    +0.000 N 
ATOM      3  C   UNL     1      -0.277  13.113  19.834  0.00  0.00    +0.000 A 
ATOM      4  C   UNL     1      -1.381  13.220  19.010  0.00  0.00    +0.000 A 
ATOM      5  C   UNL     1      -2.062  12.049  18.769  0.00  0.00    +0.000 A 
ATOM      6  N   UNL     1      -1.722  10.862  19.295  0.00  0.00    +0.000 NA
ATOM      7  C   UNL     1      -0.656  10.852  20.103  0.00  0.00    +0.000 A 
ATOM      8  N   UNL     1      -0.341   9.634  20.689  0.00  0.00    +0.000 N 
ATOM      9  N   UNL     1       0.074  11.936  20.361  0.00  0.00    +0.000 NA
ATOM     10  C   UNL     1       1.718  14.186  20.835  0.00  0.00    +0.000 C 
ATOM     11  O   UNL     1       2.199  13.279  21.485  0.00  0.00    +0.000 OA
ATOM     12  O   UNL     1       2.362  15.403  20.724  0.00  0.00    +0.000 OA
ATOM     13  C   UNL     1       1.729  16.146  19.670  0.00  0.00    +0.000 C 
ATOM     14  C   UNL     1       1.954  17.634  19.905  0.00  0.00    +0.000 C 
ATOM     15  C   UNL     1       2.432  15.777  18.349  0.00  0.00    +0.000 C 
ATOM     16  H   UNL     1      -0.790   8.928  20.109  0.00  0.00    +0.000 HD
ENDROOT
BRANCH   1  18
ATOM     17  C   UNL     1      -2.100  16.588  20.042  0.00  0.00    +0.000 C 
ATOM     18  C   UNL     1      -0.736  16.289  20.667  0.00  0.00    +0.000 C 
ATOM     19  C   UNL     1      -0.896  15.541  21.999  0.00  0.00    +0.000 C 
ENDBRANCH   1  18
BRANCH   8  20
ATOM     20  C   UNL     1       1.070   9.392  20.989  0.00  0.00    +0.000 C 
ATOM     21  C   UNL     1       1.235   9.026  22.467  0.00  0.00    +0.000 C 
BRANCH  20  22
ATOM     22  C   UNL     1       1.611   8.255  20.127  0.00  0.00    +0.000 A 
ATOM     23  C   UNL     1       1.812   6.982  20.693  0.00  0.00    +0.000 A 
ATOM     24  C   UNL     1       2.280   5.915  19.916  0.00  0.00    +0.000 A 
ATOM     25  C   UNL     1       2.576   6.100  18.562  0.00  0.00    +0.000 A 
ATOM     26  C   UNL     1       2.368   7.365  17.994  0.00  0.00    +0.000 A 
ATOM     27  C   UNL     1       1.867   8.419  18.759  0.00  0.00    +0.000 A 
BRANCH  25  28
ATOM     28  C   UNL     1       3.058   4.955  17.695  0.00  0.00    +0.000 C 
BRANCH  28  29
ATOM     29  N   UNL     1       4.325   5.226  17.001  0.00  0.00    +0.000 NA
ATOM     30  C   UNL     1       5.019   3.965  16.670  0.00  0.00    +0.000 C 
ATOM     31  C   UNL     1       6.366   4.210  15.947  0.00  0.00    +0.000 C 
ATOM     32  N   UNL     1       7.298   5.121  16.644  0.00  0.00    +0.000 NA
ATOM     33  C   UNL     1       7.919   4.482  17.802  0.00  0.00    +0.000 C 
ATOM     34  C   UNL     1       6.568   6.341  17.035  0.00  0.00    +0.000 C 
ATOM     35  C   UNL     1       5.238   6.087  17.779  0.00  0.00    +0.000 C 
ENDBRANCH  28  29
ENDBRANCH  25  28
ENDBRANCH  20  22
ENDBRANCH   8  20
TORSDOF 5
ENDMDL
MODEL 9
REMARK VINA RESULT:      -7.8      3.670      5.220
REMARK  Name = 
REMARK  11 active torsions:
REMARK  status: ('A' for Active; 'I' for Inactive)
REMARK    1  A    between atoms: C_1  and  C_2
REMARK    2  A    between atoms: C_2  and  C_3
REMARK    3  A    between atoms: C_2  and  C_4
REMARK    4  A    between atoms: N_11  and  C_12
REMARK    5  A    between atoms: C_12  and  C_13
REMARK    6  A    between atoms: C_12  and  C_14
REMARK    7  A    between atoms: C_17  and  C_18
REMARK    8  A    between atoms: C_18  and  N_19
REMARK    9  A    between atoms: N_22  and  C_23
REMARK   10  A    between atoms: C_32  and  C_33
REMARK   11  A    between atoms: C_32  and  C_34
REMARK                            x       y       z     vdW  Elec       q    Type
REMARK                         _______ _______ _______ _____ _____    ______ ____
ROOT
ATOM      1  C   UNL     1      -5.501  12.970  21.253  0.00  0.00    +0.000 C 
ATOM      2  N   UNL     1      -4.220  12.566  20.705  0.00  0.00    +0.000 N 
ATOM      3  C   UNL     1      -3.038  12.293  21.436  0.00  0.00    +0.000 A 
ATOM      4  C   UNL     1      -3.048  12.283  22.818  0.00  0.00    +0.000 A 
ATOM      5  C   UNL     1      -1.859  11.948  23.422  0.00  0.00    +0.000 A 
ATOM      6  N   UNL     1      -0.732  11.661  22.752  0.00  0.00    +0.000 NA
ATOM      7  C   UNL     1      -0.802  11.720  21.416  0.00  0.00    +0.000 A 
ATOM      8  N   UNL     1       0.379  11.478  20.729  0.00  0.00    +0.000 N 
ATOM      9  N   UNL     1      -1.923  12.006  20.757  0.00  0.00    +0.000 NA
ATOM     10  C   UNL     1      -4.309  12.486  19.319  0.00  0.00    +0.000 C 
ATOM     11  O   UNL     1      -3.440  12.340  18.483  0.00  0.00    +0.000 OA
ATOM     12  O   UNL     1      -5.637  12.596  18.955  0.00  0.00    +0.000 OA
ATOM     13  C   UNL     1      -6.436  12.446  20.140  0.00  0.00    +0.000 C 
ATOM     14  C   UNL     1      -7.774  13.144  19.930  0.00  0.00    +0.000 C 
ATOM     15  C   UNL     1      -6.724  10.945  20.325  0.00  0.00    +0.000 C 
ATOM     16  H   UNL     1       0.975  10.971  21.380  0.00  0.00    +0.000 HD
ENDROOT
BRANCH   1  18
ATOM     17  C   UNL     1      -5.651  14.860  23.029  0.00  0.00    +0.000 C 
ATOM     18  C   UNL     1      -5.504  14.506  21.548  0.00  0.00    +0.000 C 
ATOM     19  C   UNL     1      -4.313  15.248  20.923  0.00  0.00    +0.000 C 
ENDBRANCH   1  18
BRANCH   8  20
ATOM     20  C   UNL     1       0.257  10.883  19.399  0.00  0.00    +0.000 C 
ATOM     21  C   UNL     1       0.792  11.852  18.340  0.00  0.00    +0.000 C 
BRANCH  20  22
ATOM     22  C   UNL     1       1.042   9.576  19.326  0.00  0.00    +0.000 A 
ATOM     23  C   UNL     1       1.240   8.812  20.491  0.00  0.00    +0.000 A 
ATOM     24  C   UNL     1       1.931   7.596  20.445  0.00  0.00    +0.000 A 
ATOM     25  C   UNL     1       2.457   7.123  19.238  0.00  0.00    +0.000 A 
ATOM     26  C   UNL     1       2.253   7.878  18.074  0.00  0.00    +0.000 A 
ATOM     27  C   UNL     1       1.533   9.072  18.113  0.00  0.00    +0.000 A 
BRANCH  25  28
ATOM     28  C   UNL     1       3.186   5.797  19.158  0.00  0.00    +0.000 C 
BRANCH  28  29
ATOM     29  N   UNL     1       3.937   5.605  17.909  0.00  0.00    +0.000 NA
ATOM     30  C   UNL     1       4.354   4.196  17.763  0.00  0.00    +0.000 C 
ATOM     31  C   UNL     1       5.159   3.957  16.461  0.00  0.00    +0.000 C 
ATOM     32  N   UNL     1       6.326   4.842  16.272  0.00  0.00    +0.000 NA
ATOM     33  C   UNL     1       7.437   4.473  17.148  0.00  0.00    +0.000 C 
ATOM     34  C   UNL     1       5.908   6.238  16.499  0.00  0.00    +0.000 C 
ATOM     35  C   UNL     1       5.128   6.472  17.811  0.00  0.00    +0.000 C 
ENDBRANCH  28  29
ENDBRANCH  25  28
ENDBRANCH  20  22
ENDBRANCH   8  20
TORSDOF 5
ENDMDL
