MODEL 1
REMARK VINA RESULT:      -6.1      0.000      0.000
REMARK  Name = 
REMARK  13 active torsions:
REMARK  status: ('A' for Active; 'I' for Inactive)
REMARK    1  A    between atoms: C_1  and  C_2
REMARK    2  A    between atoms: C_2  and  O_4
REMARK    3  A    between atoms: O_4  and  C_5
REMARK    4  A    between atoms: C_5  and  C_6
REMARK    5  A    between atoms: C_6  and  C_7
REMARK    6  A    between atoms: C_7  and  C_8
REMARK    7  A    between atoms: C_8  and  C_9
REMARK    8  A    between atoms: C_8  and  C_10
REMARK    9  A    between atoms: C_11  and  C_12
REMARK   10  A    between atoms: C_20  and  C_21
REMARK   11  A    between atoms: C_30  and  O_31
REMARK   12  A    between atoms: O_31  and  C_32
REMARK   13  A    between atoms: C_32  and  C_33
REMARK                            x       y       z     vdW  Elec       q    Type
REMARK                         _______ _______ _______ _____ _____    ______ ____
ROOT
ATOM      1  C   UNL     1      -1.929  11.925  20.598  0.00  0.00    +0.000 C 
ATOM      2  C   UNL     1      -2.129  11.853  19.247  0.00  0.00    +0.000 C 
ATOM      3  C   UNL     1      -3.462  11.648  18.551  0.00  0.00    +0.000 C 
ATOM      4  C   UNL     1      -0.987  12.234  18.283  0.00  0.00    +0.000 C 
ATOM      5  C   UNL     1       0.399  12.535  18.925  0.00  0.00    +0.000 C 
ATOM      6  O   UNL     1       1.025  13.775  18.491  0.00  0.00    +0.000 OA
ATOM      7  C   UNL     1       1.177  14.645  19.574  0.00  0.00    +0.000 C 
ATOM      8  O   UNL     1       1.981  15.562  19.614  0.00  0.00    +0.000 OA
ATOM      9  C   UNL     1       0.170  14.250  20.628  0.00  0.00    +0.000 C 
ATOM     10  C   UNL     1       0.103  14.931  22.023  0.00  0.00    +0.000 C 
ATOM     11  C   UNL     1      -1.179  15.743  21.893  0.00  0.00    +0.000 C 
ATOM     12  N   UNL     1      -1.578  15.852  20.671  0.00  0.00    +0.000 NA
ATOM     13  O   UNL     1      -0.918  14.874  19.892  0.00  0.00    +0.000 OA
ATOM     14  C   UNL     1       0.402  12.676  20.437  0.00  0.00    +0.000 C 
ATOM     15  C   UNL     1      -0.556  11.734  21.155  0.00  0.00    +0.000 C 
ENDROOT
BRANCH  11  16
ATOM     16  C   UNL     1      -2.099  16.376  22.965  0.00  0.00    +0.000 A 
ATOM     17  C   UNL     1      -1.854  16.279  24.341  0.00  0.00    +0.000 A 
ATOM     18  C   UNL     1      -2.847  16.505  25.328  0.00  0.00    +0.000 A 
ATOM     19  C   UNL     1      -4.154  16.813  24.937  0.00  0.00    +0.000 A 
ATOM     20  C   UNL     1      -4.438  16.919  23.576  0.00  0.00    +0.000 A 
ATOM     21  C   UNL     1      -3.431  16.688  22.617  0.00  0.00    +0.000 A 
ENDBRANCH  11  16
BRANCH   1  22
ATOM     22  C   UNL     1      -2.764  12.749  21.579  0.00  0.00    +0.000 C 
ATOM     23  C   UNL     1      -3.983  13.367  20.888  0.00  0.00    +0.000 C 
BRANCH  22  24
ATOM     24  C   UNL     1      -2.790  12.493  23.137  0.00  0.00    +0.000 C 
BRANCH  24  25
ATOM     25  C   UNL     1      -3.958  13.236  23.874  0.00  0.00    +0.000 C 
BRANCH  25  26
ATOM     26  C   UNL     1      -5.190  12.504  24.405  0.00  0.00    +0.000 C 
BRANCH  26  27
ATOM     27  O   UNL     1      -6.111  12.104  23.386  0.00  0.00    +0.000 OA
BRANCH  27  29
ATOM     28  C   UNL     1      -7.916  12.867  22.041  0.00  0.00    +0.000 C 
ATOM     29  C   UNL     1      -7.358  12.692  23.421  0.00  0.00    +0.000 C 
ATOM     30  O   UNL     1      -7.916  13.080  24.436  0.00  0.00    +0.000 OA
ENDBRANCH  27  29
ENDBRANCH  26  27
ENDBRANCH  25  26
ENDBRANCH  24  25
ENDBRANCH  22  24
ENDBRANCH   1  22
BRANCH  15  31
ATOM     31  O   UNL     1      -0.493  10.282  21.276  0.00  0.00    +0.000 OA
BRANCH  31  32
ATOM     32  C   UNL     1       0.270   9.691  22.237  0.00  0.00    +0.000 C 
ATOM     33  C   UNL     1       1.252   8.630  21.750  0.00  0.00    +0.000 C 
ATOM     34  O   UNL     1       0.180  10.035  23.404  0.00  0.00    +0.000 OA
ENDBRANCH  31  32
ENDBRANCH  15  31
TORSDOF 9
ENDMDL
MODEL 2
REMARK VINA RESULT:      -6.0      2.272      4.098
REMARK  Name = 
REMARK  13 active torsions:
REMARK  status: ('A' for Active; 'I' for Inactive)
REMARK    1  A    between atoms: C_1  and  C_2
REMARK    2  A    between atoms: C_2  and  O_4
REMARK    3  A    between atoms: O_4  and  C_5
REMARK    4  A    between atoms: C_5  and  C_6
REMARK    5  A    between atoms: C_6  and  C_7
REMARK    6  A    between atoms: C_7  and  C_8
REMARK    7  A    between atoms: C_8  and  C_9
REMARK    8  A    between atoms: C_8  and  C_10
REMARK    9  A    between atoms: C_11  and  C_12
REMARK   10  A    between atoms: C_20  and  C_21
REMARK   11  A    between atoms: C_30  and  O_31
REMARK   12  A    between atoms: O_31  and  C_32
REMARK   13  A    between atoms: C_32  and  C_33
REMARK                            x       y       z     vdW  Elec       q    Type
REMARK                         _______ _______ _______ _____ _____    ______ ____
ROOT
ATOM      1  C   UNL     1      -1.067  12.186  19.362  0.00  0.00    +0.000 C 
ATOM      2  C   UNL     1       0.220  12.592  19.145  0.00  0.00    +0.000 C 
ATOM      3  C   UNL     1       0.649  13.929  18.569  0.00  0.00    +0.000 C 
ATOM      4  C   UNL     1       1.390  11.770  19.722  0.00  0.00    +0.000 C 
ATOM      5  C   UNL     1       1.026  10.416  20.399  0.00  0.00    +0.000 C 
ATOM      6  O   UNL     1       1.604  10.211  21.719  0.00  0.00    +0.000 OA
ATOM      7  C   UNL     1       0.593  10.099  22.677  0.00  0.00    +0.000 C 
ATOM      8  O   UNL     1       0.729   9.560  23.763  0.00  0.00    +0.000 OA
ATOM      9  C   UNL     1      -0.641  10.774  22.126  0.00  0.00    +0.000 C 
ATOM     10  C   UNL     1      -2.005  10.768  22.870  0.00  0.00    +0.000 C 
ATOM     11  C   UNL     1      -2.095  12.217  23.333  0.00  0.00    +0.000 C 
ATOM     12  N   UNL     1      -0.966  12.836  23.251  0.00  0.00    +0.000 NA
ATOM     13  O   UNL     1      -0.105  12.095  22.409  0.00  0.00    +0.000 OA
ATOM     14  C   UNL     1      -0.454  10.187  20.647  0.00  0.00    +0.000 C 
ATOM     15  C   UNL     1      -1.363  10.734  19.555  0.00  0.00    +0.000 C 
ENDROOT
BRANCH  11  16
ATOM     16  C   UNL     1      -3.301  13.066  23.799  0.00  0.00    +0.000 A 
ATOM     17  C   UNL     1      -4.601  12.555  23.915  0.00  0.00    +0.000 A 
ATOM     18  C   UNL     1      -5.759  13.373  23.962  0.00  0.00    +0.000 A 
ATOM     19  C   UNL     1      -5.631  14.762  23.861  0.00  0.00    +0.000 A 
ATOM     20  C   UNL     1      -4.354  15.308  23.744  0.00  0.00    +0.000 A 
ATOM     21  C   UNL     1      -3.221  14.472  23.698  0.00  0.00    +0.000 A 
ENDBRANCH  11  16
BRANCH   1  22
ATOM     22  C   UNL     1      -2.164  13.019  20.027  0.00  0.00    +0.000 C 
ATOM     23  C   UNL     1      -1.751  14.490  20.142  0.00  0.00    +0.000 C 
BRANCH  22  24
ATOM     24  C   UNL     1      -3.695  12.632  20.001  0.00  0.00    +0.000 C 
BRANCH  24  25
ATOM     25  C   UNL     1      -4.649  13.835  20.323  0.00  0.00    +0.000 C 
BRANCH  25  26
ATOM     26  C   UNL     1      -6.170  13.686  20.365  0.00  0.00    +0.000 C 
BRANCH  26  27
ATOM     27  O   UNL     1      -6.677  12.672  19.493  0.00  0.00    +0.000 OA
BRANCH  27  29
ATOM     28  C   UNL     1      -6.814  10.354  18.983  0.00  0.00    +0.000 C 
ATOM     29  C   UNL     1      -6.840  11.416  20.040  0.00  0.00    +0.000 C 
ATOM     30  O   UNL     1      -7.042  11.195  21.225  0.00  0.00    +0.000 OA
ENDBRANCH  27  29
ENDBRANCH  26  27
ENDBRANCH  25  26
ENDBRANCH  24  25
ENDBRANCH  22  24
ENDBRANCH   1  22
BRANCH  15  31
ATOM     31  O   UNL     1      -1.510  10.284  18.175  0.00  0.00    +0.000 OA
BRANCH  31  32
ATOM     32  C   UNL     1      -2.742  10.138  17.612  0.00  0.00    +0.000 C 
ATOM     33  C   UNL     1      -3.083  11.117  16.493  0.00  0.00    +0.000 C 
ATOM     34  O   UNL     1      -3.492   9.248  17.975  0.00  0.00    +0.000 OA
ENDBRANCH  31  32
ENDBRANCH  15  31
TORSDOF 9
ENDMDL
MODEL 3
REMARK VINA RESULT:      -6.0      1.050      1.118
REMARK  Name = 
REMARK  13 active torsions:
REMARK  status: ('A' for Active; 'I' for Inactive)
REMARK    1  A    between atoms: C_1  and  C_2
REMARK    2  A    between atoms: C_2  and  O_4
REMARK    3  A    between atoms: O_4  and  C_5
REMARK    4  A    between atoms: C_5  and  C_6
REMARK    5  A    between atoms: C_6  and  C_7
REMARK    6  A    between atoms: C_7  and  C_8
REMARK    7  A    between atoms: C_8  and  C_9
REMARK    8  A    between atoms: C_8  and  C_10
REMARK    9  A    between atoms: C_11  and  C_12
REMARK   10  A    between atoms: C_20  and  C_21
REMARK   11  A    between atoms: C_30  and  O_31
REMARK   12  A    between atoms: O_31  and  C_32
REMARK   13  A    between atoms: C_32  and  C_33
REMARK                            x       y       z     vdW  Elec       q    Type
REMARK                         _______ _______ _______ _____ _____    ______ ____
ROOT
ATOM      1  C   UNL     1      -1.254  11.565  20.727  0.00  0.00    +0.000 C 
ATOM      2  C   UNL     1      -1.289  11.298  19.387  0.00  0.00    +0.000 C 
ATOM      3  C   UNL     1      -2.536  11.074  18.553  0.00  0.00    +0.000 C 
ATOM      4  C   UNL     1      -0.007  11.452  18.542  0.00  0.00    +0.000 C 
ATOM      5  C   UNL     1       1.308  11.760  19.317  0.00  0.00    +0.000 C 
ATOM      6  O   UNL     1       2.085  12.876  18.797  0.00  0.00    +0.000 OA
ATOM      7  C   UNL     1       2.172  13.891  19.752  0.00  0.00    +0.000 C 
ATOM      8  O   UNL     1       3.038  14.750  19.769  0.00  0.00    +0.000 OA
ATOM      9  C   UNL     1       1.012  13.729  20.706  0.00  0.00    +0.000 C 
ATOM     10  C   UNL     1       0.828  14.620  21.966  0.00  0.00    +0.000 C 
ATOM     11  C   UNL     1      -0.355  15.483  21.546  0.00  0.00    +0.000 C 
ATOM     12  N   UNL     1      -0.588  15.426  20.279  0.00  0.00    +0.000 NA
ATOM     13  O   UNL     1       0.081  14.300  19.747  0.00  0.00    +0.000 OA
ATOM     14  C   UNL     1       1.133  12.133  20.778  0.00  0.00    +0.000 C 
ATOM     15  C   UNL     1       0.018  11.376  21.488  0.00  0.00    +0.000 C 
ENDROOT
BRANCH  11  16
ATOM     16  C   UNL     1      -1.345  16.331  22.379  0.00  0.00    +0.000 A 
ATOM     17  C   UNL     1      -1.266  16.455  23.773  0.00  0.00    +0.000 A 
ATOM     18  C   UNL     1      -2.348  16.892  24.580  0.00  0.00    +0.000 A 
ATOM     19  C   UNL     1      -3.577  17.193  23.986  0.00  0.00    +0.000 A 
ATOM     20  C   UNL     1      -3.696  17.082  22.601  0.00  0.00    +0.000 A 
ATOM     21  C   UNL     1      -2.605  16.644  21.824  0.00  0.00    +0.000 A 
ENDBRANCH  11  16
BRANCH   1  22
ATOM     22  C   UNL     1      -2.133  12.582  21.456  0.00  0.00    +0.000 C 
ATOM     23  C   UNL     1      -3.278  13.069  20.562  0.00  0.00    +0.000 C 
BRANCH  22  24
ATOM     24  C   UNL     1      -2.282  12.645  23.027  0.00  0.00    +0.000 C 
BRANCH  24  25
ATOM     25  C   UNL     1      -3.564  13.415  23.503  0.00  0.00    +0.000 C 
BRANCH  25  26
ATOM     26  C   UNL     1      -4.772  12.700  24.107  0.00  0.00    +0.000 C 
BRANCH  26  27
ATOM     27  O   UNL     1      -5.868  12.547  23.200  0.00  0.00    +0.000 OA
BRANCH  27  29
ATOM     28  C   UNL     1      -7.680  13.665  24.254  0.00  0.00    +0.000 C 
ATOM     29  C   UNL     1      -7.112  12.367  23.765  0.00  0.00    +0.000 C 
ATOM     30  O   UNL     1      -7.662  11.285  23.909  0.00  0.00    +0.000 OA
ENDBRANCH  27  29
ENDBRANCH  26  27
ENDBRANCH  25  26
ENDBRANCH  24  25
ENDBRANCH  22  24
ENDBRANCH   1  22
BRANCH  15  31
ATOM     31  O   UNL     1      -0.056   9.958  21.825  0.00  0.00    +0.000 OA
BRANCH  31  32
ATOM     32  C   UNL     1       1.075   9.217  21.987  0.00  0.00    +0.000 C 
ATOM     33  C   UNL     1       1.336   8.158  20.920  0.00  0.00    +0.000 C 
ATOM     34  O   UNL     1       1.835   9.432  22.917  0.00  0.00    +0.000 OA
ENDBRANCH  31  32
ENDBRANCH  15  31
TORSDOF 9
ENDMDL
MODEL 4
REMARK VINA RESULT:      -5.9      2.037      3.743
REMARK  Name = 
REMARK  13 active torsions:
REMARK  status: ('A' for Active; 'I' for Inactive)
REMARK    1  A    between atoms: C_1  and  C_2
REMARK    2  A    between atoms: C_2  and  O_4
REMARK    3  A    between atoms: O_4  and  C_5
REMARK    4  A    between atoms: C_5  and  C_6
REMARK    5  A    between atoms: C_6  and  C_7
REMARK    6  A    between atoms: C_7  and  C_8
REMARK    7  A    between atoms: C_8  and  C_9
REMARK    8  A    between atoms: C_8  and  C_10
REMARK    9  A    between atoms: C_11  and  C_12
REMARK   10  A    between atoms: C_20  and  C_21
REMARK   11  A    between atoms: C_30  and  O_31
REMARK   12  A    between atoms: O_31  and  C_32
REMARK   13  A    between atoms: C_32  and  C_33
REMARK                            x       y       z     vdW  Elec       q    Type
REMARK                         _______ _______ _______ _____ _____    ______ ____
ROOT
ATOM      1  C   UNL     1      -1.122  13.284  19.626  0.00  0.00    +0.000 C 
ATOM      2  C   UNL     1       0.215  13.410  19.370  0.00  0.00    +0.000 C 
ATOM      3  C   UNL     1       0.920  14.672  18.910  0.00  0.00    +0.000 C 
ATOM      4  C   UNL     1       1.183  12.283  19.784  0.00  0.00    +0.000 C 
ATOM      5  C   UNL     1       0.541  10.979  20.340  0.00  0.00    +0.000 C 
ATOM      6  O   UNL     1       1.105  10.498  21.593  0.00  0.00    +0.000 OA
ATOM      7  C   UNL     1       0.133  10.509  22.596  0.00  0.00    +0.000 C 
ATOM      8  O   UNL     1       0.181   9.832  23.610  0.00  0.00    +0.000 OA
ATOM      9  C   UNL     1      -0.931  11.504  22.197  0.00  0.00    +0.000 C 
ATOM     10  C   UNL     1      -2.230  11.721  23.022  0.00  0.00    +0.000 C 
ATOM     11  C   UNL     1      -1.963  13.090  23.636  0.00  0.00    +0.000 C 
ATOM     12  N   UNL     1      -0.726  13.443  23.546  0.00  0.00    +0.000 NA
ATOM     13  O   UNL     1      -0.092  12.628  22.580  0.00  0.00    +0.000 OA
ATOM     14  C   UNL     1      -0.941  11.064  20.657  0.00  0.00    +0.000 C 
ATOM     15  C   UNL     1      -1.740  11.924  19.686  0.00  0.00    +0.000 C 
ENDROOT
BRANCH  11  16
ATOM     16  C   UNL     1      -2.921  14.132  24.262  0.00  0.00    +0.000 A 
ATOM     17  C   UNL     1      -4.262  14.268  23.880  0.00  0.00    +0.000 A 
ATOM     18  C   UNL     1      -5.035  15.428  24.146  0.00  0.00    +0.000 A 
ATOM     19  C   UNL     1      -4.447  16.518  24.794  0.00  0.00    +0.000 A 
ATOM     20  C   UNL     1      -3.113  16.421  25.190  0.00  0.00    +0.000 A 
ATOM     21  C   UNL     1      -2.369  15.257  24.912  0.00  0.00    +0.000 A 
ENDBRANCH  11  16
BRANCH   1  22
ATOM     22  C   UNL     1      -1.969  14.262  20.441  0.00  0.00    +0.000 C 
ATOM     23  C   UNL     1      -1.146  15.474  20.884  0.00  0.00    +0.000 C 
BRANCH  22  24
ATOM     24  C   UNL     1      -3.539  14.384  20.306  0.00  0.00    +0.000 C 
BRANCH  24  25
ATOM     25  C   UNL     1      -4.292  13.025  20.518  0.00  0.00    +0.000 C 
BRANCH  25  26
ATOM     26  C   UNL     1      -5.493  12.612  19.668  0.00  0.00    +0.000 C 
BRANCH  26  27
ATOM     27  O   UNL     1      -6.756  12.858  20.291  0.00  0.00    +0.000 OA
BRANCH  27  29
ATOM     28  C   UNL     1      -7.514  12.667  22.536  0.00  0.00    +0.000 C 
ATOM     29  C   UNL     1      -7.146  11.963  21.265  0.00  0.00    +0.000 C 
ATOM     30  O   UNL     1      -7.136  10.748  21.137  0.00  0.00    +0.000 OA
ENDBRANCH  27  29
ENDBRANCH  26  27
ENDBRANCH  25  26
ENDBRANCH  24  25
ENDBRANCH  22  24
ENDBRANCH   1  22
BRANCH  15  31
ATOM     31  O   UNL     1      -2.039  11.681  18.279  0.00  0.00    +0.000 OA
BRANCH  31  32
ATOM     32  C   UNL     1      -2.084  10.413  17.782  0.00  0.00    +0.000 C 
ATOM     33  C   UNL     1      -3.475   9.805  17.633  0.00  0.00    +0.000 C 
ATOM     34  O   UNL     1      -1.062   9.837  17.449  0.00  0.00    +0.000 OA
ENDBRANCH  31  32
ENDBRANCH  15  31
TORSDOF 9
ENDMDL
MODEL 5
REMARK VINA RESULT:      -5.8      1.174      1.357
REMARK  Name = 
REMARK  13 active torsions:
REMARK  status: ('A' for Active; 'I' for Inactive)
REMARK    1  A    between atoms: C_1  and  C_2
REMARK    2  A    between atoms: C_2  and  O_4
REMARK    3  A    between atoms: O_4  and  C_5
REMARK    4  A    between atoms: C_5  and  C_6
REMARK    5  A    between atoms: C_6  and  C_7
REMARK    6  A    between atoms: C_7  and  C_8
REMARK    7  A    between atoms: C_8  and  C_9
REMARK    8  A    between atoms: C_8  and  C_10
REMARK    9  A    between atoms: C_11  and  C_12
REMARK   10  A    between atoms: C_20  and  C_21
REMARK   11  A    between atoms: C_30  and  O_31
REMARK   12  A    between atoms: O_31  and  C_32
REMARK   13  A    between atoms: C_32  and  C_33
REMARK                            x       y       z     vdW  Elec       q    Type
REMARK                         _______ _______ _______ _____ _____    ______ ____
ROOT
ATOM      1  C   UNL     1      -2.080  12.029  21.139  0.00  0.00    +0.000 C 
ATOM      2  C   UNL     1      -1.773  11.904  19.813  0.00  0.00    +0.000 C 
ATOM      3  C   UNL     1      -2.765  11.714  18.680  0.00  0.00    +0.000 C 
ATOM      4  C   UNL     1      -0.339  12.204  19.328  0.00  0.00    +0.000 C 
ATOM      5  C   UNL     1       0.726  12.486  20.427  0.00  0.00    +0.000 C 
ATOM      6  O   UNL     1       1.526  13.685  20.219  0.00  0.00    +0.000 OA
ATOM      7  C   UNL     1       1.310  14.596  21.256  0.00  0.00    +0.000 C 
ATOM      8  O   UNL     1       2.086  15.485  21.564  0.00  0.00    +0.000 OA
ATOM      9  C   UNL     1      -0.031  14.282  21.875  0.00  0.00    +0.000 C 
ATOM     10  C   UNL     1      -0.573  15.025  23.127  0.00  0.00    +0.000 C 
ATOM     11  C   UNL     1      -1.678  15.874  22.510  0.00  0.00    +0.000 C 
ATOM     12  N   UNL     1      -1.594  15.942  21.225  0.00  0.00    +0.000 NA
ATOM     13  O   UNL     1      -0.741  14.909  20.773  0.00  0.00    +0.000 OA
ATOM     14  C   UNL     1       0.180  12.694  21.828  0.00  0.00    +0.000 C 
ATOM     15  C   UNL     1      -1.019  11.817  22.169  0.00  0.00    +0.000 C 
ENDROOT
BRANCH  11  16
ATOM     16  C   UNL     1      -2.896  16.584  23.148  0.00  0.00    +0.000 A 
ATOM     17  C   UNL     1      -3.176  16.543  24.521  0.00  0.00    +0.000 A 
ATOM     18  C   UNL     1      -4.451  16.845  25.066  0.00  0.00    +0.000 A 
ATOM     19  C   UNL     1      -5.508  17.176  24.213  0.00  0.00    +0.000 A 
ATOM     20  C   UNL     1      -5.269  17.227  22.840  0.00  0.00    +0.000 A 
ATOM     21  C   UNL     1      -3.993  16.921  22.326  0.00  0.00    +0.000 A 
ENDBRANCH  11  16
BRANCH   1  22
ATOM     22  C   UNL     1      -3.177  12.923  21.719  0.00  0.00    +0.000 C 
ATOM     23  C   UNL     1      -4.006  13.576  20.609  0.00  0.00    +0.000 C 
BRANCH  22  24
ATOM     24  C   UNL     1      -3.806  12.719  23.153  0.00  0.00    +0.000 C 
BRANCH  24  25
ATOM     25  C   UNL     1      -5.127  13.535  23.378  0.00  0.00    +0.000 C 
BRANCH  25  26
ATOM     26  C   UNL     1      -6.477  12.860  23.616  0.00  0.00    +0.000 C 
BRANCH  26  27
ATOM     27  O   UNL     1      -6.768  11.806  22.694  0.00  0.00    +0.000 OA
BRANCH  27  29
ATOM     28  C   UNL     1      -6.894  11.214  20.395  0.00  0.00    +0.000 C 
ATOM     29  C   UNL     1      -7.281  12.184  21.471  0.00  0.00    +0.000 C 
ATOM     30  O   UNL     1      -7.917  13.208  21.270  0.00  0.00    +0.000 OA
ENDBRANCH  27  29
ENDBRANCH  26  27
ENDBRANCH  25  26
ENDBRANCH  24  25
ENDBRANCH  22  24
ENDBRANCH   1  22
BRANCH  15  31
ATOM     31  O   UNL     1      -1.073  10.370  22.346  0.00  0.00    +0.000 OA
BRANCH  31  32
ATOM     32  C   UNL     1       0.032   9.668  22.722  0.00  0.00    +0.000 C 
ATOM     33  C   UNL     1       0.739   8.894  21.614  0.00  0.00    +0.000 C 
ATOM     34  O   UNL     1       0.431   9.704  23.874  0.00  0.00    +0.000 OA
ENDBRANCH  31  32
ENDBRANCH  15  31
TORSDOF 9
ENDMDL
MODEL 6
REMARK VINA RESULT:      -5.7      2.109      3.909
REMARK  Name = 
REMARK  13 active torsions:
REMARK  status: ('A' for Active; 'I' for Inactive)
REMARK    1  A    between atoms: C_1  and  C_2
REMARK    2  A    between atoms: C_2  and  O_4
REMARK    3  A    between atoms: O_4  and  C_5
REMARK    4  A    between atoms: C_5  and  C_6
REMARK    5  A    between atoms: C_6  and  C_7
REMARK    6  A    between atoms: C_7  and  C_8
REMARK    7  A    between atoms: C_8  and  C_9
REMARK    8  A    between atoms: C_8  and  C_10
REMARK    9  A    between atoms: C_11  and  C_12
REMARK   10  A    between atoms: C_20  and  C_21
REMARK   11  A    between atoms: C_30  and  O_31
REMARK   12  A    between atoms: O_31  and  C_32
REMARK   13  A    between atoms: C_32  and  C_33
REMARK                            x       y       z     vdW  Elec       q    Type
REMARK                         _______ _______ _______ _____ _____    ______ ____
ROOT
ATOM      1  C   UNL     1      -1.136  13.311  19.566  0.00  0.00    +0.000 C 
ATOM      2  C   UNL     1       0.203  13.419  19.314  0.00  0.00    +0.000 C 
ATOM      3  C   UNL     1       0.926  14.666  18.840  0.00  0.00    +0.000 C 
ATOM      4  C   UNL     1       1.158  12.286  19.746  0.00  0.00    +0.000 C 
ATOM      5  C   UNL     1       0.498  10.996  20.316  0.00  0.00    +0.000 C 
ATOM      6  O   UNL     1       1.052  10.525  21.577  0.00  0.00    +0.000 OA
ATOM      7  C   UNL     1       0.077  10.560  22.577  0.00  0.00    +0.000 C 
ATOM      8  O   UNL     1       0.113   9.896  23.599  0.00  0.00    +0.000 OA
ATOM      9  C   UNL     1      -0.974  11.563  22.161  0.00  0.00    +0.000 C 
ATOM     10  C   UNL     1      -2.273  11.806  22.978  0.00  0.00    +0.000 C 
ATOM     11  C   UNL     1      -1.992  13.179  23.575  0.00  0.00    +0.000 C 
ATOM     12  N   UNL     1      -0.751  13.516  23.486  0.00  0.00    +0.000 NA
ATOM     13  O   UNL     1      -0.123  12.681  22.533  0.00  0.00    +0.000 OA
ATOM     14  C   UNL     1      -0.984  11.102  20.627  0.00  0.00    +0.000 C 
ATOM     15  C   UNL     1      -1.769  11.960  19.642  0.00  0.00    +0.000 C 
ENDROOT
BRANCH  11  16
ATOM     16  C   UNL     1      -2.940  14.240  24.185  0.00  0.00    +0.000 A 
ATOM     17  C   UNL     1      -4.334  14.195  24.045  0.00  0.00    +0.000 A 
ATOM     18  C   UNL     1      -5.175  15.319  24.251  0.00  0.00    +0.000 A 
ATOM     19  C   UNL     1      -4.611  16.555  24.582  0.00  0.00    +0.000 A 
ATOM     20  C   UNL     1      -3.227  16.640  24.730  0.00  0.00    +0.000 A 
ATOM     21  C   UNL     1      -2.415  15.508  24.519  0.00  0.00    +0.000 A 
ENDBRANCH  11  16
BRANCH   1  22
ATOM     22  C   UNL     1      -1.974  14.309  20.365  0.00  0.00    +0.000 C 
ATOM     23  C   UNL     1      -1.271  15.666  20.470  0.00  0.00    +0.000 C 
BRANCH  22  24
ATOM     24  C   UNL     1      -3.546  14.226  20.497  0.00  0.00    +0.000 C 
BRANCH  24  25
ATOM     25  C   UNL     1      -4.232  15.623  20.694  0.00  0.00    +0.000 C 
BRANCH  25  26
ATOM     26  C   UNL     1      -5.683  15.887  20.295  0.00  0.00    +0.000 C 
BRANCH  26  27
ATOM     27  O   UNL     1      -6.642  15.233  21.130  0.00  0.00    +0.000 OA
BRANCH  27  29
ATOM     28  C   UNL     1      -7.153  13.013  21.810  0.00  0.00    +0.000 C 
ATOM     29  C   UNL     1      -7.107  14.011  20.692  0.00  0.00    +0.000 C 
ATOM     30  O   UNL     1      -7.388  13.749  19.532  0.00  0.00    +0.000 OA
ENDBRANCH  27  29
ENDBRANCH  26  27
ENDBRANCH  25  26
ENDBRANCH  24  25
ENDBRANCH  22  24
ENDBRANCH   1  22
BRANCH  15  31
ATOM     31  O   UNL     1      -2.067  11.702  18.237  0.00  0.00    +0.000 OA
BRANCH  31  32
ATOM     32  C   UNL     1      -3.266  11.177  17.860  0.00  0.00    +0.000 C 
ATOM     33  C   UNL     1      -3.264   9.690  17.518  0.00  0.00    +0.000 C 
ATOM     34  O   UNL     1      -4.271  11.867  17.842  0.00  0.00    +0.000 OA
ENDBRANCH  31  32
ENDBRANCH  15  31
TORSDOF 9
ENDMDL
MODEL 7
REMARK VINA RESULT:      -5.7      1.107      1.218
REMARK  Name = 
REMARK  13 active torsions:
REMARK  status: ('A' for Active; 'I' for Inactive)
REMARK    1  A    between atoms: C_1  and  C_2
REMARK    2  A    between atoms: C_2  and  O_4
REMARK    3  A    between atoms: O_4  and  C_5
REMARK    4  A    between atoms: C_5  and  C_6
REMARK    5  A    between atoms: C_6  and  C_7
REMARK    6  A    between atoms: C_7  and  C_8
REMARK    7  A    between atoms: C_8  and  C_9
REMARK    8  A    between atoms: C_8  and  C_10
REMARK    9  A    between atoms: C_11  and  C_12
REMARK   10  A    between atoms: C_20  and  C_21
REMARK   11  A    between atoms: C_30  and  O_31
REMARK   12  A    between atoms: O_31  and  C_32
REMARK   13  A    between atoms: C_32  and  C_33
REMARK                            x       y       z     vdW  Elec       q    Type
REMARK                         _______ _______ _______ _____ _____    ______ ____
ROOT
ATOM      1  C   UNL     1      -0.901  12.070  20.307  0.00  0.00    +0.000 C 
ATOM      2  C   UNL     1      -0.767  12.104  18.947  0.00  0.00    +0.000 C 
ATOM      3  C   UNL     1      -1.876  11.884  17.935  0.00  0.00    +0.000 C 
ATOM      4  C   UNL     1       0.540  12.631  18.319  0.00  0.00    +0.000 C 
ATOM      5  C   UNL     1       1.706  12.953  19.298  0.00  0.00    +0.000 C 
ATOM      6  O   UNL     1       2.321  14.260  19.117  0.00  0.00    +0.000 OA
ATOM      7  C   UNL     1       2.144  15.041  20.262  0.00  0.00    +0.000 C 
ATOM      8  O   UNL     1       2.844  15.995  20.561  0.00  0.00    +0.000 OA
ATOM      9  C   UNL     1       0.948  14.500  21.010  0.00  0.00    +0.000 C 
ATOM     10  C   UNL     1       0.500  15.053  22.391  0.00  0.00    +0.000 C 
ATOM     11  C   UNL     1      -0.772  15.799  22.010  0.00  0.00    +0.000 C 
ATOM     12  N   UNL     1      -0.876  15.990  20.738  0.00  0.00    +0.000 NA
ATOM     13  O   UNL     1       0.023  15.122  20.077  0.00  0.00    +0.000 OA
ATOM     14  C   UNL     1       1.338  12.964  20.771  0.00  0.00    +0.000 C 
ATOM     15  C   UNL     1       0.311  11.911  21.167  0.00  0.00    +0.000 C 
ENDROOT
BRANCH  11  16
ATOM     16  C   UNL     1      -1.966  16.284  22.867  0.00  0.00    +0.000 A 
ATOM     17  C   UNL     1      -1.964  16.260  24.268  0.00  0.00    +0.000 A 
ATOM     18  C   UNL     1      -3.146  16.330  25.050  0.00  0.00    +0.000 A 
ATOM     19  C   UNL     1      -4.392  16.398  24.419  0.00  0.00    +0.000 A 
ATOM     20  C   UNL     1      -4.434  16.423  23.026  0.00  0.00    +0.000 A 
ATOM     21  C   UNL     1      -3.245  16.352  22.273  0.00  0.00    +0.000 A 
ENDBRANCH  11  16
BRANCH   1  22
ATOM     22  C   UNL     1      -2.005  12.758  21.111  0.00  0.00    +0.000 C 
ATOM     23  C   UNL     1      -3.146  13.222  20.201  0.00  0.00    +0.000 C 
BRANCH  22  24
ATOM     24  C   UNL     1      -2.284  12.472  22.639  0.00  0.00    +0.000 C 
BRANCH  24  25
ATOM     25  C   UNL     1      -3.810  12.392  22.991  0.00  0.00    +0.000 C 
BRANCH  25  26
ATOM     26  C   UNL     1      -4.359  12.808  24.356  0.00  0.00    +0.000 C 
BRANCH  26  27
ATOM     27  O   UNL     1      -5.484  12.037  24.787  0.00  0.00    +0.000 OA
BRANCH  27  29
ATOM     28  C   UNL     1      -6.938  13.762  24.040  0.00  0.00    +0.000 C 
ATOM     29  C   UNL     1      -6.682  12.290  24.153  0.00  0.00    +0.000 C 
ATOM     30  O   UNL     1      -7.467  11.430  23.782  0.00  0.00    +0.000 OA
ENDBRANCH  27  29
ENDBRANCH  26  27
ENDBRANCH  25  26
ENDBRANCH  24  25
ENDBRANCH  22  24
ENDBRANCH   1  22
BRANCH  15  31
ATOM     31  O   UNL     1       0.454  10.459  21.198  0.00  0.00    +0.000 OA
BRANCH  31  32
ATOM     32  C   UNL     1       0.681   9.802  22.369  0.00  0.00    +0.000 C 
ATOM     33  C   UNL     1      -0.560   9.418  23.169  0.00  0.00    +0.000 C 
ATOM     34  O   UNL     1       1.815   9.518  22.715  0.00  0.00    +0.000 OA
ENDBRANCH  31  32
ENDBRANCH  15  31
TORSDOF 9
ENDMDL
MODEL 8
REMARK VINA RESULT:      -5.7      2.884      5.984
REMARK  Name = 
REMARK  13 active torsions:
REMARK  status: ('A' for Active; 'I' for Inactive)
REMARK    1  A    between atoms: C_1  and  C_2
REMARK    2  A    between atoms: C_2  and  O_4
REMARK    3  A    between atoms: O_4  and  C_5
REMARK    4  A    between atoms: C_5  and  C_6
REMARK    5  A    between atoms: C_6  and  C_7
REMARK    6  A    between atoms: C_7  and  C_8
REMARK    7  A    between atoms: C_8  and  C_9
REMARK    8  A    between atoms: C_8  and  C_10
REMARK    9  A    between atoms: C_11  and  C_12
REMARK   10  A    between atoms: C_20  and  C_21
REMARK   11  A    between atoms: C_30  and  O_31
REMARK   12  A    between atoms: O_31  and  C_32
REMARK   13  A    between atoms: C_32  and  C_33
REMARK                            x       y       z     vdW  Elec       q    Type
REMARK                         _______ _______ _______ _____ _____    ______ ____
ROOT
ATOM      1  C   UNL     1       0.044  13.085  18.840  0.00  0.00    +0.000 C 
ATOM      2  C   UNL     1       1.164  12.313  18.707  0.00  0.00    +0.000 C 
ATOM      3  C   UNL     1       2.510  12.775  18.178  0.00  0.00    +0.000 C 
ATOM      4  C   UNL     1       1.206  10.909  19.344  0.00  0.00    +0.000 C 
ATOM      5  C   UNL     1      -0.116  10.390  19.980  0.00  0.00    +0.000 C 
ATOM      6  O   UNL     1       0.012   9.862  21.331  0.00  0.00    +0.000 OA
ATOM      7  C   UNL     1      -0.742  10.628  22.223  0.00  0.00    +0.000 C 
ATOM      8  O   UNL     1      -1.136  10.233  23.308  0.00  0.00    +0.000 OA
ATOM      9  C   UNL     1      -0.941  11.993  21.606  0.00  0.00    +0.000 C 
ATOM     10  C   UNL     1      -1.819  13.093  22.265  0.00  0.00    +0.000 C 
ATOM     11  C   UNL     1      -0.754  14.073  22.740  0.00  0.00    +0.000 C 
ATOM     12  N   UNL     1       0.431  13.563  22.736  0.00  0.00    +0.000 NA
ATOM     13  O   UNL     1       0.416  12.394  21.939  0.00  0.00    +0.000 OA
ATOM     14  C   UNL     1      -1.217  11.424  20.134  0.00  0.00    +0.000 C 
ATOM     15  C   UNL     1      -1.291  12.433  18.995  0.00  0.00    +0.000 C 
ENDROOT
BRANCH  11  16
ATOM     16  C   UNL     1      -0.847  15.565  23.142  0.00  0.00    +0.000 A 
ATOM     17  C   UNL     1      -2.051  16.282  23.157  0.00  0.00    +0.000 A 
ATOM     18  C   UNL     1      -2.114  17.699  23.144  0.00  0.00    +0.000 A 
ATOM     19  C   UNL     1      -0.933  18.445  23.084  0.00  0.00    +0.000 A 
ATOM     20  C   UNL     1       0.285  17.767  23.068  0.00  0.00    +0.000 A 
ATOM     21  C   UNL     1       0.319  16.359  23.081  0.00  0.00    +0.000 A 
ENDBRANCH  11  16
BRANCH   1  22
ATOM     22  C   UNL     1      -0.004  14.488  19.447  0.00  0.00    +0.000 C 
ATOM     23  C   UNL     1       1.387  15.129  19.475  0.00  0.00    +0.000 C 
BRANCH  22  24
ATOM     24  C   UNL     1      -1.291  15.403  19.436  0.00  0.00    +0.000 C 
BRANCH  24  25
ATOM     25  C   UNL     1      -0.973  16.932  19.587  0.00  0.00    +0.000 C 
BRANCH  25  26
ATOM     26  C   UNL     1      -0.749  17.845  18.382  0.00  0.00    +0.000 C 
BRANCH  26  27
ATOM     27  O   UNL     1       0.557  18.426  18.330  0.00  0.00    +0.000 OA
BRANCH  27  29
ATOM     28  C   UNL     1       0.517  18.425  15.953  0.00  0.00    +0.000 C 
ATOM     29  C   UNL     1       1.303  18.159  17.201  0.00  0.00    +0.000 C 
ATOM     30  O   UNL     1       2.438  17.706  17.209  0.00  0.00    +0.000 OA
ENDBRANCH  27  29
ENDBRANCH  26  27
ENDBRANCH  25  26
ENDBRANCH  24  25
ENDBRANCH  22  24
ENDBRANCH   1  22
BRANCH  15  31
ATOM     31  O   UNL     1      -1.669  12.216  17.603  0.00  0.00    +0.000 OA
BRANCH  31  32
ATOM     32  C   UNL     1      -2.386  11.117  17.235  0.00  0.00    +0.000 C 
ATOM     33  C   UNL     1      -3.904  11.271  17.269  0.00  0.00    +0.000 C 
ATOM     34  O   UNL     1      -1.824  10.099  16.868  0.00  0.00    +0.000 OA
ENDBRANCH  31  32
ENDBRANCH  15  31
TORSDOF 9
ENDMDL
MODEL 9
REMARK VINA RESULT:      -5.7      1.870      2.400
REMARK  Name = 
REMARK  13 active torsions:
REMARK  status: ('A' for Active; 'I' for Inactive)
REMARK    1  A    between atoms: C_1  and  C_2
REMARK    2  A    between atoms: C_2  and  O_4
REMARK    3  A    between atoms: O_4  and  C_5
REMARK    4  A    between atoms: C_5  and  C_6
REMARK    5  A    between atoms: C_6  and  C_7
REMARK    6  A    between atoms: C_7  and  C_8
REMARK    7  A    between atoms: C_8  and  C_9
REMARK    8  A    between atoms: C_8  and  C_10
REMARK    9  A    between atoms: C_11  and  C_12
REMARK   10  A    between atoms: C_20  and  C_21
REMARK   11  A    between atoms: C_30  and  O_31
REMARK   12  A    between atoms: O_31  and  C_32
REMARK   13  A    between atoms: C_32  and  C_33
REMARK                            x       y       z     vdW  Elec       q    Type
REMARK                         _______ _______ _______ _____ _____    ______ ____
ROOT
ATOM      1  C   UNL     1      -1.098  11.165  20.217  0.00  0.00    +0.000 C 
ATOM      2  C   UNL     1      -1.181  10.577  18.986  0.00  0.00    +0.000 C 
ATOM      3  C   UNL     1      -2.460  10.227  18.247  0.00  0.00    +0.000 C 
ATOM      4  C   UNL     1       0.086  10.441  18.115  0.00  0.00    +0.000 C 
ATOM      5  C   UNL     1       1.434  10.852  18.775  0.00  0.00    +0.000 C 
ATOM      6  O   UNL     1       2.258  11.757  17.985  0.00  0.00    +0.000 OA
ATOM      7  C   UNL     1       2.425  12.970  18.658  0.00  0.00    +0.000 C 
ATOM      8  O   UNL     1       3.337  13.753  18.451  0.00  0.00    +0.000 OA
ATOM      9  C   UNL     1       1.281  13.118  19.634  0.00  0.00    +0.000 C 
ATOM     10  C   UNL     1       1.179  14.302  20.634  0.00  0.00    +0.000 C 
ATOM     11  C   UNL     1       0.034  15.103  20.026  0.00  0.00    +0.000 C 
ATOM     12  N   UNL     1      -0.233  14.748  18.815  0.00  0.00    +0.000 NA
ATOM     13  O   UNL     1       0.359  13.487  18.572  0.00  0.00    +0.000 OA
ATOM     14  C   UNL     1       1.317  11.585  20.099  0.00  0.00    +0.000 C 
ATOM     15  C   UNL     1       0.180  11.095  20.987  0.00  0.00    +0.000 C 
ENDROOT
BRANCH  11  16
ATOM     16  C   UNL     1      -0.887  16.188  20.632  0.00  0.00    +0.000 A 
ATOM     17  C   UNL     1      -0.540  16.949  21.757  0.00  0.00    +0.000 A 
ATOM     18  C   UNL     1      -1.487  17.654  22.544  0.00  0.00    +0.000 A 
ATOM     19  C   UNL     1      -2.846  17.581  22.224  0.00  0.00    +0.000 A 
ATOM     20  C   UNL     1      -3.231  16.833  21.112  0.00  0.00    +0.000 A 
ATOM     21  C   UNL     1      -2.270  16.142  20.348  0.00  0.00    +0.000 A 
ENDBRANCH  11  16
BRANCH   1  22
ATOM     22  C   UNL     1      -1.902  12.381  20.678  0.00  0.00    +0.000 C 
ATOM     23  C   UNL     1      -3.149  12.584  19.813  0.00  0.00    +0.000 C 
BRANCH  22  24
ATOM     24  C   UNL     1      -1.869  12.945  22.154  0.00  0.00    +0.000 C 
BRANCH  24  25
ATOM     25  C   UNL     1      -2.685  12.076  23.173  0.00  0.00    +0.000 C 
BRANCH  25  26
ATOM     26  C   UNL     1      -3.827  12.651  24.010  0.00  0.00    +0.000 C 
BRANCH  26  27
ATOM     27  O   UNL     1      -4.502  13.750  23.391  0.00  0.00    +0.000 OA
BRANCH  27  29
ATOM     28  C   UNL     1      -3.295  15.090  24.939  0.00  0.00    +0.000 C 
ATOM     29  C   UNL     1      -4.526  14.933  24.099  0.00  0.00    +0.000 C 
ATOM     30  O   UNL     1      -5.455  15.727  24.095  0.00  0.00    +0.000 OA
ENDBRANCH  27  29
ENDBRANCH  26  27
ENDBRANCH  25  26
ENDBRANCH  24  25
ENDBRANCH  22  24
ENDBRANCH   1  22
BRANCH  15  31
ATOM     31  O   UNL     1       0.037   9.812  21.667  0.00  0.00    +0.000 OA
BRANCH  31  32
ATOM     32  C   UNL     1       1.128   9.055  21.970  0.00  0.00    +0.000 C 
ATOM     33  C   UNL     1       1.383   7.859  21.057  0.00  0.00    +0.000 C 
ATOM     34  O   UNL     1       1.860   9.358  22.897  0.00  0.00    +0.000 OA
ENDBRANCH  31  32
ENDBRANCH  15  31
TORSDOF 9
ENDMDL
