MODEL 1
REMARK VINA RESULT:      -8.0      0.000      0.000
REMARK  Name = 
REMARK  12 active torsions:
REMARK  status: ('A' for Active; 'I' for Inactive)
REMARK    1  A    between atoms: C_1  and  C_2
REMARK    2  A    between atoms: C_2  and  N_3
REMARK    3  A    between atoms: N_3  and  C_4
REMARK    4  A    between atoms: N_3  and  C_6
REMARK    5  A    between atoms: C_4  and  C_5
REMARK    6  A    between atoms: C_6  and  C_7
REMARK    7  A    between atoms: C_7  and  C_8
REMARK    8  A    between atoms: C_8  and  N_9
REMARK    9  A    between atoms: C_13  and  O_14
REMARK   10  A    between atoms: O_14  and  C_15
REMARK   11  A    between atoms: C_16  and  O_17
REMARK   12  A    between atoms: O_17  and  C_18
REMARK                            x       y       z     vdW  Elec       q    Type
REMARK                         _______ _______ _______ _____ _____    ______ ____
ROOT
ATOM      1  N   UNL     1       1.027  11.115  19.238  0.00  0.00    +0.000 N 
ATOM      2  C   UNL     1       1.480  10.014  18.323  0.00  0.00    +0.000 C 
ATOM      3  C   UNL     1       1.793   8.671  18.920  0.00  0.00    +0.000 A 
ATOM      4  C   UNL     1       2.325   7.625  18.129  0.00  0.00    +0.000 A 
ATOM      5  C   UNL     1       2.557   6.320  18.635  0.00  0.00    +0.000 A 
ATOM      6  C   UNL     1       2.305   6.083  19.981  0.00  0.00    +0.000 A 
ATOM      7  C   UNL     1       1.784   7.144  20.739  0.00  0.00    +0.000 A 
ATOM      8  C   UNL     1       1.448   8.409  20.229  0.00  0.00    +0.000 A 
ATOM      9  C   UNL     1       0.697   9.407  21.002  0.00  0.00    +0.000 A 
ATOM     10  C   UNL     1       0.052   8.993  22.190  0.00  0.00    +0.000 A 
ATOM     11  C   UNL     1      -0.731   9.840  22.943  0.00  0.00    +0.000 A 
ATOM     12  C   UNL     1      -0.790  11.179  22.600  0.00  0.00    +0.000 A 
ATOM     13  C   UNL     1      -1.591  11.982  23.412  0.00  0.00    +0.000 A 
ATOM     14  C   UNL     1      -1.577  13.331  23.181  0.00  0.00    +0.000 A 
ATOM     15  C   UNL     1      -0.739  13.880  22.247  0.00  0.00    +0.000 A 
ATOM     16  C   UNL     1       0.045  13.100  21.419  0.00  0.00    +0.000 A 
ATOM     17  C   UNL     1      -0.044  11.682  21.484  0.00  0.00    +0.000 A 
ATOM     18  C   UNL     1       0.565  10.753  20.547  0.00  0.00    +0.000 A 
ATOM     19  O   UNL     1      -0.824  15.240  22.239  0.00  0.00    +0.000 OA
ATOM     20  C   UNL     1      -2.018  15.417  23.031  0.00  0.00    +0.000 C 
ATOM     21  O   UNL     1      -2.337  14.256  23.821  0.00  0.00    +0.000 OA
ENDROOT
BRANCH   5  22
ATOM     22  O   UNL     1       2.828   5.410  17.651  0.00  0.00    +0.000 OA
ATOM     23  C   UNL     1       3.976   4.593  17.806  0.00  0.00    +0.000 C 
ENDBRANCH   5  22
BRANCH   6  24
ATOM     24  O   UNL     1       2.348   4.996  20.795  0.00  0.00    +0.000 OA
ATOM     25  C   UNL     1       1.452   3.919  20.765  0.00  0.00    +0.000 C 
ENDBRANCH   6  24
BRANCH   1  26
ATOM     26  C   UNL     1       0.215  12.108  18.463  0.00  0.00    +0.000 C 
BRANCH  26  27
ATOM     27  C   UNL     1      -1.273  11.741  18.322  0.00  0.00    +0.000 C 
BRANCH  27  28
ATOM     28  C   UNL     1      -1.656  10.309  17.890  0.00  0.00    +0.000 C 
BRANCH  28  29
ATOM     29  N   UNL     1      -2.868  10.103  17.051  0.00  0.00    +0.000 NA
BRANCH  29  31
ATOM     30  C   UNL     1      -4.817  11.721  17.136  0.00  0.00    +0.000 C 
ATOM     31  C   UNL     1      -4.081  10.546  17.783  0.00  0.00    +0.000 C 
ENDBRANCH  29  31
BRANCH  29  32
ATOM     32  C   UNL     1      -2.755  10.881  15.787  0.00  0.00    +0.000 C 
ATOM     33  C   UNL     1      -3.005  10.108  14.493  0.00  0.00    +0.000 C 
ENDBRANCH  29  32
ENDBRANCH  28  29
ENDBRANCH  27  28
ENDBRANCH  26  27
ENDBRANCH   1  26
TORSDOF 8
ENDMDL
MODEL 2
REMARK VINA RESULT:      -8.0      0.774      1.356
REMARK  Name = 
REMARK  12 active torsions:
REMARK  status: ('A' for Active; 'I' for Inactive)
REMARK    1  A    between atoms: C_1  and  C_2
REMARK    2  A    between atoms: C_2  and  N_3
REMARK    3  A    between atoms: N_3  and  C_4
REMARK    4  A    between atoms: N_3  and  C_6
REMARK    5  A    between atoms: C_4  and  C_5
REMARK    6  A    between atoms: C_6  and  C_7
REMARK    7  A    between atoms: C_7  and  C_8
REMARK    8  A    between atoms: C_8  and  N_9
REMARK    9  A    between atoms: C_13  and  O_14
REMARK   10  A    between atoms: O_14  and  C_15
REMARK   11  A    between atoms: C_16  and  O_17
REMARK   12  A    between atoms: O_17  and  C_18
REMARK                            x       y       z     vdW  Elec       q    Type
REMARK                         _______ _______ _______ _____ _____    ______ ____
ROOT
ATOM      1  N   UNL     1       1.011  10.621  19.038  0.00  0.00    +0.000 N 
ATOM      2  C   UNL     1       1.503   9.531  18.129  0.00  0.00    +0.000 C 
ATOM      3  C   UNL     1       1.946   8.234  18.744  0.00  0.00    +0.000 A 
ATOM      4  C   UNL     1       2.519   7.208  17.955  0.00  0.00    +0.000 A 
ATOM      5  C   UNL     1       2.876   5.940  18.482  0.00  0.00    +0.000 A 
ATOM      6  C   UNL     1       2.706   5.724  19.844  0.00  0.00    +0.000 A 
ATOM      7  C   UNL     1       2.142   6.764  20.600  0.00  0.00    +0.000 A 
ATOM      8  C   UNL     1       1.685   7.985  20.076  0.00  0.00    +0.000 A 
ATOM      9  C   UNL     1       0.897   8.945  20.859  0.00  0.00    +0.000 A 
ATOM     10  C   UNL     1       0.342   8.518  22.087  0.00  0.00    +0.000 A 
ATOM     11  C   UNL     1      -0.467   9.325  22.856  0.00  0.00    +0.000 A 
ATOM     12  C   UNL     1      -0.645  10.645  22.483  0.00  0.00    +0.000 A 
ATOM     13  C   UNL     1      -1.466  11.409  23.312  0.00  0.00    +0.000 A 
ATOM     14  C   UNL     1      -1.567  12.748  23.047  0.00  0.00    +0.000 A 
ATOM     15  C   UNL     1      -0.819  13.331  22.059  0.00  0.00    +0.000 A 
ATOM     16  C   UNL     1      -0.017  12.589  21.214  0.00  0.00    +0.000 A 
ATOM     17  C   UNL     1       0.006  11.170  21.319  0.00  0.00    +0.000 A 
ATOM     18  C   UNL     1       0.640  10.263  20.377  0.00  0.00    +0.000 A 
ATOM     19  O   UNL     1      -1.009  14.680  22.021  0.00  0.00    +0.000 OA
ATOM     20  C   UNL     1      -2.174  14.789  22.866  0.00  0.00    +0.000 C 
ATOM     21  O   UNL     1      -2.365  13.631  23.700  0.00  0.00    +0.000 OA
ENDROOT
BRANCH   5  22
ATOM     22  O   UNL     1       3.169   5.025  17.510  0.00  0.00    +0.000 OA
ATOM     23  C   UNL     1       2.312   3.903  17.380  0.00  0.00    +0.000 C 
ENDBRANCH   5  22
BRANCH   6  24
ATOM     24  O   UNL     1       2.871   4.668  20.683  0.00  0.00    +0.000 OA
ATOM     25  C   UNL     1       1.842   3.878  21.212  0.00  0.00    +0.000 C 
ENDBRANCH   6  24
BRANCH   1  26
ATOM     26  C   UNL     1       0.089  11.526  18.278  0.00  0.00    +0.000 C 
BRANCH  26  27
ATOM     27  C   UNL     1      -1.234  10.870  17.847  0.00  0.00    +0.000 C 
BRANCH  27  28
ATOM     28  C   UNL     1      -2.549  11.668  17.988  0.00  0.00    +0.000 C 
BRANCH  28  29
ATOM     29  N   UNL     1      -3.628  11.475  16.982  0.00  0.00    +0.000 NA
BRANCH  29  31
ATOM     30  C   UNL     1      -3.228  10.340  14.751  0.00  0.00    +0.000 C 
ATOM     31  C   UNL     1      -3.433  10.192  16.260  0.00  0.00    +0.000 C 
ENDBRANCH  29  31
BRANCH  29  32
ATOM     32  C   UNL     1      -4.957  11.457  17.651  0.00  0.00    +0.000 C 
ATOM     33  C   UNL     1      -5.982  12.470  17.144  0.00  0.00    +0.000 C 
ENDBRANCH  29  32
ENDBRANCH  28  29
ENDBRANCH  27  28
ENDBRANCH  26  27
ENDBRANCH   1  26
TORSDOF 8
ENDMDL
MODEL 3
REMARK VINA RESULT:      -7.8      0.930      1.279
REMARK  Name = 
REMARK  12 active torsions:
REMARK  status: ('A' for Active; 'I' for Inactive)
REMARK    1  A    between atoms: C_1  and  C_2
REMARK    2  A    between atoms: C_2  and  N_3
REMARK    3  A    between atoms: N_3  and  C_4
REMARK    4  A    between atoms: N_3  and  C_6
REMARK    5  A    between atoms: C_4  and  C_5
REMARK    6  A    between atoms: C_6  and  C_7
REMARK    7  A    between atoms: C_7  and  C_8
REMARK    8  A    between atoms: C_8  and  N_9
REMARK    9  A    between atoms: C_13  and  O_14
REMARK   10  A    between atoms: O_14  and  C_15
REMARK   11  A    between atoms: C_16  and  O_17
REMARK   12  A    between atoms: O_17  and  C_18
REMARK                            x       y       z     vdW  Elec       q    Type
REMARK                         _______ _______ _______ _____ _____    ______ ____
ROOT
ATOM      1  N   UNL     1       1.056  10.894  19.183  0.00  0.00    +0.000 N 
ATOM      2  C   UNL     1       1.501   9.784  18.274  0.00  0.00    +0.000 C 
ATOM      3  C   UNL     1       1.832   8.452  18.883  0.00  0.00    +0.000 A 
ATOM      4  C   UNL     1       2.358   7.398  18.097  0.00  0.00    +0.000 A 
ATOM      5  C   UNL     1       2.608   6.102  18.615  0.00  0.00    +0.000 A 
ATOM      6  C   UNL     1       2.379   5.881  19.968  0.00  0.00    +0.000 A 
ATOM      7  C   UNL     1       1.864   6.949  20.722  0.00  0.00    +0.000 A 
ATOM      8  C   UNL     1       1.511   8.204  20.202  0.00  0.00    +0.000 A 
ATOM      9  C   UNL     1       0.766   9.208  20.974  0.00  0.00    +0.000 A 
ATOM     10  C   UNL     1       0.144   8.805  22.177  0.00  0.00    +0.000 A 
ATOM     11  C   UNL     1      -0.632   9.656  22.932  0.00  0.00    +0.000 A 
ATOM     12  C   UNL     1      -0.706  10.990  22.573  0.00  0.00    +0.000 A 
ATOM     13  C   UNL     1      -1.499  11.798  23.388  0.00  0.00    +0.000 A 
ATOM     14  C   UNL     1      -1.498  13.145  23.140  0.00  0.00    +0.000 A 
ATOM     15  C   UNL     1      -0.679  13.687  22.185  0.00  0.00    +0.000 A 
ATOM     16  C   UNL     1       0.096  12.901  21.355  0.00  0.00    +0.000 A 
ATOM     17  C   UNL     1       0.018  11.483  21.439  0.00  0.00    +0.000 A 
ATOM     18  C   UNL     1       0.618  10.546  20.504  0.00  0.00    +0.000 A 
ATOM     19  O   UNL     1      -0.774  15.046  22.161  0.00  0.00    +0.000 OA
ATOM     20  C   UNL     1      -1.956  15.225  22.970  0.00  0.00    +0.000 C 
ATOM     21  O   UNL     1      -2.253  14.073  23.781  0.00  0.00    +0.000 OA
ENDROOT
BRANCH   5  22
ATOM     22  O   UNL     1       2.868   5.181  17.640  0.00  0.00    +0.000 OA
ATOM     23  C   UNL     1       4.153   4.582  17.624  0.00  0.00    +0.000 C 
ENDBRANCH   5  22
BRANCH   6  24
ATOM     24  O   UNL     1       2.444   4.805  20.796  0.00  0.00    +0.000 OA
ATOM     25  C   UNL     1       1.510   3.762  20.850  0.00  0.00    +0.000 C 
ENDBRANCH   6  24
BRANCH   1  26
ATOM     26  C   UNL     1       0.224  11.871  18.408  0.00  0.00    +0.000 C 
BRANCH  26  27
ATOM     27  C   UNL     1      -1.199  11.382  18.088  0.00  0.00    +0.000 C 
BRANCH  27  28
ATOM     28  C   UNL     1      -2.405  12.120  18.710  0.00  0.00    +0.000 C 
BRANCH  28  29
ATOM     29  N   UNL     1      -3.751  11.489  18.652  0.00  0.00    +0.000 NA
BRANCH  29  31
ATOM     30  C   UNL     1      -4.039  13.158  20.538  0.00  0.00    +0.000 C 
ATOM     31  C   UNL     1      -4.703  12.232  19.517  0.00  0.00    +0.000 C 
ENDBRANCH  29  31
BRANCH  29  32
ATOM     32  C   UNL     1      -4.261  11.495  17.255  0.00  0.00    +0.000 C 
ATOM     33  C   UNL     1      -5.555  12.270  17.011  0.00  0.00    +0.000 C 
ENDBRANCH  29  32
ENDBRANCH  28  29
ENDBRANCH  27  28
ENDBRANCH  26  27
ENDBRANCH   1  26
TORSDOF 8
ENDMDL
MODEL 4
REMARK VINA RESULT:      -7.7      1.147      1.499
REMARK  Name = 
REMARK  12 active torsions:
REMARK  status: ('A' for Active; 'I' for Inactive)
REMARK    1  A    between atoms: C_1  and  C_2
REMARK    2  A    between atoms: C_2  and  N_3
REMARK    3  A    between atoms: N_3  and  C_4
REMARK    4  A    between atoms: N_3  and  C_6
REMARK    5  A    between atoms: C_4  and  C_5
REMARK    6  A    between atoms: C_6  and  C_7
REMARK    7  A    between atoms: C_7  and  C_8
REMARK    8  A    between atoms: C_8  and  N_9
REMARK    9  A    between atoms: C_13  and  O_14
REMARK   10  A    between atoms: O_14  and  C_15
REMARK   11  A    between atoms: C_16  and  O_17
REMARK   12  A    between atoms: O_17  and  C_18
REMARK                            x       y       z     vdW  Elec       q    Type
REMARK                         _______ _______ _______ _____ _____    ______ ____
ROOT
ATOM      1  N   UNL     1       1.569   9.713  18.776  0.00  0.00    +0.000 N 
ATOM      2  C   UNL     1       2.015   8.566  17.916  0.00  0.00    +0.000 C 
ATOM      3  C   UNL     1       2.340   7.258  18.580  0.00  0.00    +0.000 A 
ATOM      4  C   UNL     1       2.867   6.172  17.841  0.00  0.00    +0.000 A 
ATOM      5  C   UNL     1       3.110   4.897  18.414  0.00  0.00    +0.000 A 
ATOM      6  C   UNL     1       2.873   4.733  19.773  0.00  0.00    +0.000 A 
ATOM      7  C   UNL     1       2.357   5.832  20.480  0.00  0.00    +0.000 A 
ATOM      8  C   UNL     1       2.011   7.066  19.906  0.00  0.00    +0.000 A 
ATOM      9  C   UNL     1       1.264   8.102  20.633  0.00  0.00    +0.000 A 
ATOM     10  C   UNL     1       0.635   7.751  21.848  0.00  0.00    +0.000 A 
ATOM     11  C   UNL     1      -0.143   8.634  22.563  0.00  0.00    +0.000 A 
ATOM     12  C   UNL     1      -0.211   9.953  22.150  0.00  0.00    +0.000 A 
ATOM     13  C   UNL     1      -1.005  10.796  22.926  0.00  0.00    +0.000 A 
ATOM     14  C   UNL     1      -0.999  12.131  22.623  0.00  0.00    +0.000 A 
ATOM     15  C   UNL     1      -0.174  12.631  21.651  0.00  0.00    +0.000 A 
ATOM     16  C   UNL     1       0.604  11.810  20.858  0.00  0.00    +0.000 A 
ATOM     17  C   UNL     1       0.520  10.397  21.000  0.00  0.00    +0.000 A 
ATOM     18  C   UNL     1       1.123   9.420  20.108  0.00  0.00    +0.000 A 
ATOM     19  O   UNL     1      -0.264  13.988  21.571  0.00  0.00    +0.000 OA
ATOM     20  C   UNL     1      -1.450  14.204  22.366  0.00  0.00    +0.000 C 
ATOM     21  O   UNL     1      -1.755  13.086  23.221  0.00  0.00    +0.000 OA
ENDROOT
BRANCH   5  22
ATOM     22  O   UNL     1       3.373   3.937  17.478  0.00  0.00    +0.000 OA
ATOM     23  C   UNL     1       4.496   4.128  16.634  0.00  0.00    +0.000 C 
ENDBRANCH   5  22
BRANCH   6  24
ATOM     24  O   UNL     1       2.930   3.691  20.644  0.00  0.00    +0.000 OA
ATOM     25  C   UNL     1       2.022   3.448  21.684  0.00  0.00    +0.000 C 
ENDBRANCH   6  24
BRANCH   1  26
ATOM     26  C   UNL     1       0.745  10.660  17.957  0.00  0.00    +0.000 C 
BRANCH  26  27
ATOM     27  C   UNL     1      -0.720  10.228  17.766  0.00  0.00    +0.000 C 
BRANCH  27  28
ATOM     28  C   UNL     1      -1.839  11.280  17.917  0.00  0.00    +0.000 C 
BRANCH  28  29
ATOM     29  N   UNL     1      -3.248  10.888  17.639  0.00  0.00    +0.000 NA
BRANCH  29  31
ATOM     30  C   UNL     1      -3.489  12.383  19.670  0.00  0.00    +0.000 C 
ATOM     31  C   UNL     1      -4.174  11.640  18.522  0.00  0.00    +0.000 C 
ENDBRANCH  29  31
BRANCH  29  32
ATOM     32  C   UNL     1      -3.589  11.178  16.220  0.00  0.00    +0.000 C 
ATOM     33  C   UNL     1      -3.340  10.050  15.220  0.00  0.00    +0.000 C 
ENDBRANCH  29  32
ENDBRANCH  28  29
ENDBRANCH  27  28
ENDBRANCH  26  27
ENDBRANCH   1  26
TORSDOF 8
ENDMDL
MODEL 5
REMARK VINA RESULT:      -7.6      0.893      1.487
REMARK  Name = 
REMARK  12 active torsions:
REMARK  status: ('A' for Active; 'I' for Inactive)
REMARK    1  A    between atoms: C_1  and  C_2
REMARK    2  A    between atoms: C_2  and  N_3
REMARK    3  A    between atoms: N_3  and  C_4
REMARK    4  A    between atoms: N_3  and  C_6
REMARK    5  A    between atoms: C_4  and  C_5
REMARK    6  A    between atoms: C_6  and  C_7
REMARK    7  A    between atoms: C_7  and  C_8
REMARK    8  A    between atoms: C_8  and  N_9
REMARK    9  A    between atoms: C_13  and  O_14
REMARK   10  A    between atoms: O_14  and  C_15
REMARK   11  A    between atoms: C_16  and  O_17
REMARK   12  A    between atoms: O_17  and  C_18
REMARK                            x       y       z     vdW  Elec       q    Type
REMARK                         _______ _______ _______ _____ _____    ______ ____
ROOT
ATOM      1  N   UNL     1       0.769  11.282  19.283  0.00  0.00    +0.000 N 
ATOM      2  C   UNL     1       1.240  10.200  18.354  0.00  0.00    +0.000 C 
ATOM      3  C   UNL     1       1.630   8.874  18.941  0.00  0.00    +0.000 A 
ATOM      4  C   UNL     1       2.182   7.850  18.133  0.00  0.00    +0.000 A 
ATOM      5  C   UNL     1       2.489   6.558  18.632  0.00  0.00    +0.000 A 
ATOM      6  C   UNL     1       2.290   6.313  19.985  0.00  0.00    +0.000 A 
ATOM      7  C   UNL     1       1.748   7.351  20.760  0.00  0.00    +0.000 A 
ATOM      8  C   UNL     1       1.340   8.599  20.261  0.00  0.00    +0.000 A 
ATOM      9  C   UNL     1       0.570   9.564  21.057  0.00  0.00    +0.000 A 
ATOM     10  C   UNL     1      -0.017   9.124  22.265  0.00  0.00    +0.000 A 
ATOM     11  C   UNL     1      -0.812   9.937  23.042  0.00  0.00    +0.000 A 
ATOM     12  C   UNL     1      -0.941  11.271  22.702  0.00  0.00    +0.000 A 
ATOM     13  C   UNL     1      -1.750  12.040  23.539  0.00  0.00    +0.000 A 
ATOM     14  C   UNL     1      -1.803  13.388  23.307  0.00  0.00    +0.000 A 
ATOM     15  C   UNL     1      -1.021  13.972  22.347  0.00  0.00    +0.000 A 
ATOM     16  C   UNL     1      -0.230  13.226  21.495  0.00  0.00    +0.000 A 
ATOM     17  C   UNL     1      -0.255  11.805  21.562  0.00  0.00    +0.000 A 
ATOM     18  C   UNL     1       0.365  10.902  20.607  0.00  0.00    +0.000 A 
ATOM     19  O   UNL     1      -1.166  15.326  22.341  0.00  0.00    +0.000 OA
ATOM     20  C   UNL     1      -2.341  15.452  23.171  0.00  0.00    +0.000 C 
ATOM     21  O   UNL     1      -2.582  14.279  23.971  0.00  0.00    +0.000 OA
ENDROOT
BRANCH   5  22
ATOM     22  O   UNL     1       2.767   5.660  17.640  0.00  0.00    +0.000 OA
ATOM     23  C   UNL     1       4.066   5.091  17.612  0.00  0.00    +0.000 C 
ENDBRANCH   5  22
BRANCH   6  24
ATOM     24  O   UNL     1       2.407   5.230  20.798  0.00  0.00    +0.000 OA
ATOM     25  C   UNL     1       1.548   4.123  20.810  0.00  0.00    +0.000 C 
ENDBRANCH   6  24
BRANCH   1  26
ATOM     26  C   UNL     1      -0.111  12.237  18.534  0.00  0.00    +0.000 C 
BRANCH  26  27
ATOM     27  C   UNL     1      -1.176  11.562  17.652  0.00  0.00    +0.000 C 
BRANCH  27  28
ATOM     28  C   UNL     1      -2.519  11.141  18.287  0.00  0.00    +0.000 C 
BRANCH  28  29
ATOM     29  N   UNL     1      -3.754  11.898  17.946  0.00  0.00    +0.000 NA
BRANCH  29  31
ATOM     30  C   UNL     1      -3.737  10.728  15.698  0.00  0.00    +0.000 C 
ATOM     31  C   UNL     1      -4.541  11.163  16.924  0.00  0.00    +0.000 C 
ENDBRANCH  29  31
BRANCH  29  32
ATOM     32  C   UNL     1      -4.592  12.086  19.161  0.00  0.00    +0.000 C 
ATOM     33  C   UNL     1      -3.935  12.821  20.328  0.00  0.00    +0.000 C 
ENDBRANCH  29  32
ENDBRANCH  28  29
ENDBRANCH  27  28
ENDBRANCH  26  27
ENDBRANCH   1  26
TORSDOF 8
ENDMDL
MODEL 6
REMARK VINA RESULT:      -7.3      2.079      3.835
REMARK  Name = 
REMARK  12 active torsions:
REMARK  status: ('A' for Active; 'I' for Inactive)
REMARK    1  A    between atoms: C_1  and  C_2
REMARK    2  A    between atoms: C_2  and  N_3
REMARK    3  A    between atoms: N_3  and  C_4
REMARK    4  A    between atoms: N_3  and  C_6
REMARK    5  A    between atoms: C_4  and  C_5
REMARK    6  A    between atoms: C_6  and  C_7
REMARK    7  A    between atoms: C_7  and  C_8
REMARK    8  A    between atoms: C_8  and  N_9
REMARK    9  A    between atoms: C_13  and  O_14
REMARK   10  A    between atoms: O_14  and  C_15
REMARK   11  A    between atoms: C_16  and  O_17
REMARK   12  A    between atoms: O_17  and  C_18
REMARK                            x       y       z     vdW  Elec       q    Type
REMARK                         _______ _______ _______ _____ _____    ______ ____
ROOT
ATOM      1  N   UNL     1       1.195  11.151  19.327  0.00  0.00    +0.000 N 
ATOM      2  C   UNL     1       1.620  10.044  18.406  0.00  0.00    +0.000 C 
ATOM      3  C   UNL     1       1.832   8.674  18.986  0.00  0.00    +0.000 A 
ATOM      4  C   UNL     1       2.334   7.614  18.194  0.00  0.00    +0.000 A 
ATOM      5  C   UNL     1       2.472   6.288  18.680  0.00  0.00    +0.000 A 
ATOM      6  C   UNL     1       2.154   6.041  20.010  0.00  0.00    +0.000 A 
ATOM      7  C   UNL     1       1.666   7.116  20.771  0.00  0.00    +0.000 A 
ATOM      8  C   UNL     1       1.422   8.407  20.276  0.00  0.00    +0.000 A 
ATOM      9  C   UNL     1       0.699   9.432  21.041  0.00  0.00    +0.000 A 
ATOM     10  C   UNL     1      -0.014   9.034  22.194  0.00  0.00    +0.000 A 
ATOM     11  C   UNL     1      -0.776   9.910  22.934  0.00  0.00    +0.000 A 
ATOM     12  C   UNL     1      -0.745  11.256  22.618  0.00  0.00    +0.000 A 
ATOM     13  C   UNL     1      -1.530  12.089  23.416  0.00  0.00    +0.000 A 
ATOM     14  C   UNL     1      -1.430  13.439  23.215  0.00  0.00    +0.000 A 
ATOM     15  C   UNL     1      -0.527  13.956  22.325  0.00  0.00    +0.000 A 
ATOM     16  C   UNL     1       0.244  13.148  21.512  0.00  0.00    +0.000 A 
ATOM     17  C   UNL     1       0.071  11.736  21.543  0.00  0.00    +0.000 A 
ATOM     18  C   UNL     1       0.663  10.791  20.610  0.00  0.00    +0.000 A 
ATOM     19  O   UNL     1      -0.533  15.319  22.343  0.00  0.00    +0.000 OA
ATOM     20  C   UNL     1      -1.746  15.549  23.092  0.00  0.00    +0.000 C 
ATOM     21  O   UNL     1      -2.160  14.394  23.845  0.00  0.00    +0.000 OA
ENDROOT
BRANCH   5  22
ATOM     22  O   UNL     1       2.729   5.383  17.689  0.00  0.00    +0.000 OA
ATOM     23  C   UNL     1       4.070   4.959  17.514  0.00  0.00    +0.000 C 
ENDBRANCH   5  22
BRANCH   6  24
ATOM     24  O   UNL     1       2.103   4.938  20.803  0.00  0.00    +0.000 OA
ATOM     25  C   UNL     1       1.247   3.844  20.623  0.00  0.00    +0.000 C 
ENDBRANCH   6  24
BRANCH   1  26
ATOM     26  C   UNL     1       0.473  12.204  18.543  0.00  0.00    +0.000 C 
BRANCH  26  27
ATOM     27  C   UNL     1       1.313  13.455  18.233  0.00  0.00    +0.000 C 
BRANCH  27  28
ATOM     28  C   UNL     1       2.779  13.513  18.712  0.00  0.00    +0.000 C 
BRANCH  28  29
ATOM     29  N   UNL     1       3.185  14.562  19.686  0.00  0.00    +0.000 NA
BRANCH  29  31
ATOM     30  C   UNL     1       4.936  14.984  17.903  0.00  0.00    +0.000 C 
ATOM     31  C   UNL     1       4.559  15.038  19.385  0.00  0.00    +0.000 C 
ENDBRANCH  29  31
BRANCH  29  32
ATOM     32  C   UNL     1       2.247  15.715  19.619  0.00  0.00    +0.000 C 
ATOM     33  C   UNL     1       2.588  16.915  20.501  0.00  0.00    +0.000 C 
ENDBRANCH  29  32
ENDBRANCH  28  29
ENDBRANCH  27  28
ENDBRANCH  26  27
ENDBRANCH   1  26
TORSDOF 8
ENDMDL
MODEL 7
REMARK VINA RESULT:      -7.2      2.091      3.878
REMARK  Name = 
REMARK  12 active torsions:
REMARK  status: ('A' for Active; 'I' for Inactive)
REMARK    1  A    between atoms: C_1  and  C_2
REMARK    2  A    between atoms: C_2  and  N_3
REMARK    3  A    between atoms: N_3  and  C_4
REMARK    4  A    between atoms: N_3  and  C_6
REMARK    5  A    between atoms: C_4  and  C_5
REMARK    6  A    between atoms: C_6  and  C_7
REMARK    7  A    between atoms: C_7  and  C_8
REMARK    8  A    between atoms: C_8  and  N_9
REMARK    9  A    between atoms: C_13  and  O_14
REMARK   10  A    between atoms: O_14  and  C_15
REMARK   11  A    between atoms: C_16  and  O_17
REMARK   12  A    between atoms: O_17  and  C_18
REMARK                            x       y       z     vdW  Elec       q    Type
REMARK                         _______ _______ _______ _____ _____    ______ ____
ROOT
ATOM      1  N   UNL     1       1.196  11.200  19.332  0.00  0.00    +0.000 N 
ATOM      2  C   UNL     1       1.627  10.095  18.412  0.00  0.00    +0.000 C 
ATOM      3  C   UNL     1       1.827   8.722  18.989  0.00  0.00    +0.000 A 
ATOM      4  C   UNL     1       2.335   7.663  18.199  0.00  0.00    +0.000 A 
ATOM      5  C   UNL     1       2.462   6.335  18.682  0.00  0.00    +0.000 A 
ATOM      6  C   UNL     1       2.126   6.084  20.007  0.00  0.00    +0.000 A 
ATOM      7  C   UNL     1       1.633   7.158  20.767  0.00  0.00    +0.000 A 
ATOM      8  C   UNL     1       1.401   8.452  20.273  0.00  0.00    +0.000 A 
ATOM      9  C   UNL     1       0.672   9.477  21.033  0.00  0.00    +0.000 A 
ATOM     10  C   UNL     1      -0.056   9.077  22.176  0.00  0.00    +0.000 A 
ATOM     11  C   UNL     1      -0.824   9.953  22.911  0.00  0.00    +0.000 A 
ATOM     12  C   UNL     1      -0.784  11.301  22.600  0.00  0.00    +0.000 A 
ATOM     13  C   UNL     1      -1.576  12.133  23.392  0.00  0.00    +0.000 A 
ATOM     14  C   UNL     1      -1.469  13.484  23.197  0.00  0.00    +0.000 A 
ATOM     15  C   UNL     1      -0.552  14.001  22.320  0.00  0.00    +0.000 A 
ATOM     16  C   UNL     1       0.225  13.193  21.513  0.00  0.00    +0.000 A 
ATOM     17  C   UNL     1       0.046  11.782  21.536  0.00  0.00    +0.000 A 
ATOM     18  C   UNL     1       0.646  10.838  20.607  0.00  0.00    +0.000 A 
ATOM     19  O   UNL     1      -0.554  15.363  22.343  0.00  0.00    +0.000 OA
ATOM     20  C   UNL     1      -1.775  15.596  23.079  0.00  0.00    +0.000 C 
ATOM     21  O   UNL     1      -2.203  14.439  23.822  0.00  0.00    +0.000 OA
ENDROOT
BRANCH   5  22
ATOM     22  O   UNL     1       2.727   5.433  17.690  0.00  0.00    +0.000 OA
ATOM     23  C   UNL     1       4.045   4.919  17.601  0.00  0.00    +0.000 C 
ENDBRANCH   5  22
BRANCH   6  24
ATOM     24  O   UNL     1       2.062   4.978  20.794  0.00  0.00    +0.000 OA
ATOM     25  C   UNL     1       1.268   3.850  20.551  0.00  0.00    +0.000 C 
ENDBRANCH   6  24
BRANCH   1  26
ATOM     26  C   UNL     1       0.486  12.259  18.543  0.00  0.00    +0.000 C 
BRANCH  26  27
ATOM     27  C   UNL     1       1.332  13.512  18.256  0.00  0.00    +0.000 C 
BRANCH  27  28
ATOM     28  C   UNL     1       2.800  13.552  18.731  0.00  0.00    +0.000 C 
BRANCH  28  29
ATOM     29  N   UNL     1       3.532  14.848  18.721  0.00  0.00    +0.000 NA
BRANCH  29  31
ATOM     30  C   UNL     1       3.702  14.166  21.156  0.00  0.00    +0.000 C 
ATOM     31  C   UNL     1       3.841  15.273  20.110  0.00  0.00    +0.000 C 
ENDBRANCH  29  31
BRANCH  29  32
ATOM     32  C   UNL     1       4.805  14.712  17.962  0.00  0.00    +0.000 C 
ATOM     33  C   UNL     1       6.020  15.432  18.546  0.00  0.00    +0.000 C 
ENDBRANCH  29  32
ENDBRANCH  28  29
ENDBRANCH  27  28
ENDBRANCH  26  27
ENDBRANCH   1  26
TORSDOF 8
ENDMDL
MODEL 8
REMARK VINA RESULT:      -7.2      1.155      1.626
REMARK  Name = 
REMARK  12 active torsions:
REMARK  status: ('A' for Active; 'I' for Inactive)
REMARK    1  A    between atoms: C_1  and  C_2
REMARK    2  A    between atoms: C_2  and  N_3
REMARK    3  A    between atoms: N_3  and  C_4
REMARK    4  A    between atoms: N_3  and  C_6
REMARK    5  A    between atoms: C_4  and  C_5
REMARK    6  A    between atoms: C_6  and  C_7
REMARK    7  A    between atoms: C_7  and  C_8
REMARK    8  A    between atoms: C_8  and  N_9
REMARK    9  A    between atoms: C_13  and  O_14
REMARK   10  A    between atoms: O_14  and  C_15
REMARK   11  A    between atoms: C_16  and  O_17
REMARK   12  A    between atoms: O_17  and  C_18
REMARK                            x       y       z     vdW  Elec       q    Type
REMARK                         _______ _______ _______ _____ _____    ______ ____
ROOT
ATOM      1  N   UNL     1       1.135  10.421  19.044  0.00  0.00    +0.000 N 
ATOM      2  C   UNL     1       1.577   9.274  18.181  0.00  0.00    +0.000 C 
ATOM      3  C   UNL     1       1.957   7.983  18.849  0.00  0.00    +0.000 A 
ATOM      4  C   UNL     1       2.481   6.900  18.103  0.00  0.00    +0.000 A 
ATOM      5  C   UNL     1       2.776   5.639  18.681  0.00  0.00    +0.000 A 
ATOM      6  C   UNL     1       2.594   5.486  20.051  0.00  0.00    +0.000 A 
ATOM      7  C   UNL     1       2.079   6.582  20.763  0.00  0.00    +0.000 A 
ATOM      8  C   UNL     1       1.682   7.800  20.188  0.00  0.00    +0.000 A 
ATOM      9  C   UNL     1       0.939   8.828  20.930  0.00  0.00    +0.000 A 
ATOM     10  C   UNL     1       0.363   8.478  22.172  0.00  0.00    +0.000 A 
ATOM     11  C   UNL     1      -0.408   9.352  22.906  0.00  0.00    +0.000 A 
ATOM     12  C   UNL     1      -0.522  10.663  22.480  0.00  0.00    +0.000 A 
ATOM     13  C   UNL     1      -1.307  11.497  23.275  0.00  0.00    +0.000 A 
ATOM     14  C   UNL     1      -1.344  12.828  22.956  0.00  0.00    +0.000 A 
ATOM     15  C   UNL     1      -0.568  13.335  21.948  0.00  0.00    +0.000 A 
ATOM     16  C   UNL     1       0.199  12.522  21.136  0.00  0.00    +0.000 A 
ATOM     17  C   UNL     1       0.155  11.110  21.298  0.00  0.00    +0.000 A 
ATOM     18  C   UNL     1       0.746  10.136  20.395  0.00  0.00    +0.000 A 
ATOM     19  O   UNL     1      -0.693  14.689  21.855  0.00  0.00    +0.000 OA
ATOM     20  C   UNL     1      -1.853  14.887  22.691  0.00  0.00    +0.000 C 
ATOM     21  O   UNL     1      -2.099  13.773  23.571  0.00  0.00    +0.000 OA
ENDROOT
BRANCH   5  22
ATOM     22  O   UNL     1       3.026   4.673  17.748  0.00  0.00    +0.000 OA
ATOM     23  C   UNL     1       1.989   3.751  17.458  0.00  0.00    +0.000 C 
ENDBRANCH   5  22
BRANCH   6  24
ATOM     24  O   UNL     1       2.708   4.458  20.932  0.00  0.00    +0.000 OA
ATOM     25  C   UNL     1       3.095   3.150  20.611  0.00  0.00    +0.000 C 
ENDBRANCH   6  24
BRANCH   1  26
ATOM     26  C   UNL     1       0.259  11.339  18.246  0.00  0.00    +0.000 C 
BRANCH  26  27
ATOM     27  C   UNL     1      -1.100  10.735  17.850  0.00  0.00    +0.000 C 
BRANCH  27  28
ATOM     28  C   UNL     1      -2.163  11.643  17.194  0.00  0.00    +0.000 C 
BRANCH  28  29
ATOM     29  N   UNL     1      -3.306  12.132  18.011  0.00  0.00    +0.000 NA
BRANCH  29  31
ATOM     30  C   UNL     1      -5.698  12.310  17.193  0.00  0.00    +0.000 C 
ATOM     31  C   UNL     1      -4.548  11.407  17.642  0.00  0.00    +0.000 C 
ENDBRANCH  29  31
BRANCH  29  32
ATOM     32  C   UNL     1      -3.031  11.917  19.458  0.00  0.00    +0.000 C 
ATOM     33  C   UNL     1      -3.948  12.650  20.436  0.00  0.00    +0.000 C 
ENDBRANCH  29  32
ENDBRANCH  28  29
ENDBRANCH  27  28
ENDBRANCH  26  27
ENDBRANCH   1  26
TORSDOF 8
ENDMDL
MODEL 9
REMARK VINA RESULT:      -7.2      3.189      8.834
REMARK  Name = 
REMARK  12 active torsions:
REMARK  status: ('A' for Active; 'I' for Inactive)
REMARK    1  A    between atoms: C_1  and  C_2
REMARK    2  A    between atoms: C_2  and  N_3
REMARK    3  A    between atoms: N_3  and  C_4
REMARK    4  A    between atoms: N_3  and  C_6
REMARK    5  A    between atoms: C_4  and  C_5
REMARK    6  A    between atoms: C_6  and  C_7
REMARK    7  A    between atoms: C_7  and  C_8
REMARK    8  A    between atoms: C_8  and  N_9
REMARK    9  A    between atoms: C_13  and  O_14
REMARK   10  A    between atoms: O_14  and  C_15
REMARK   11  A    between atoms: C_16  and  O_17
REMARK   12  A    between atoms: O_17  and  C_18
REMARK                            x       y       z     vdW  Elec       q    Type
REMARK                         _______ _______ _______ _____ _____    ______ ____
ROOT
ATOM      1  N   UNL     1       2.618   7.766  17.516  0.00  0.00    +0.000 N 
ATOM      2  C   UNL     1       2.610   9.267  17.557  0.00  0.00    +0.000 C 
ATOM      3  C   UNL     1       1.852   9.947  18.661  0.00  0.00    +0.000 A 
ATOM      4  C   UNL     1       1.717  11.356  18.697  0.00  0.00    +0.000 A 
ATOM      5  C   UNL     1       1.079  12.041  19.763  0.00  0.00    +0.000 A 
ATOM      6  C   UNL     1       0.514  11.286  20.783  0.00  0.00    +0.000 A 
ATOM      7  C   UNL     1       0.659   9.891  20.715  0.00  0.00    +0.000 A 
ATOM      8  C   UNL     1       1.379   9.204  19.723  0.00  0.00    +0.000 A 
ATOM      9  C   UNL     1       1.698   7.773  19.816  0.00  0.00    +0.000 A 
ATOM     10  C   UNL     1       1.521   7.123  21.057  0.00  0.00    +0.000 A 
ATOM     11  C   UNL     1       1.858   5.802  21.258  0.00  0.00    +0.000 A 
ATOM     12  C   UNL     1       2.267   5.044  20.175  0.00  0.00    +0.000 A 
ATOM     13  C   UNL     1       2.581   3.712  20.447  0.00  0.00    +0.000 A 
ATOM     14  C   UNL     1       2.869   2.899  19.385  0.00  0.00    +0.000 A 
ATOM     15  C   UNL     1       2.765   3.354  18.097  0.00  0.00    +0.000 A 
ATOM     16  C   UNL     1       2.476   4.674  17.809  0.00  0.00    +0.000 A 
ATOM     17  C   UNL     1       2.333   5.618  18.864  0.00  0.00    +0.000 A 
ATOM     18  C   UNL     1       2.230   7.058  18.702  0.00  0.00    +0.000 A 
ATOM     19  O   UNL     1       3.012   2.363  17.196  0.00  0.00    +0.000 OA
ATOM     20  C   UNL     1       3.581   1.368  18.074  0.00  0.00    +0.000 C 
ATOM     21  O   UNL     1       3.259   1.601  19.458  0.00  0.00    +0.000 OA
ENDROOT
BRANCH   5  22
ATOM     22  O   UNL     1       1.283  13.392  19.722  0.00  0.00    +0.000 OA
ATOM     23  C   UNL     1       2.618  13.860  19.811  0.00  0.00    +0.000 C 
ENDBRANCH   5  22
BRANCH   6  24
ATOM     24  O   UNL     1      -0.110  11.564  21.958  0.00  0.00    +0.000 OA
ATOM     25  C   UNL     1      -0.721  10.623  22.798  0.00  0.00    +0.000 C 
ENDBRANCH   6  24
BRANCH   1  26
ATOM     26  C   UNL     1       3.842   7.292  16.791  0.00  0.00    +0.000 C 
BRANCH  26  27
ATOM     27  C   UNL     1       5.058   7.034  17.698  0.00  0.00    +0.000 C 
BRANCH  27  28
ATOM     28  C   UNL     1       6.478   7.232  17.125  0.00  0.00    +0.000 C 
BRANCH  28  29
ATOM     29  N   UNL     1       7.265   6.041  16.705  0.00  0.00    +0.000 NA
BRANCH  29  31
ATOM     30  C   UNL     1       7.949   5.751  19.128  0.00  0.00    +0.000 C 
ATOM     31  C   UNL     1       7.424   5.103  17.845  0.00  0.00    +0.000 C 
ENDBRANCH  29  31
BRANCH  29  32
ATOM     32  C   UNL     1       6.573   5.336  15.592  0.00  0.00    +0.000 C 
ATOM     33  C   UNL     1       5.945   3.985  15.934  0.00  0.00    +0.000 C 
ENDBRANCH  29  32
ENDBRANCH  28  29
ENDBRANCH  27  28
ENDBRANCH  26  27
ENDBRANCH   1  26
TORSDOF 8
ENDMDL
