MODEL 1
REMARK VINA RESULT:      -7.7      0.000      0.000
REMARK  Name = 
REMARK  11 active torsions:
REMARK  status: ('A' for Active; 'I' for Inactive)
REMARK    1  A    between atoms: C_1  and  C_2
REMARK    2  A    between atoms: C_2  and  C_3
REMARK    3  A    between atoms: C_3  and  C_4
REMARK    4  A    between atoms: C_4  and  O_5
REMARK    5  A    between atoms: O_5  and  C_6
REMARK    6  A    between atoms: C_6  and  C_8
REMARK    7  A    between atoms: C_11  and  N_12
REMARK    8  A    between atoms: C_13  and  C_15
REMARK    9  A    between atoms: C_19  and  C_20
REMARK   10  A    between atoms: C_22  and  C_23
REMARK   11  A    between atoms: C_25  and  N_26
REMARK                            x       y       z     vdW  Elec       q    Type
REMARK                         _______ _______ _______ _____ _____    ______ ____
ROOT
ATOM      1  N   UNL     1       1.537   8.410  19.120  0.00  0.00    +0.000 N 
ATOM      2  C   UNL     1       1.395   9.674  18.543  0.00  0.00    +0.000 C 
ATOM      3  O   UNL     1       2.100  10.107  17.634  0.00  0.00    +0.000 OA
ATOM      4  H   UNL     1       0.833   8.148  19.801  0.00  0.00    +0.000 HD
ENDROOT
BRANCH   2   5
ATOM      5  C   UNL     1       0.302  10.465  19.086  0.00  0.00    +0.000 A 
ATOM      6  S   UNL     1       0.462  11.179  20.629  0.00  0.00    +0.000 S 
ATOM      7  C   UNL     1      -1.103  11.820  20.565  0.00  0.00    +0.000 A 
ATOM      8  N   UNL     1      -1.534  12.554  21.603  0.00  0.00    +0.000 NA
ATOM      9  C   UNL     1      -2.782  13.026  21.477  0.00  0.00    +0.000 A 
ATOM     10  C   UNL     1      -3.291  13.872  22.606  0.00  0.00    +0.000 C 
ATOM     11  C   UNL     1      -3.591  12.783  20.372  0.00  0.00    +0.000 A 
ATOM     12  C   UNL     1      -3.118  12.016  19.295  0.00  0.00    +0.000 A 
ATOM     13  C   UNL     1      -4.025  11.779  18.119  0.00  0.00    +0.000 C 
ATOM     14  C   UNL     1      -1.794  11.505  19.395  0.00  0.00    +0.000 A 
ATOM     15  C   UNL     1      -0.952  10.704  18.539  0.00  0.00    +0.000 A 
BRANCH  15  16
ATOM     16  N   UNL     1      -1.329  10.235  17.326  0.00  0.00    +0.000 N 
ATOM     17  H   UNL     1      -0.759  10.365  16.497  0.00  0.00    +0.000 HD
ATOM     18  H   UNL     1      -2.325  10.178  17.095  0.00  0.00    +0.000 HD
ENDBRANCH  15  16
ENDBRANCH   2   5
BRANCH   1  22
ATOM     19  C   UNL     1       4.423   5.509  18.077  0.00  0.00    +0.000 A 
ATOM     20  C   UNL     1       3.736   5.406  19.285  0.00  0.00    +0.000 A 
ATOM     21  C   UNL     1       2.785   6.369  19.631  0.00  0.00    +0.000 A 
ATOM     22  C   UNL     1       2.516   7.443  18.793  0.00  0.00    +0.000 A 
ATOM     23  C   UNL     1       3.213   7.563  17.585  0.00  0.00    +0.000 A 
ATOM     24  C   UNL     1       4.179   6.608  17.242  0.00  0.00    +0.000 A 
BRANCH  19  25
ATOM     25  C   UNL     1       5.407   4.447  17.738  0.00  0.00    +0.000 C 
ATOM     26  O   UNL     1       5.274   3.651  16.821  0.00  0.00    +0.000 OA
BRANCH  25  27
ATOM     27  O   UNL     1       6.398   4.430  18.661  0.00  0.00    +0.000 OA
BRANCH  27  28
ATOM     28  C   UNL     1       7.628   4.989  18.195  0.00  0.00    +0.000 C 
BRANCH  28  29
ATOM     29  C   UNL     1       7.850   6.398  18.725  0.00  0.00    +0.000 C 
BRANCH  29  31
ATOM     30  C   UNL     1       8.220   8.775  17.957  0.00  0.00    +0.000 C 
ATOM     31  C   UNL     1       7.633   7.423  17.608  0.00  0.00    +0.000 C 
ENDBRANCH  29  31
ENDBRANCH  28  29
ENDBRANCH  27  28
ENDBRANCH  25  27
ENDBRANCH  19  25
ENDBRANCH   1  22
TORSDOF 8
ENDMDL
MODEL 2
REMARK VINA RESULT:      -7.6      1.450      2.087
REMARK  Name = 
REMARK  11 active torsions:
REMARK  status: ('A' for Active; 'I' for Inactive)
REMARK    1  A    between atoms: C_1  and  C_2
REMARK    2  A    between atoms: C_2  and  C_3
REMARK    3  A    between atoms: C_3  and  C_4
REMARK    4  A    between atoms: C_4  and  O_5
REMARK    5  A    between atoms: O_5  and  C_6
REMARK    6  A    between atoms: C_6  and  C_8
REMARK    7  A    between atoms: C_11  and  N_12
REMARK    8  A    between atoms: C_13  and  C_15
REMARK    9  A    between atoms: C_19  and  C_20
REMARK   10  A    between atoms: C_22  and  C_23
REMARK   11  A    between atoms: C_25  and  N_26
REMARK                            x       y       z     vdW  Elec       q    Type
REMARK                         _______ _______ _______ _____ _____    ______ ____
ROOT
ATOM      1  N   UNL     1       1.430   8.395  19.087  0.00  0.00    +0.000 N 
ATOM      2  C   UNL     1       1.243   9.608  18.422  0.00  0.00    +0.000 C 
ATOM      3  O   UNL     1       1.955  10.016  17.507  0.00  0.00    +0.000 OA
ATOM      4  H   UNL     1       0.717   8.141  19.764  0.00  0.00    +0.000 HD
ENDROOT
BRANCH   2   5
ATOM      5  C   UNL     1       0.093  10.374  18.875  0.00  0.00    +0.000 A 
ATOM      6  S   UNL     1       0.121  11.104  20.419  0.00  0.00    +0.000 S 
ATOM      7  C   UNL     1      -1.452  11.702  20.235  0.00  0.00    +0.000 A 
ATOM      8  N   UNL     1      -1.976  12.432  21.232  0.00  0.00    +0.000 NA
ATOM      9  C   UNL     1      -3.224  12.871  21.010  0.00  0.00    +0.000 A 
ATOM     10  C   UNL     1      -3.836  13.712  22.091  0.00  0.00    +0.000 C 
ATOM     11  C   UNL     1      -3.943  12.598  19.852  0.00  0.00    +0.000 A 
ATOM     12  C   UNL     1      -3.372  11.836  18.819  0.00  0.00    +0.000 A 
ATOM     13  C   UNL     1      -4.184  11.566  17.582  0.00  0.00    +0.000 C 
ATOM     14  C   UNL     1      -2.047  11.361  19.021  0.00  0.00    +0.000 A 
ATOM     15  C   UNL     1      -1.123  10.575  18.236  0.00  0.00    +0.000 A 
BRANCH  15  16
ATOM     16  N   UNL     1      -1.398  10.087  17.004  0.00  0.00    +0.000 N 
ATOM     17  H   UNL     1      -1.231  10.627  16.160  0.00  0.00    +0.000 HD
ATOM     18  H   UNL     1      -2.174   9.429  16.883  0.00  0.00    +0.000 HD
ENDBRANCH  15  16
ENDBRANCH   2   5
BRANCH   1  22
ATOM     19  C   UNL     1       4.497   5.592  18.332  0.00  0.00    +0.000 A 
ATOM     20  C   UNL     1       3.722   5.485  19.486  0.00  0.00    +0.000 A 
ATOM     21  C   UNL     1       2.711   6.415  19.737  0.00  0.00    +0.000 A 
ATOM     22  C   UNL     1       2.468   7.461  18.857  0.00  0.00    +0.000 A 
ATOM     23  C   UNL     1       3.250   7.587  17.705  0.00  0.00    +0.000 A 
ATOM     24  C   UNL     1       4.276   6.665  17.457  0.00  0.00    +0.000 A 
BRANCH  19  25
ATOM     25  C   UNL     1       5.544   4.564  18.092  0.00  0.00    +0.000 C 
ATOM     26  O   UNL     1       6.251   4.084  18.965  0.00  0.00    +0.000 OA
BRANCH  25  27
ATOM     27  O   UNL     1       5.666   4.336  16.763  0.00  0.00    +0.000 OA
BRANCH  27  28
ATOM     28  C   UNL     1       6.990   4.536  16.263  0.00  0.00    +0.000 C 
BRANCH  28  29
ATOM     29  C   UNL     1       6.999   4.794  14.763  0.00  0.00    +0.000 C 
BRANCH  29  31
ATOM     30  C   UNL     1       5.980   3.477  12.865  0.00  0.00    +0.000 C 
ATOM     31  C   UNL     1       5.709   4.266  14.129  0.00  0.00    +0.000 C 
ENDBRANCH  29  31
ENDBRANCH  28  29
ENDBRANCH  27  28
ENDBRANCH  25  27
ENDBRANCH  19  25
ENDBRANCH   1  22
TORSDOF 8
ENDMDL
MODEL 3
REMARK VINA RESULT:      -7.4      1.384      1.769
REMARK  Name = 
REMARK  11 active torsions:
REMARK  status: ('A' for Active; 'I' for Inactive)
REMARK    1  A    between atoms: C_1  and  C_2
REMARK    2  A    between atoms: C_2  and  C_3
REMARK    3  A    between atoms: C_3  and  C_4
REMARK    4  A    between atoms: C_4  and  O_5
REMARK    5  A    between atoms: O_5  and  C_6
REMARK    6  A    between atoms: C_6  and  C_8
REMARK    7  A    between atoms: C_11  and  N_12
REMARK    8  A    between atoms: C_13  and  C_15
REMARK    9  A    between atoms: C_19  and  C_20
REMARK   10  A    between atoms: C_22  and  C_23
REMARK   11  A    between atoms: C_25  and  N_26
REMARK                            x       y       z     vdW  Elec       q    Type
REMARK                         _______ _______ _______ _____ _____    ______ ____
ROOT
ATOM      1  N   UNL     1       1.764   8.513  19.452  0.00  0.00    +0.000 N 
ATOM      2  C   UNL     1       1.382   9.625  18.699  0.00  0.00    +0.000 C 
ATOM      3  O   UNL     1       1.670   9.796  17.517  0.00  0.00    +0.000 OA
ATOM      4  H   UNL     1       1.385   8.457  20.391  0.00  0.00    +0.000 HD
ENDROOT
BRANCH   2   5
ATOM      5  C   UNL     1       0.567  10.590  19.419  0.00  0.00    +0.000 A 
ATOM      6  S   UNL     1      -0.424  10.064  20.708  0.00  0.00    +0.000 S 
ATOM      7  C   UNL     1      -1.032  11.622  20.960  0.00  0.00    +0.000 A 
ATOM      8  N   UNL     1      -1.917  11.807  21.953  0.00  0.00    +0.000 NA
ATOM      9  C   UNL     1      -2.351  13.069  22.090  0.00  0.00    +0.000 A 
ATOM     10  C   UNL     1      -3.323  13.321  23.204  0.00  0.00    +0.000 C 
ATOM     11  C   UNL     1      -1.940  14.119  21.277  0.00  0.00    +0.000 A 
ATOM     12  C   UNL     1      -1.009  13.904  20.247  0.00  0.00    +0.000 A 
ATOM     13  C   UNL     1      -0.589  15.067  19.392  0.00  0.00    +0.000 C 
ATOM     14  C   UNL     1      -0.524  12.577  20.080  0.00  0.00    +0.000 A 
ATOM     15  C   UNL     1       0.412  11.948  19.177  0.00  0.00    +0.000 A 
BRANCH  15  16
ATOM     16  N   UNL     1       1.082  12.604  18.200  0.00  0.00    +0.000 N 
ATOM     17  H   UNL     1       1.334  13.584  18.282  0.00  0.00    +0.000 HD
ATOM     18  H   UNL     1       0.942  12.331  17.222  0.00  0.00    +0.000 HD
ENDBRANCH  15  16
ENDBRANCH   2   5
BRANCH   1  22
ATOM     19  C   UNL     1       4.184   5.288  18.196  0.00  0.00    +0.000 A 
ATOM     20  C   UNL     1       4.068   6.425  17.398  0.00  0.00    +0.000 A 
ATOM     21  C   UNL     1       3.264   7.489  17.812  0.00  0.00    +0.000 A 
ATOM     22  C   UNL     1       2.562   7.431  19.009  0.00  0.00    +0.000 A 
ATOM     23  C   UNL     1       2.659   6.288  19.809  0.00  0.00    +0.000 A 
ATOM     24  C   UNL     1       3.453   5.211  19.389  0.00  0.00    +0.000 A 
BRANCH  19  25
ATOM     25  C   UNL     1       5.072   4.191  17.728  0.00  0.00    +0.000 C 
ATOM     26  O   UNL     1       4.778   3.393  16.850  0.00  0.00    +0.000 OA
BRANCH  25  27
ATOM     27  O   UNL     1       6.187   4.147  18.494  0.00  0.00    +0.000 OA
BRANCH  27  28
ATOM     28  C   UNL     1       7.338   4.720  17.868  0.00  0.00    +0.000 C 
BRANCH  28  29
ATOM     29  C   UNL     1       7.721   6.054  18.494  0.00  0.00    +0.000 C 
BRANCH  29  31
ATOM     30  C   UNL     1       8.136   8.488  17.965  0.00  0.00    +0.000 C 
ATOM     31  C   UNL     1       7.534   7.185  17.479  0.00  0.00    +0.000 C 
ENDBRANCH  29  31
ENDBRANCH  28  29
ENDBRANCH  27  28
ENDBRANCH  25  27
ENDBRANCH  19  25
ENDBRANCH   1  22
TORSDOF 8
ENDMDL
MODEL 4
REMARK VINA RESULT:      -7.4      1.987      2.298
REMARK  Name = 
REMARK  11 active torsions:
REMARK  status: ('A' for Active; 'I' for Inactive)
REMARK    1  A    between atoms: C_1  and  C_2
REMARK    2  A    between atoms: C_2  and  C_3
REMARK    3  A    between atoms: C_3  and  C_4
REMARK    4  A    between atoms: C_4  and  O_5
REMARK    5  A    between atoms: O_5  and  C_6
REMARK    6  A    between atoms: C_6  and  C_8
REMARK    7  A    between atoms: C_11  and  N_12
REMARK    8  A    between atoms: C_13  and  C_15
REMARK    9  A    between atoms: C_19  and  C_20
REMARK   10  A    between atoms: C_22  and  C_23
REMARK   11  A    between atoms: C_25  and  N_26
REMARK                            x       y       z     vdW  Elec       q    Type
REMARK                         _______ _______ _______ _____ _____    ______ ____
ROOT
ATOM      1  N   UNL     1       1.829   8.715  19.617  0.00  0.00    +0.000 N 
ATOM      2  C   UNL     1       1.037   9.640  18.934  0.00  0.00    +0.000 C 
ATOM      3  O   UNL     1       0.700   9.531  17.757  0.00  0.00    +0.000 OA
ATOM      4  H   UNL     1       1.959   8.883  20.609  0.00  0.00    +0.000 HD
ENDROOT
BRANCH   2   5
ATOM      5  C   UNL     1       0.594  10.767  19.739  0.00  0.00    +0.000 A 
ATOM      6  S   UNL     1       0.219  10.529  21.389  0.00  0.00    +0.000 S 
ATOM      7  C   UNL     1      -0.225  12.150  21.587  0.00  0.00    +0.000 A 
ATOM      8  N   UNL     1      -0.622  12.558  22.803  0.00  0.00    +0.000 NA
ATOM      9  C   UNL     1      -0.956  13.854  22.879  0.00  0.00    +0.000 A 
ATOM     10  C   UNL     1      -1.382  14.354  24.227  0.00  0.00    +0.000 C 
ATOM     11  C   UNL     1      -0.910  14.727  21.797  0.00  0.00    +0.000 A 
ATOM     12  C   UNL     1      -0.486  14.281  20.535  0.00  0.00    +0.000 A 
ATOM     13  C   UNL     1      -0.450  15.258  19.393  0.00  0.00    +0.000 C 
ATOM     14  C   UNL     1      -0.119  12.911  20.422  0.00  0.00    +0.000 A 
ATOM     15  C   UNL     1       0.360  12.077  19.345  0.00  0.00    +0.000 A 
BRANCH  15  16
ATOM     16  N   UNL     1       0.571  12.516  18.082  0.00  0.00    +0.000 N 
ATOM     17  H   UNL     1       0.304  13.448  17.783  0.00  0.00    +0.000 HD
ATOM     18  H   UNL     1       0.545  11.849  17.305  0.00  0.00    +0.000 HD
ENDBRANCH  15  16
ENDBRANCH   2   5
BRANCH   1  22
ATOM     19  C   UNL     1       3.501   5.217  17.942  0.00  0.00    +0.000 A 
ATOM     20  C   UNL     1       2.721   5.135  19.095  0.00  0.00    +0.000 A 
ATOM     21  C   UNL     1       2.173   6.293  19.650  0.00  0.00    +0.000 A 
ATOM     22  C   UNL     1       2.400   7.537  19.078  0.00  0.00    +0.000 A 
ATOM     23  C   UNL     1       3.194   7.632  17.931  0.00  0.00    +0.000 A 
ATOM     24  C   UNL     1       3.759   6.474  17.379  0.00  0.00    +0.000 A 
BRANCH  19  25
ATOM     25  C   UNL     1       4.042   3.956  17.370  0.00  0.00    +0.000 C 
ATOM     26  O   UNL     1       4.090   2.892  17.970  0.00  0.00    +0.000 OA
BRANCH  25  27
ATOM     27  O   UNL     1       4.568   4.197  16.147  0.00  0.00    +0.000 OA
BRANCH  27  28
ATOM     28  C   UNL     1       5.917   3.746  16.001  0.00  0.00    +0.000 C 
BRANCH  28  29
ATOM     29  C   UNL     1       6.921   4.856  16.273  0.00  0.00    +0.000 C 
BRANCH  29  31
ATOM     30  C   UNL     1       7.557   5.839  18.511  0.00  0.00    +0.000 C 
ATOM     31  C   UNL     1       7.620   4.619  17.615  0.00  0.00    +0.000 C 
ENDBRANCH  29  31
ENDBRANCH  28  29
ENDBRANCH  27  28
ENDBRANCH  25  27
ENDBRANCH  19  25
ENDBRANCH   1  22
TORSDOF 8
ENDMDL
MODEL 5
REMARK VINA RESULT:      -7.4      1.000      1.297
REMARK  Name = 
REMARK  11 active torsions:
REMARK  status: ('A' for Active; 'I' for Inactive)
REMARK    1  A    between atoms: C_1  and  C_2
REMARK    2  A    between atoms: C_2  and  C_3
REMARK    3  A    between atoms: C_3  and  C_4
REMARK    4  A    between atoms: C_4  and  O_5
REMARK    5  A    between atoms: O_5  and  C_6
REMARK    6  A    between atoms: C_6  and  C_8
REMARK    7  A    between atoms: C_11  and  N_12
REMARK    8  A    between atoms: C_13  and  C_15
REMARK    9  A    between atoms: C_19  and  C_20
REMARK   10  A    between atoms: C_22  and  C_23
REMARK   11  A    between atoms: C_25  and  N_26
REMARK                            x       y       z     vdW  Elec       q    Type
REMARK                         _______ _______ _______ _____ _____    ______ ____
ROOT
ATOM      1  N   UNL     1       1.598   8.711  19.647  0.00  0.00    +0.000 N 
ATOM      2  C   UNL     1       0.738   9.566  18.956  0.00  0.00    +0.000 C 
ATOM      3  O   UNL     1       0.538   9.520  17.744  0.00  0.00    +0.000 OA
ATOM      4  H   UNL     1       1.604   8.802  20.657  0.00  0.00    +0.000 HD
ENDROOT
BRANCH   2   5
ATOM      5  C   UNL     1       0.046  10.533  19.794  0.00  0.00    +0.000 A 
ATOM      6  S   UNL     1       0.794  11.100  21.221  0.00  0.00    +0.000 S 
ATOM      7  C   UNL     1      -0.545  12.055  21.618  0.00  0.00    +0.000 A 
ATOM      8  N   UNL     1      -0.489  12.797  22.736  0.00  0.00    +0.000 NA
ATOM      9  C   UNL     1      -1.587  13.526  22.981  0.00  0.00    +0.000 A 
ATOM     10  C   UNL     1      -1.554  14.388  24.209  0.00  0.00    +0.000 C 
ATOM     11  C   UNL     1      -2.712  13.526  22.164  0.00  0.00    +0.000 A 
ATOM     12  C   UNL     1      -2.747  12.746  20.996  0.00  0.00    +0.000 A 
ATOM     13  C   UNL     1      -3.982  12.776  20.139  0.00  0.00    +0.000 C 
ATOM     14  C   UNL     1      -1.594  11.965  20.704  0.00  0.00    +0.000 A 
ATOM     15  C   UNL     1      -1.228  11.060  19.640  0.00  0.00    +0.000 A 
BRANCH  15  16
ATOM     16  N   UNL     1      -2.030  10.756  18.592  0.00  0.00    +0.000 N 
ATOM     17  H   UNL     1      -1.859  11.117  17.659  0.00  0.00    +0.000 HD
ATOM     18  H   UNL     1      -3.028  10.585  18.753  0.00  0.00    +0.000 HD
ENDBRANCH  15  16
ENDBRANCH   2   5
BRANCH   1  22
ATOM     19  C   UNL     1       3.950   5.669  17.899  0.00  0.00    +0.000 A 
ATOM     20  C   UNL     1       3.259   5.422  19.085  0.00  0.00    +0.000 A 
ATOM     21  C   UNL     1       2.485   6.430  19.664  0.00  0.00    +0.000 A 
ATOM     22  C   UNL     1       2.399   7.689  19.084  0.00  0.00    +0.000 A 
ATOM     23  C   UNL     1       3.102   7.950  17.902  0.00  0.00    +0.000 A 
ATOM     24  C   UNL     1       3.891   6.946  17.326  0.00  0.00    +0.000 A 
BRANCH  19  25
ATOM     25  C   UNL     1       4.739   4.558  17.304  0.00  0.00    +0.000 C 
ATOM     26  O   UNL     1       4.448   3.985  16.265  0.00  0.00    +0.000 OA
BRANCH  25  27
ATOM     27  O   UNL     1       5.746   4.213  18.141  0.00  0.00    +0.000 OA
BRANCH  27  28
ATOM     28  C   UNL     1       6.999   4.818  17.813  0.00  0.00    +0.000 C 
BRANCH  28  29
ATOM     29  C   UNL     1       7.617   5.530  19.008  0.00  0.00    +0.000 C 
BRANCH  29  31
ATOM     30  C   UNL     1       7.460   7.370  17.286  0.00  0.00    +0.000 C 
ATOM     31  C   UNL     1       8.051   6.945  18.614  0.00  0.00    +0.000 C 
ENDBRANCH  29  31
ENDBRANCH  28  29
ENDBRANCH  27  28
ENDBRANCH  25  27
ENDBRANCH  19  25
ENDBRANCH   1  22
TORSDOF 8
ENDMDL
MODEL 6
REMARK VINA RESULT:      -7.3      2.862      4.022
REMARK  Name = 
REMARK  11 active torsions:
REMARK  status: ('A' for Active; 'I' for Inactive)
REMARK    1  A    between atoms: C_1  and  C_2
REMARK    2  A    between atoms: C_2  and  C_3
REMARK    3  A    between atoms: C_3  and  C_4
REMARK    4  A    between atoms: C_4  and  O_5
REMARK    5  A    between atoms: O_5  and  C_6
REMARK    6  A    between atoms: C_6  and  C_8
REMARK    7  A    between atoms: C_11  and  N_12
REMARK    8  A    between atoms: C_13  and  C_15
REMARK    9  A    between atoms: C_19  and  C_20
REMARK   10  A    between atoms: C_22  and  C_23
REMARK   11  A    between atoms: C_25  and  N_26
REMARK                            x       y       z     vdW  Elec       q    Type
REMARK                         _______ _______ _______ _____ _____    ______ ____
ROOT
ATOM      1  N   UNL     1       2.727   7.500  18.752  0.00  0.00    +0.000 N 
ATOM      2  C   UNL     1       2.091   8.640  18.258  0.00  0.00    +0.000 C 
ATOM      3  O   UNL     1       2.229   9.073  17.116  0.00  0.00    +0.000 OA
ATOM      4  H   UNL     1       2.456   7.205  19.684  0.00  0.00    +0.000 HD
ENDROOT
BRANCH   2   5
ATOM      5  C   UNL     1       1.199   9.292  19.204  0.00  0.00    +0.000 A 
ATOM      6  S   UNL     1       0.168  10.544  18.666  0.00  0.00    +0.000 S 
ATOM      7  C   UNL     1      -0.446  10.793  20.223  0.00  0.00    +0.000 A 
ATOM      8  N   UNL     1      -1.388  11.734  20.393  0.00  0.00    +0.000 NA
ATOM      9  C   UNL     1      -1.824  11.870  21.654  0.00  0.00    +0.000 A 
ATOM     10  C   UNL     1      -2.896  12.895  21.880  0.00  0.00    +0.000 C 
ATOM     11  C   UNL     1      -1.349  11.115  22.720  0.00  0.00    +0.000 A 
ATOM     12  C   UNL     1      -0.366  10.132  22.519  0.00  0.00    +0.000 A 
ATOM     13  C   UNL     1       0.119   9.337  23.699  0.00  0.00    +0.000 C 
ATOM     14  C   UNL     1       0.113   9.958  21.191  0.00  0.00    +0.000 A 
ATOM     15  C   UNL     1       1.083   9.086  20.571  0.00  0.00    +0.000 A 
BRANCH  15  16
ATOM     16  N   UNL     1       1.803   8.154  21.240  0.00  0.00    +0.000 N 
ATOM     17  H   UNL     1       1.517   7.801  22.148  0.00  0.00    +0.000 HD
ATOM     18  H   UNL     1       2.821   8.127  21.128  0.00  0.00    +0.000 HD
ENDBRANCH  15  16
ENDBRANCH   2   5
BRANCH   1  22
ATOM     19  C   UNL     1       5.477   5.111  16.615  0.00  0.00    +0.000 A 
ATOM     20  C   UNL     1       4.270   4.565  17.052  0.00  0.00    +0.000 A 
ATOM     21  C   UNL     1       3.364   5.355  17.762  0.00  0.00    +0.000 A 
ATOM     22  C   UNL     1       3.648   6.682  18.055  0.00  0.00    +0.000 A 
ATOM     23  C   UNL     1       4.863   7.234  17.635  0.00  0.00    +0.000 A 
ATOM     24  C   UNL     1       5.782   6.441  16.936  0.00  0.00    +0.000 A 
BRANCH  19  25
ATOM     25  C   UNL     1       6.400   4.241  15.839  0.00  0.00    +0.000 C 
ATOM     26  O   UNL     1       7.604   4.169  16.032  0.00  0.00    +0.000 OA
BRANCH  25  27
ATOM     27  O   UNL     1       5.724   3.641  14.831  0.00  0.00    +0.000 OA
BRANCH  27  28
ATOM     28  C   UNL     1       6.050   4.151  13.536  0.00  0.00    +0.000 C 
BRANCH  28  29
ATOM     29  C   UNL     1       5.549   3.241  12.424  0.00  0.00    +0.000 C 
BRANCH  29  31
ATOM     30  C   UNL     1       6.391   1.274  11.082  0.00  0.00    +0.000 C 
ATOM     31  C   UNL     1       6.733   2.628  11.670  0.00  0.00    +0.000 C 
ENDBRANCH  29  31
ENDBRANCH  28  29
ENDBRANCH  27  28
ENDBRANCH  25  27
ENDBRANCH  19  25
ENDBRANCH   1  22
TORSDOF 8
ENDMDL
MODEL 7
REMARK VINA RESULT:      -7.3      2.498      4.165
REMARK  Name = 
REMARK  11 active torsions:
REMARK  status: ('A' for Active; 'I' for Inactive)
REMARK    1  A    between atoms: C_1  and  C_2
REMARK    2  A    between atoms: C_2  and  C_3
REMARK    3  A    between atoms: C_3  and  C_4
REMARK    4  A    between atoms: C_4  and  O_5
REMARK    5  A    between atoms: O_5  and  C_6
REMARK    6  A    between atoms: C_6  and  C_8
REMARK    7  A    between atoms: C_11  and  N_12
REMARK    8  A    between atoms: C_13  and  C_15
REMARK    9  A    between atoms: C_19  and  C_20
REMARK   10  A    between atoms: C_22  and  C_23
REMARK   11  A    between atoms: C_25  and  N_26
REMARK                            x       y       z     vdW  Elec       q    Type
REMARK                         _______ _______ _______ _____ _____    ______ ____
ROOT
ATOM      1  N   UNL     1      -0.096  10.054  19.878  0.00  0.00    +0.000 N 
ATOM      2  C   UNL     1       0.065  11.089  20.801  0.00  0.00    +0.000 C 
ATOM      3  O   UNL     1       1.138  11.408  21.307  0.00  0.00    +0.000 OA
ATOM      4  H   UNL     1      -1.021   9.955  19.473  0.00  0.00    +0.000 HD
ENDROOT
BRANCH   2   5
ATOM      5  C   UNL     1      -1.157  11.812  21.116  0.00  0.00    +0.000 A 
ATOM      6  S   UNL     1      -1.832  12.873  19.960  0.00  0.00    +0.000 S 
ATOM      7  C   UNL     1      -3.083  13.321  21.007  0.00  0.00    +0.000 A 
ATOM      8  N   UNL     1      -3.998  14.199  20.567  0.00  0.00    +0.000 NA
ATOM      9  C   UNL     1      -4.957  14.502  21.454  0.00  0.00    +0.000 A 
ATOM     10  C   UNL     1      -6.013  15.462  20.991  0.00  0.00    +0.000 C 
ATOM     11  C   UNL     1      -5.017  13.971  22.737  0.00  0.00    +0.000 A 
ATOM     12  C   UNL     1      -4.051  13.050  23.176  0.00  0.00    +0.000 A 
ATOM     13  C   UNL     1      -4.153  12.498  24.570  0.00  0.00    +0.000 C 
ATOM     14  C   UNL     1      -3.023  12.702  22.255  0.00  0.00    +0.000 A 
ATOM     15  C   UNL     1      -1.880  11.821  22.301  0.00  0.00    +0.000 A 
BRANCH  15  16
ATOM     16  N   UNL     1      -1.542  11.071  23.376  0.00  0.00    +0.000 N 
ATOM     17  H   UNL     1      -0.645  11.168  23.842  0.00  0.00    +0.000 HD
ATOM     18  H   UNL     1      -1.911  10.119  23.464  0.00  0.00    +0.000 HD
ENDBRANCH  15  16
ENDBRANCH   2   5
BRANCH   1  22
ATOM     19  C   UNL     1       2.881   7.450  18.396  0.00  0.00    +0.000 A 
ATOM     20  C   UNL     1       2.405   7.298  19.698  0.00  0.00    +0.000 A 
ATOM     21  C   UNL     1       1.424   8.163  20.188  0.00  0.00    +0.000 A 
ATOM     22  C   UNL     1       0.916   9.188  19.402  0.00  0.00    +0.000 A 
ATOM     23  C   UNL     1       1.399   9.358  18.100  0.00  0.00    +0.000 A 
ATOM     24  C   UNL     1       2.394   8.503  17.609  0.00  0.00    +0.000 A 
BRANCH  19  25
ATOM     25  C   UNL     1       3.906   6.490  17.908  0.00  0.00    +0.000 C 
ATOM     26  O   UNL     1       4.747   6.752  17.061  0.00  0.00    +0.000 OA
BRANCH  25  27
ATOM     27  O   UNL     1       3.689   5.271  18.455  0.00  0.00    +0.000 OA
BRANCH  27  28
ATOM     28  C   UNL     1       3.168   4.311  17.534  0.00  0.00    +0.000 C 
BRANCH  28  29
ATOM     29  C   UNL     1       1.665   4.128  17.692  0.00  0.00    +0.000 C 
BRANCH  29  31
ATOM     30  C   UNL     1       1.498   2.425  19.548  0.00  0.00    +0.000 C 
ATOM     31  C   UNL     1       1.315   3.878  19.161  0.00  0.00    +0.000 C 
ENDBRANCH  29  31
ENDBRANCH  28  29
ENDBRANCH  27  28
ENDBRANCH  25  27
ENDBRANCH  19  25
ENDBRANCH   1  22
TORSDOF 8
ENDMDL
MODEL 8
REMARK VINA RESULT:      -7.3      0.452      1.038
REMARK  Name = 
REMARK  11 active torsions:
REMARK  status: ('A' for Active; 'I' for Inactive)
REMARK    1  A    between atoms: C_1  and  C_2
REMARK    2  A    between atoms: C_2  and  C_3
REMARK    3  A    between atoms: C_3  and  C_4
REMARK    4  A    between atoms: C_4  and  O_5
REMARK    5  A    between atoms: O_5  and  C_6
REMARK    6  A    between atoms: C_6  and  C_8
REMARK    7  A    between atoms: C_11  and  N_12
REMARK    8  A    between atoms: C_13  and  C_15
REMARK    9  A    between atoms: C_19  and  C_20
REMARK   10  A    between atoms: C_22  and  C_23
REMARK   11  A    between atoms: C_25  and  N_26
REMARK                            x       y       z     vdW  Elec       q    Type
REMARK                         _______ _______ _______ _____ _____    ______ ____
ROOT
ATOM      1  N   UNL     1       1.588   8.421  18.870  0.00  0.00    +0.000 N 
ATOM      2  C   UNL     1       1.559   9.735  18.396  0.00  0.00    +0.000 C 
ATOM      3  O   UNL     1       2.330  10.186  17.552  0.00  0.00    +0.000 OA
ATOM      4  H   UNL     1       0.839   8.157  19.501  0.00  0.00    +0.000 HD
ENDROOT
BRANCH   2   5
ATOM      5  C   UNL     1       0.502  10.558  18.963  0.00  0.00    +0.000 A 
ATOM      6  S   UNL     1       0.782  11.404  20.421  0.00  0.00    +0.000 S 
ATOM      7  C   UNL     1      -0.794  12.019  20.440  0.00  0.00    +0.000 A 
ATOM      8  N   UNL     1      -1.147  12.835  21.446  0.00  0.00    +0.000 NA
ATOM      9  C   UNL     1      -2.410  13.281  21.390  0.00  0.00    +0.000 A 
ATOM     10  C   UNL     1      -2.836  14.216  22.483  0.00  0.00    +0.000 C 
ATOM     11  C   UNL     1      -3.307  12.935  20.385  0.00  0.00    +0.000 A 
ATOM     12  C   UNL     1      -2.915  12.084  19.339  0.00  0.00    +0.000 A 
ATOM     13  C   UNL     1      -3.915  11.736  18.271  0.00  0.00    +0.000 C 
ATOM     14  C   UNL     1      -1.578  11.598  19.366  0.00  0.00    +0.000 A 
ATOM     15  C   UNL     1      -0.798  10.734  18.511  0.00  0.00    +0.000 A 
BRANCH  15  16
ATOM     16  N   UNL     1      -1.270  10.159  17.380  0.00  0.00    +0.000 N 
ATOM     17  H   UNL     1      -1.191   9.161  17.208  0.00  0.00    +0.000 HD
ATOM     18  H   UNL     1      -1.273  10.693  16.505  0.00  0.00    +0.000 HD
ENDBRANCH  15  16
ENDBRANCH   2   5
BRANCH   1  22
ATOM     19  C   UNL     1       4.371   5.420  17.831  0.00  0.00    +0.000 A 
ATOM     20  C   UNL     1       4.229   6.549  17.026  0.00  0.00    +0.000 A 
ATOM     21  C   UNL     1       3.305   7.538  17.367  0.00  0.00    +0.000 A 
ATOM     22  C   UNL     1       2.509   7.414  18.499  0.00  0.00    +0.000 A 
ATOM     23  C   UNL     1       2.634   6.277  19.305  0.00  0.00    +0.000 A 
ATOM     24  C   UNL     1       3.549   5.275  18.957  0.00  0.00    +0.000 A 
BRANCH  19  25
ATOM     25  C   UNL     1       5.386   4.405  17.443  0.00  0.00    +0.000 C 
ATOM     26  O   UNL     1       5.309   3.698  16.450  0.00  0.00    +0.000 OA
BRANCH  25  27
ATOM     27  O   UNL     1       6.331   4.311  18.409  0.00  0.00    +0.000 OA
BRANCH  27  28
ATOM     28  C   UNL     1       7.568   4.940  18.067  0.00  0.00    +0.000 C 
BRANCH  28  29
ATOM     29  C   UNL     1       8.028   5.912  19.143  0.00  0.00    +0.000 C 
BRANCH  29  31
ATOM     30  C   UNL     1       7.596   7.398  17.148  0.00  0.00    +0.000 C 
ATOM     31  C   UNL     1       8.092   7.334  18.578  0.00  0.00    +0.000 C 
ENDBRANCH  29  31
ENDBRANCH  28  29
ENDBRANCH  27  28
ENDBRANCH  25  27
ENDBRANCH  19  25
ENDBRANCH   1  22
TORSDOF 8
ENDMDL
MODEL 9
REMARK VINA RESULT:      -7.3      2.386      3.831
REMARK  Name = 
REMARK  11 active torsions:
REMARK  status: ('A' for Active; 'I' for Inactive)
REMARK    1  A    between atoms: C_1  and  C_2
REMARK    2  A    between atoms: C_2  and  C_3
REMARK    3  A    between atoms: C_3  and  C_4
REMARK    4  A    between atoms: C_4  and  O_5
REMARK    5  A    between atoms: O_5  and  C_6
REMARK    6  A    between atoms: C_6  and  C_8
REMARK    7  A    between atoms: C_11  and  N_12
REMARK    8  A    between atoms: C_13  and  C_15
REMARK    9  A    between atoms: C_19  and  C_20
REMARK   10  A    between atoms: C_22  and  C_23
REMARK   11  A    between atoms: C_25  and  N_26
REMARK                            x       y       z     vdW  Elec       q    Type
REMARK                         _______ _______ _______ _____ _____    ______ ____
ROOT
ATOM      1  N   UNL     1       0.509   9.996  20.260  0.00  0.00    +0.000 N 
ATOM      2  C   UNL     1      -0.677  10.548  19.773  0.00  0.00    +0.000 C 
ATOM      3  O   UNL     1      -1.234  10.195  18.736  0.00  0.00    +0.000 OA
ATOM      4  H   UNL     1       0.813  10.320  21.172  0.00  0.00    +0.000 HD
ENDROOT
BRANCH   2   5
ATOM      5  C   UNL     1      -1.250  11.586  20.616  0.00  0.00    +0.000 A 
ATOM      6  S   UNL     1      -0.618  11.846  22.182  0.00  0.00    +0.000 S 
ATOM      7  C   UNL     1      -1.750  13.062  22.505  0.00  0.00    +0.000 A 
ATOM      8  N   UNL     1      -1.697  13.681  23.695  0.00  0.00    +0.000 NA
ATOM      9  C   UNL     1      -2.624  14.632  23.875  0.00  0.00    +0.000 A 
ATOM     10  C   UNL     1      -2.583  15.364  25.184  0.00  0.00    +0.000 C 
ATOM     11  C   UNL     1      -3.582  14.966  22.923  0.00  0.00    +0.000 A 
ATOM     12  C   UNL     1      -3.616  14.308  21.682  0.00  0.00    +0.000 A 
ATOM     13  C   UNL     1      -4.666  14.701  20.681  0.00  0.00    +0.000 C 
ATOM     14  C   UNL     1      -2.640  13.298  21.458  0.00  0.00    +0.000 A 
ATOM     15  C   UNL     1      -2.332  12.415  20.357  0.00  0.00    +0.000 A 
BRANCH  15  16
ATOM     16  N   UNL     1      -3.014  12.395  19.187  0.00  0.00    +0.000 N 
ATOM     17  H   UNL     1      -2.659  12.843  18.348  0.00  0.00    +0.000 HD
ATOM     18  H   UNL     1      -4.038  12.375  19.200  0.00  0.00    +0.000 HD
ENDBRANCH  15  16
ENDBRANCH   2   5
BRANCH   1  22
ATOM     19  C   UNL     1       2.862   6.977  18.474  0.00  0.00    +0.000 A 
ATOM     20  C   UNL     1       2.511   8.113  17.744  0.00  0.00    +0.000 A 
ATOM     21  C   UNL     1       1.730   9.108  18.334  0.00  0.00    +0.000 A 
ATOM     22  C   UNL     1       1.280   8.983  19.642  0.00  0.00    +0.000 A 
ATOM     23  C   UNL     1       1.614   7.840  20.377  0.00  0.00    +0.000 A 
ATOM     24  C   UNL     1       2.385   6.832  19.784  0.00  0.00    +0.000 A 
BRANCH  19  25
ATOM     25  C   UNL     1       3.718   5.956  17.814  0.00  0.00    +0.000 C 
ATOM     26  O   UNL     1       4.908   6.102  17.579  0.00  0.00    +0.000 OA
BRANCH  25  27
ATOM     27  O   UNL     1       2.958   4.908  17.419  0.00  0.00    +0.000 OA
BRANCH  27  28
ATOM     28  C   UNL     1       3.572   3.636  17.638  0.00  0.00    +0.000 C 
BRANCH  28  29
ATOM     29  C   UNL     1       2.571   2.596  18.119  0.00  0.00    +0.000 C 
BRANCH  29  31
ATOM     30  C   UNL     1       0.975   3.331  19.933  0.00  0.00    +0.000 C 
ATOM     31  C   UNL     1       1.230   3.262  18.441  0.00  0.00    +0.000 C 
ENDBRANCH  29  31
ENDBRANCH  28  29
ENDBRANCH  27  28
ENDBRANCH  25  27
ENDBRANCH  19  25
ENDBRANCH   1  22
TORSDOF 8
ENDMDL
