MODEL 1
REMARK VINA RESULT:      -6.8      0.000      0.000
REMARK  Name = 
REMARK  4 active torsions:
REMARK  status: ('A' for Active; 'I' for Inactive)
REMARK    1  A    between atoms: C_1  and  O_2
REMARK    2  A    between atoms: O_2  and  C_3
REMARK    3  A    between atoms: C_8  and  N_9
REMARK    4  A    between atoms: N_12  and  C_13
REMARK                            x       y       z     vdW  Elec       q    Type
REMARK                         _______ _______ _______ _____ _____    ______ ____
ROOT
ATOM      1  C   UNL     1       2.485   3.803  18.557  0.00  0.00    +0.000 A 
ATOM      2  C   UNL     1       1.932   3.639  19.834  0.00  0.00    +0.000 A 
ATOM      3  C   UNL     1       1.586   4.750  20.615  0.00  0.00    +0.000 A 
ATOM      4  C   UNL     1       1.784   6.034  20.114  0.00  0.00    +0.000 A 
ATOM      5  O   UNL     1       1.424   7.097  20.902  0.00  0.00    +0.000 OA
ATOM      6  C   UNL     1       1.487   8.391  20.375  0.00  0.00    +0.000 A 
ATOM      7  C   UNL     1       2.003   8.634  19.158  0.00  0.00    +0.000 A 
ATOM      8  C   UNL     1       2.505   7.542  18.322  0.00  0.00    +0.000 A 
ATOM      9  O   UNL     1       3.019   7.765  17.231  0.00  0.00    +0.000 OA
ATOM     10  C   UNL     1       2.330   6.191  18.847  0.00  0.00    +0.000 A 
ATOM     11  C   UNL     1       2.689   5.089  18.066  0.00  0.00    +0.000 A 
ENDROOT
BRANCH   6  12
ATOM     12  N   UNL     1       0.955   9.395  21.186  0.00  0.00    +0.000 N 
ATOM     13  C   UNL     1       0.776   9.210  22.642  0.00  0.00    +0.000 C 
ATOM     14  C   UNL     1      -0.505   9.922  23.135  0.00  0.00    +0.000 C 
ATOM     15  N   UNL     1      -0.524  11.359  22.782  0.00  0.00    +0.000 NA
ATOM     16  C   UNL     1      -1.762  11.989  23.232  0.00  0.00    +0.000 C 
ATOM     17  C   UNL     1      -0.377  11.492  21.319  0.00  0.00    +0.000 C 
ATOM     18  C   UNL     1       0.910  10.821  20.795  0.00  0.00    +0.000 C 
ENDBRANCH   6  12
BRANCH   1  20
ATOM     19  C   UNL     1       3.511   1.664  18.608  0.00  0.00    +0.000 C 
ATOM     20  O   UNL     1       2.772   2.646  17.887  0.00  0.00    +0.000 OA
ENDBRANCH   1  20
TORSDOF 2
ENDMDL
MODEL 2
REMARK VINA RESULT:      -6.8      1.844      2.748
REMARK  Name = 
REMARK  4 active torsions:
REMARK  status: ('A' for Active; 'I' for Inactive)
REMARK    1  A    between atoms: C_1  and  O_2
REMARK    2  A    between atoms: O_2  and  C_3
REMARK    3  A    between atoms: C_8  and  N_9
REMARK    4  A    between atoms: N_12  and  C_13
REMARK                            x       y       z     vdW  Elec       q    Type
REMARK                         _______ _______ _______ _____ _____    ______ ____
ROOT
ATOM      1  C   UNL     1       4.570   4.795  17.004  0.00  0.00    +0.000 A 
ATOM      2  C   UNL     1       4.685   6.133  16.606  0.00  0.00    +0.000 A 
ATOM      3  C   UNL     1       3.982   7.144  17.275  0.00  0.00    +0.000 A 
ATOM      4  C   UNL     1       3.165   6.818  18.355  0.00  0.00    +0.000 A 
ATOM      5  O   UNL     1       2.501   7.834  18.992  0.00  0.00    +0.000 OA
ATOM      6  C   UNL     1       1.781   7.554  20.159  0.00  0.00    +0.000 A 
ATOM      7  C   UNL     1       1.623   6.298  20.607  0.00  0.00    +0.000 A 
ATOM      8  C   UNL     1       2.220   5.165  19.898  0.00  0.00    +0.000 A 
ATOM      9  O   UNL     1       2.039   4.013  20.279  0.00  0.00    +0.000 OA
ATOM     10  C   UNL     1       3.057   5.490  18.746  0.00  0.00    +0.000 A 
ATOM     11  C   UNL     1       3.745   4.474  18.078  0.00  0.00    +0.000 A 
ENDROOT
BRANCH   6  12
ATOM     12  N   UNL     1       1.269   8.668  20.828  0.00  0.00    +0.000 N 
ATOM     13  C   UNL     1       1.508   8.893  22.269  0.00  0.00    +0.000 C 
ATOM     14  C   UNL     1       0.272   9.534  22.940  0.00  0.00    +0.000 C 
ATOM     15  N   UNL     1      -0.145  10.788  22.275  0.00  0.00    +0.000 NA
ATOM     16  C   UNL     1      -1.335  11.345  22.914  0.00  0.00    +0.000 C 
ATOM     17  C   UNL     1      -0.406  10.507  20.850  0.00  0.00    +0.000 C 
ATOM     18  C   UNL     1       0.819   9.897  20.138  0.00  0.00    +0.000 C 
ENDBRANCH   6  12
BRANCH   1  20
ATOM     19  C   UNL     1       5.700   4.312  14.973  0.00  0.00    +0.000 C 
ATOM     20  O   UNL     1       5.312   3.901  16.281  0.00  0.00    +0.000 OA
ENDBRANCH   1  20
TORSDOF 2
ENDMDL
MODEL 3
REMARK VINA RESULT:      -6.8      2.615      7.134
REMARK  Name = 
REMARK  4 active torsions:
REMARK  status: ('A' for Active; 'I' for Inactive)
REMARK    1  A    between atoms: C_1  and  O_2
REMARK    2  A    between atoms: O_2  and  C_3
REMARK    3  A    between atoms: C_8  and  N_9
REMARK    4  A    between atoms: N_12  and  C_13
REMARK                            x       y       z     vdW  Elec       q    Type
REMARK                         _______ _______ _______ _____ _____    ______ ____
ROOT
ATOM      1  C   UNL     1       0.432  10.825  21.379  0.00  0.00    +0.000 A 
ATOM      2  C   UNL     1       0.465   9.771  22.301  0.00  0.00    +0.000 A 
ATOM      3  C   UNL     1       0.938   8.505  21.930  0.00  0.00    +0.000 A 
ATOM      4  C   UNL     1       1.391   8.292  20.630  0.00  0.00    +0.000 A 
ATOM      5  O   UNL     1       1.857   7.044  20.305  0.00  0.00    +0.000 OA
ATOM      6  C   UNL     1       2.440   6.838  19.050  0.00  0.00    +0.000 A 
ATOM      7  C   UNL     1       2.449   7.797  18.109  0.00  0.00    +0.000 A 
ATOM      8  C   UNL     1       1.863   9.113  18.369  0.00  0.00    +0.000 A 
ATOM      9  O   UNL     1       1.828   9.974  17.497  0.00  0.00    +0.000 OA
ATOM     10  C   UNL     1       1.358   9.341  19.721  0.00  0.00    +0.000 A 
ATOM     11  C   UNL     1       0.877  10.603  20.079  0.00  0.00    +0.000 A 
ENDROOT
BRANCH   6  12
ATOM     12  N   UNL     1       3.027   5.586  18.861  0.00  0.00    +0.000 N 
ATOM     13  C   UNL     1       3.446   5.111  17.525  0.00  0.00    +0.000 C 
ATOM     14  C   UNL     1       3.214   3.590  17.381  0.00  0.00    +0.000 C 
ATOM     15  N   UNL     1       3.882   2.812  18.448  0.00  0.00    +0.000 NA
ATOM     16  C   UNL     1       3.611   1.385  18.300  0.00  0.00    +0.000 C 
ATOM     17  C   UNL     1       3.407   3.297  19.759  0.00  0.00    +0.000 C 
ATOM     18  C   UNL     1       3.655   4.808  19.952  0.00  0.00    +0.000 C 
ENDBRANCH   6  12
BRANCH   1  20
ATOM     19  C   UNL     1      -1.113  11.937  22.796  0.00  0.00    +0.000 C 
ATOM     20  O   UNL     1      -0.040  12.014  21.861  0.00  0.00    +0.000 OA
ENDBRANCH   1  20
TORSDOF 2
ENDMDL
MODEL 4
REMARK VINA RESULT:      -6.7      2.565      7.088
REMARK  Name = 
REMARK  4 active torsions:
REMARK  status: ('A' for Active; 'I' for Inactive)
REMARK    1  A    between atoms: C_1  and  O_2
REMARK    2  A    between atoms: O_2  and  C_3
REMARK    3  A    between atoms: C_8  and  N_9
REMARK    4  A    between atoms: N_12  and  C_13
REMARK                            x       y       z     vdW  Elec       q    Type
REMARK                         _______ _______ _______ _____ _____    ______ ____
ROOT
ATOM      1  C   UNL     1       0.050  11.211  20.852  0.00  0.00    +0.000 A 
ATOM      2  C   UNL     1      -0.030  10.377  21.975  0.00  0.00    +0.000 A 
ATOM      3  C   UNL     1       0.476   9.071  21.937  0.00  0.00    +0.000 A 
ATOM      4  C   UNL     1       1.076   8.596  20.773  0.00  0.00    +0.000 A 
ATOM      5  O   UNL     1       1.570   7.317  20.777  0.00  0.00    +0.000 OA
ATOM      6  C   UNL     1       2.294   6.862  19.670  0.00  0.00    +0.000 A 
ATOM      7  C   UNL     1       2.418   7.600  18.554  0.00  0.00    +0.000 A 
ATOM      8  C   UNL     1       1.813   8.929  18.460  0.00  0.00    +0.000 A 
ATOM      9  O   UNL     1       1.885   9.586  17.426  0.00  0.00    +0.000 OA
ATOM     10  C   UNL     1       1.155   9.429  19.664  0.00  0.00    +0.000 A 
ATOM     11  C   UNL     1       0.642  10.729  19.689  0.00  0.00    +0.000 A 
ENDROOT
BRANCH   6  12
ATOM     12  N   UNL     1       2.893   5.610  19.820  0.00  0.00    +0.000 N 
ATOM     13  C   UNL     1       4.284   5.351  19.391  0.00  0.00    +0.000 C 
ATOM     14  C   UNL     1       4.430   3.919  18.828  0.00  0.00    +0.000 C 
ATOM     15  N   UNL     1       3.976   2.886  19.785  0.00  0.00    +0.000 NA
ATOM     16  C   UNL     1       4.095   1.551  19.205  0.00  0.00    +0.000 C 
ATOM     17  C   UNL     1       2.575   3.165  20.156  0.00  0.00    +0.000 C 
ATOM     18  C   UNL     1       2.396   4.576  20.755  0.00  0.00    +0.000 C 
ENDBRANCH   6  12
BRANCH   1  20
ATOM     19  C   UNL     1      -0.694  12.891  22.355  0.00  0.00    +0.000 C 
ATOM     20  O   UNL     1      -0.469  12.466  21.013  0.00  0.00    +0.000 OA
ENDBRANCH   1  20
TORSDOF 2
ENDMDL
MODEL 5
REMARK VINA RESULT:      -6.5      1.475      1.705
REMARK  Name = 
REMARK  4 active torsions:
REMARK  status: ('A' for Active; 'I' for Inactive)
REMARK    1  A    between atoms: C_1  and  O_2
REMARK    2  A    between atoms: O_2  and  C_3
REMARK    3  A    between atoms: C_8  and  N_9
REMARK    4  A    between atoms: N_12  and  C_13
REMARK                            x       y       z     vdW  Elec       q    Type
REMARK                         _______ _______ _______ _____ _____    ______ ____
ROOT
ATOM      1  C   UNL     1       3.301   3.375  19.620  0.00  0.00    +0.000 A 
ATOM      2  C   UNL     1       2.504   3.651  20.739  0.00  0.00    +0.000 A 
ATOM      3  C   UNL     1       1.991   4.937  20.956  0.00  0.00    +0.000 A 
ATOM      4  C   UNL     1       2.268   5.953  20.045  0.00  0.00    +0.000 A 
ATOM      5  O   UNL     1       1.740   7.196  20.284  0.00  0.00    +0.000 OA
ATOM      6  C   UNL     1       1.889   8.198  19.320  0.00  0.00    +0.000 A 
ATOM      7  C   UNL     1       2.637   8.014  18.219  0.00  0.00    +0.000 A 
ATOM      8  C   UNL     1       3.314   6.740  17.973  0.00  0.00    +0.000 A 
ATOM      9  O   UNL     1       4.035   6.584  16.993  0.00  0.00    +0.000 OA
ATOM     10  C   UNL     1       3.056   5.673  18.936  0.00  0.00    +0.000 A 
ATOM     11  C   UNL     1       3.581   4.396  18.718  0.00  0.00    +0.000 A 
ENDROOT
BRANCH   6  12
ATOM     12  N   UNL     1       1.190   9.380  19.572  0.00  0.00    +0.000 N 
ATOM     13  C   UNL     1       0.862   9.816  20.946  0.00  0.00    +0.000 C 
ATOM     14  C   UNL     1      -0.519  10.509  20.990  0.00  0.00    +0.000 C 
ATOM     15  N   UNL     1      -0.614  11.642  20.043  0.00  0.00    +0.000 NA
ATOM     16  C   UNL     1      -1.941  12.248  20.087  0.00  0.00    +0.000 C 
ATOM     17  C   UNL     1      -0.313  11.152  18.684  0.00  0.00    +0.000 C 
ATOM     18  C   UNL     1       1.075  10.484  18.594  0.00  0.00    +0.000 C 
ENDBRANCH   6  12
BRANCH   1  20
ATOM     19  C   UNL     1       3.574   1.467  18.236  0.00  0.00    +0.000 C 
ATOM     20  O   UNL     1       3.735   2.082  19.511  0.00  0.00    +0.000 OA
ENDBRANCH   1  20
TORSDOF 2
ENDMDL
MODEL 6
REMARK VINA RESULT:      -6.5      1.140      1.597
REMARK  Name = 
REMARK  4 active torsions:
REMARK  status: ('A' for Active; 'I' for Inactive)
REMARK    1  A    between atoms: C_1  and  O_2
REMARK    2  A    between atoms: O_2  and  C_3
REMARK    3  A    between atoms: C_8  and  N_9
REMARK    4  A    between atoms: N_12  and  C_13
REMARK                            x       y       z     vdW  Elec       q    Type
REMARK                         _______ _______ _______ _____ _____    ______ ____
ROOT
ATOM      1  C   UNL     1       3.372   3.276  19.622  0.00  0.00    +0.000 A 
ATOM      2  C   UNL     1       2.584   3.356  20.778  0.00  0.00    +0.000 A 
ATOM      3  C   UNL     1       1.985   4.564  21.157  0.00  0.00    +0.000 A 
ATOM      4  C   UNL     1       2.165   5.700  20.371  0.00  0.00    +0.000 A 
ATOM      5  O   UNL     1       1.554   6.862  20.766  0.00  0.00    +0.000 OA
ATOM      6  C   UNL     1       1.608   7.981  19.928  0.00  0.00    +0.000 A 
ATOM      7  C   UNL     1       2.340   7.986  18.801  0.00  0.00    +0.000 A 
ATOM      8  C   UNL     1       3.102   6.805  18.393  0.00  0.00    +0.000 A 
ATOM      9  O   UNL     1       3.808   6.821  17.391  0.00  0.00    +0.000 OA
ATOM     10  C   UNL     1       2.945   5.614  19.225  0.00  0.00    +0.000 A 
ATOM     11  C   UNL     1       3.556   4.416  18.846  0.00  0.00    +0.000 A 
ENDROOT
BRANCH   6  12
ATOM     12  N   UNL     1       0.830   9.069  20.331  0.00  0.00    +0.000 N 
ATOM     13  C   UNL     1       0.635  10.254  19.469  0.00  0.00    +0.000 C 
ATOM     14  C   UNL     1       0.572  11.547  20.314  0.00  0.00    +0.000 C 
ATOM     15  N   UNL     1      -0.468  11.485  21.364  0.00  0.00    +0.000 NA
ATOM     16  C   UNL     1      -0.473  12.708  22.163  0.00  0.00    +0.000 C 
ATOM     17  C   UNL     1      -0.212  10.309  22.219  0.00  0.00    +0.000 C 
ATOM     18  C   UNL     1      -0.176   8.994  21.413  0.00  0.00    +0.000 C 
ENDBRANCH   6  12
BRANCH   1  20
ATOM     19  C   UNL     1       3.553   1.472  18.091  0.00  0.00    +0.000 C 
ATOM     20  O   UNL     1       3.895   2.041  19.351  0.00  0.00    +0.000 OA
ENDBRANCH   1  20
TORSDOF 2
ENDMDL
MODEL 7
REMARK VINA RESULT:      -6.5      2.597      6.997
REMARK  Name = 
REMARK  4 active torsions:
REMARK  status: ('A' for Active; 'I' for Inactive)
REMARK    1  A    between atoms: C_1  and  O_2
REMARK    2  A    between atoms: O_2  and  C_3
REMARK    3  A    between atoms: C_8  and  N_9
REMARK    4  A    between atoms: N_12  and  C_13
REMARK                            x       y       z     vdW  Elec       q    Type
REMARK                         _______ _______ _______ _____ _____    ______ ____
ROOT
ATOM      1  C   UNL     1       0.306  11.015  21.107  0.00  0.00    +0.000 A 
ATOM      2  C   UNL     1       0.207  10.052  22.119  0.00  0.00    +0.000 A 
ATOM      3  C   UNL     1       0.637   8.736  21.903  0.00  0.00    +0.000 A 
ATOM      4  C   UNL     1       1.178   8.380  20.670  0.00  0.00    +0.000 A 
ATOM      5  O   UNL     1       1.598   7.087  20.499  0.00  0.00    +0.000 OA
ATOM      6  C   UNL     1       2.267   6.736  19.320  0.00  0.00    +0.000 A 
ATOM      7  C   UNL     1       2.404   7.601  18.302  0.00  0.00    +0.000 A 
ATOM      8  C   UNL     1       1.873   8.962  18.393  0.00  0.00    +0.000 A 
ATOM      9  O   UNL     1       1.955   9.739  17.448  0.00  0.00    +0.000 OA
ATOM     10  C   UNL     1       1.276   9.340  19.671  0.00  0.00    +0.000 A 
ATOM     11  C   UNL     1       0.839  10.652  19.874  0.00  0.00    +0.000 A 
ENDROOT
BRANCH   6  12
ATOM     12  N   UNL     1       2.796   5.445  19.295  0.00  0.00    +0.000 N 
ATOM     13  C   UNL     1       1.975   4.256  19.609  0.00  0.00    +0.000 C 
ATOM     14  C   UNL     1       2.809   3.192  20.360  0.00  0.00    +0.000 C 
ATOM     15  N   UNL     1       4.030   2.805  19.619  0.00  0.00    +0.000 NA
ATOM     16  C   UNL     1       4.809   1.828  20.374  0.00  0.00    +0.000 C 
ATOM     17  C   UNL     1       4.832   4.017  19.359  0.00  0.00    +0.000 C 
ATOM     18  C   UNL     1       4.042   5.089  18.580  0.00  0.00    +0.000 C 
ENDBRANCH   6  12
BRANCH   1  20
ATOM     19  C   UNL     1      -0.861  12.377  22.662  0.00  0.00    +0.000 C 
ATOM     20  O   UNL     1      -0.137  12.266  21.440  0.00  0.00    +0.000 OA
ENDBRANCH   1  20
TORSDOF 2
ENDMDL
MODEL 8
REMARK VINA RESULT:      -6.5      2.300      3.340
REMARK  Name = 
REMARK  4 active torsions:
REMARK  status: ('A' for Active; 'I' for Inactive)
REMARK    1  A    between atoms: C_1  and  O_2
REMARK    2  A    between atoms: O_2  and  C_3
REMARK    3  A    between atoms: C_8  and  N_9
REMARK    4  A    between atoms: N_12  and  C_13
REMARK                            x       y       z     vdW  Elec       q    Type
REMARK                         _______ _______ _______ _____ _____    ______ ____
ROOT
ATOM      1  C   UNL     1       5.332   4.550  16.291  0.00  0.00    +0.000 A 
ATOM      2  C   UNL     1       5.379   5.882  15.860  0.00  0.00    +0.000 A 
ATOM      3  C   UNL     1       4.598   6.866  16.479  0.00  0.00    +0.000 A 
ATOM      4  C   UNL     1       3.769   6.520  17.543  0.00  0.00    +0.000 A 
ATOM      5  O   UNL     1       3.026   7.512  18.132  0.00  0.00    +0.000 OA
ATOM      6  C   UNL     1       2.289   7.220  19.284  0.00  0.00    +0.000 A 
ATOM      7  C   UNL     1       2.192   5.968  19.764  0.00  0.00    +0.000 A 
ATOM      8  C   UNL     1       2.877   4.855  19.105  0.00  0.00    +0.000 A 
ATOM      9  O   UNL     1       2.753   3.705  19.512  0.00  0.00    +0.000 OA
ATOM     10  C   UNL     1       3.728   5.199  17.968  0.00  0.00    +0.000 A 
ATOM     11  C   UNL     1       4.495   4.209  17.349  0.00  0.00    +0.000 A 
ENDROOT
BRANCH   6  12
ATOM     12  N   UNL     1       1.691   8.318  19.906  0.00  0.00    +0.000 N 
ATOM     13  C   UNL     1       1.483   8.371  21.369  0.00  0.00    +0.000 C 
ATOM     14  C   UNL     1       0.159   9.092  21.712  0.00  0.00    +0.000 C 
ATOM     15  N   UNL     1       0.083  10.446  21.121  0.00  0.00    +0.000 NA
ATOM     16  C   UNL     1      -1.194  11.080  21.437  0.00  0.00    +0.000 C 
ATOM     17  C   UNL     1       0.261  10.339  19.660  0.00  0.00    +0.000 C 
ATOM     18  C   UNL     1       1.590   9.654  19.279  0.00  0.00    +0.000 C 
ENDBRANCH   6  12
BRANCH   1  20
ATOM     19  C   UNL     1       6.302   3.918  14.219  0.00  0.00    +0.000 C 
ATOM     20  O   UNL     1       6.148   3.683  15.617  0.00  0.00    +0.000 OA
ENDBRANCH   1  20
TORSDOF 2
ENDMDL
MODEL 9
REMARK VINA RESULT:      -6.4      2.343      3.489
REMARK  Name = 
REMARK  4 active torsions:
REMARK  status: ('A' for Active; 'I' for Inactive)
REMARK    1  A    between atoms: C_1  and  O_2
REMARK    2  A    between atoms: O_2  and  C_3
REMARK    3  A    between atoms: C_8  and  N_9
REMARK    4  A    between atoms: N_12  and  C_13
REMARK                            x       y       z     vdW  Elec       q    Type
REMARK                         _______ _______ _______ _____ _____    ______ ____
ROOT
ATOM      1  C   UNL     1       5.521   4.851  16.718  0.00  0.00    +0.000 A 
ATOM      2  C   UNL     1       5.402   6.086  16.067  0.00  0.00    +0.000 A 
ATOM      3  C   UNL     1       4.506   7.059  16.530  0.00  0.00    +0.000 A 
ATOM      4  C   UNL     1       3.728   6.800  17.656  0.00  0.00    +0.000 A 
ATOM      5  O   UNL     1       2.870   7.779  18.087  0.00  0.00    +0.000 OA
ATOM      6  C   UNL     1       2.177   7.599  19.289  0.00  0.00    +0.000 A 
ATOM      7  C   UNL     1       2.237   6.445  19.974  0.00  0.00    +0.000 A 
ATOM      8  C   UNL     1       3.053   5.328  19.496  0.00  0.00    +0.000 A 
ATOM      9  O   UNL     1       3.073   4.257  20.094  0.00  0.00    +0.000 OA
ATOM     10  C   UNL     1       3.852   5.575  18.298  0.00  0.00    +0.000 A 
ATOM     11  C   UNL     1       4.735   4.595  17.837  0.00  0.00    +0.000 A 
ENDROOT
BRANCH   6  12
ATOM     12  N   UNL     1       1.449   8.706  19.731  0.00  0.00    +0.000 N 
ATOM     13  C   UNL     1       0.900   9.707  18.791  0.00  0.00    +0.000 C 
ATOM     14  C   UNL     1       0.960  11.126  19.400  0.00  0.00    +0.000 C 
ATOM     15  N   UNL     1       0.279  11.208  20.711  0.00  0.00    +0.000 NA
ATOM     16  C   UNL     1       0.387  12.552  21.271  0.00  0.00    +0.000 C 
ATOM     17  C   UNL     1       0.882  10.217  21.624  0.00  0.00    +0.000 C 
ATOM     18  C   UNL     1       0.810   8.781  21.063  0.00  0.00    +0.000 C 
ENDBRANCH   6  12
BRANCH   1  20
ATOM     19  C   UNL     1       6.487   3.926  14.756  0.00  0.00    +0.000 C 
ATOM     20  O   UNL     1       6.436   3.988  16.179  0.00  0.00    +0.000 OA
ENDBRANCH   1  20
TORSDOF 2
ENDMDL
