MODEL 1
REMARK VINA RESULT:      -7.6      0.000      0.000
REMARK  Name = 
REMARK  7 active torsions:
REMARK  status: ('A' for Active; 'I' for Inactive)
REMARK    1  A    between atoms: C_1  and  O_2
REMARK    2  A    between atoms: O_2  and  C_3
REMARK    3  A    between atoms: C_6  and  N_7
REMARK    4  A    between atoms: C_8  and  C_10
REMARK    5  A    between atoms: C_12  and  C_13
REMARK    6  A    between atoms: C_19  and  C_21
REMARK    7  A    between atoms: C_26  and  C_27
REMARK                            x       y       z     vdW  Elec       q    Type
REMARK                         _______ _______ _______ _____ _____    ______ ____
ROOT
ATOM      1  C   UNL     1       1.970   8.135  18.780  0.00  0.00    +0.000 A 
ATOM      2  C   UNL     1       2.078   7.073  17.850  0.00  0.00    +0.000 A 
ATOM      3  C   UNL     1       2.275   5.956  18.620  0.00  0.00    +0.000 A 
ATOM      4  O   UNL     1       2.248   6.317  19.937  0.00  0.00    +0.000 OA
ATOM      5  N   UNL     1       2.028   7.685  20.044  0.00  0.00    +0.000 NA
ENDROOT
BRANCH   3   6
ATOM      6  C   UNL     1       2.485   4.521  18.283  0.00  0.00    +0.000 C 
ATOM      7  C   UNL     1       1.832   3.605  19.339  0.00  0.00    +0.000 C 
ATOM      8  C   UNL     1       1.993   2.122  19.012  0.00  0.00    +0.000 C 
ATOM      9  C   UNL     1       3.448   1.787  18.708  0.00  0.00    +0.000 C 
ATOM     10  C   UNL     1       3.979   2.692  17.605  0.00  0.00    +0.000 C 
ATOM     11  N   UNL     1       3.885   4.098  18.011  0.00  0.00    +0.000 N 
ATOM     12  C   UNL     1       4.991   4.943  18.152  0.00  0.00    +0.000 C 
ATOM     13  O   UNL     1       4.919   6.138  18.411  0.00  0.00    +0.000 OA
BRANCH  12  14
ATOM     14  C   UNL     1       6.370   4.358  18.032  0.00  0.00    +0.000 C 
ATOM     15  C   UNL     1       7.205   4.573  16.786  0.00  0.00    +0.000 C 
ATOM     16  C   UNL     1       7.547   5.311  18.045  0.00  0.00    +0.000 C 
ENDBRANCH  12  14
ENDBRANCH   3   6
BRANCH   1  18
ATOM     17  N   UNL     1       1.053  10.285  19.325  0.00  0.00    +0.000 N 
ATOM     18  C   UNL     1       1.802   9.542  18.427  0.00  0.00    +0.000 C 
ATOM     19  O   UNL     1       2.268   9.956  17.368  0.00  0.00    +0.000 OA
ATOM     20  H   UNL     1       0.619   9.750  20.074  0.00  0.00    +0.000 HD
BRANCH  17  24
ATOM     21  C   UNL     1       0.262  14.427  18.922  0.00  0.00    +0.000 A 
ATOM     22  C   UNL     1       1.443  13.990  19.499  0.00  0.00    +0.000 A 
ATOM     23  C   UNL     1       1.679  12.623  19.647  0.00  0.00    +0.000 A 
ATOM     24  C   UNL     1       0.760  11.662  19.204  0.00  0.00    +0.000 A 
ATOM     25  C   UNL     1      -0.456  12.099  18.646  0.00  0.00    +0.000 A 
ATOM     26  C   UNL     1      -1.528  11.172  18.141  0.00  0.00    +0.000 C 
ATOM     27  C   UNL     1      -0.696  13.487  18.537  0.00  0.00    +0.000 A 
BRANCH  21  29
ATOM     28  C   UNL     1       1.049  16.633  18.676  0.00  0.00    +0.000 C 
ATOM     29  O   UNL     1      -0.062  15.739  18.707  0.00  0.00    +0.000 OA
ENDBRANCH  21  29
ENDBRANCH  17  24
ENDBRANCH   1  18
TORSDOF 5
ENDMDL
MODEL 2
REMARK VINA RESULT:      -7.5      2.795      4.120
REMARK  Name = 
REMARK  7 active torsions:
REMARK  status: ('A' for Active; 'I' for Inactive)
REMARK    1  A    between atoms: C_1  and  O_2
REMARK    2  A    between atoms: O_2  and  C_3
REMARK    3  A    between atoms: C_6  and  N_7
REMARK    4  A    between atoms: C_8  and  C_10
REMARK    5  A    between atoms: C_12  and  C_13
REMARK    6  A    between atoms: C_19  and  C_21
REMARK    7  A    between atoms: C_26  and  C_27
REMARK                            x       y       z     vdW  Elec       q    Type
REMARK                         _______ _______ _______ _____ _____    ______ ____
ROOT
ATOM      1  C   UNL     1       1.603   8.968  18.521  0.00  0.00    +0.000 A 
ATOM      2  C   UNL     1       2.422   7.970  19.103  0.00  0.00    +0.000 A 
ATOM      3  C   UNL     1       3.176   7.490  18.065  0.00  0.00    +0.000 A 
ATOM      4  O   UNL     1       2.860   8.183  16.931  0.00  0.00    +0.000 OA
ATOM      5  N   UNL     1       1.890   9.135  17.219  0.00  0.00    +0.000 NA
ENDROOT
BRANCH   3   6
ATOM      6  C   UNL     1       4.215   6.426  17.978  0.00  0.00    +0.000 C 
ATOM      7  C   UNL     1       5.125   6.642  16.751  0.00  0.00    +0.000 C 
ATOM      8  C   UNL     1       6.228   5.592  16.645  0.00  0.00    +0.000 C 
ATOM      9  C   UNL     1       5.653   4.185  16.756  0.00  0.00    +0.000 C 
ATOM     10  C   UNL     1       4.833   4.049  18.031  0.00  0.00    +0.000 C 
ATOM     11  N   UNL     1       3.734   5.019  18.037  0.00  0.00    +0.000 N 
ATOM     12  C   UNL     1       2.381   4.663  18.068  0.00  0.00    +0.000 C 
ATOM     13  O   UNL     1       1.458   5.463  18.155  0.00  0.00    +0.000 OA
BRANCH  12  14
ATOM     14  C   UNL     1       2.011   3.212  17.938  0.00  0.00    +0.000 C 
ATOM     15  C   UNL     1       2.076   2.279  19.129  0.00  0.00    +0.000 C 
ATOM     16  C   UNL     1       0.744   2.741  18.620  0.00  0.00    +0.000 C 
ENDBRANCH  12  14
ENDBRANCH   3   6
BRANCH   1  18
ATOM     17  N   UNL     1       0.988  10.252  20.452  0.00  0.00    +0.000 N 
ATOM     18  C   UNL     1       0.585   9.735  19.232  0.00  0.00    +0.000 C 
ATOM     19  O   UNL     1      -0.544   9.825  18.753  0.00  0.00    +0.000 OA
ATOM     20  H   UNL     1       1.910   9.958  20.764  0.00  0.00    +0.000 HD
BRANCH  17  24
ATOM     21  C   UNL     1      -1.459  12.629  22.965  0.00  0.00    +0.000 A 
ATOM     22  C   UNL     1      -0.717  13.212  21.950  0.00  0.00    +0.000 A 
ATOM     23  C   UNL     1       0.102  12.420  21.146  0.00  0.00    +0.000 A 
ATOM     24  C   UNL     1       0.185  11.032  21.316  0.00  0.00    +0.000 A 
ATOM     25  C   UNL     1      -0.540  10.436  22.365  0.00  0.00    +0.000 A 
ATOM     26  C   UNL     1      -0.531   8.961  22.660  0.00  0.00    +0.000 C 
ATOM     27  C   UNL     1      -1.337  11.257  23.194  0.00  0.00    +0.000 A 
BRANCH  21  29
ATOM     28  C   UNL     1      -3.606  12.725  23.927  0.00  0.00    +0.000 C 
ATOM     29  O   UNL     1      -2.310  13.306  23.795  0.00  0.00    +0.000 OA
ENDBRANCH  21  29
ENDBRANCH  17  24
ENDBRANCH   1  18
TORSDOF 5
ENDMDL
MODEL 3
REMARK VINA RESULT:      -7.4      2.611      9.222
REMARK  Name = 
REMARK  7 active torsions:
REMARK  status: ('A' for Active; 'I' for Inactive)
REMARK    1  A    between atoms: C_1  and  O_2
REMARK    2  A    between atoms: O_2  and  C_3
REMARK    3  A    between atoms: C_6  and  N_7
REMARK    4  A    between atoms: C_8  and  C_10
REMARK    5  A    between atoms: C_12  and  C_13
REMARK    6  A    between atoms: C_19  and  C_21
REMARK    7  A    between atoms: C_26  and  C_27
REMARK                            x       y       z     vdW  Elec       q    Type
REMARK                         _______ _______ _______ _____ _____    ______ ____
ROOT
ATOM      1  C   UNL     1       1.505   8.847  19.323  0.00  0.00    +0.000 A 
ATOM      2  C   UNL     1       1.050  10.185  19.243  0.00  0.00    +0.000 A 
ATOM      3  C   UNL     1       0.304  10.368  20.378  0.00  0.00    +0.000 A 
ATOM      4  O   UNL     1       0.340   9.221  21.119  0.00  0.00    +0.000 OA
ATOM      5  N   UNL     1       1.117   8.269  20.472  0.00  0.00    +0.000 NA
ENDROOT
BRANCH   3   6
ATOM      6  C   UNL     1      -0.468  11.527  20.904  0.00  0.00    +0.000 C 
ATOM      7  C   UNL     1      -0.816  11.329  22.394  0.00  0.00    +0.000 C 
ATOM      8  C   UNL     1      -1.578  12.514  22.983  0.00  0.00    +0.000 C 
ATOM      9  C   UNL     1      -2.770  12.883  22.108  0.00  0.00    +0.000 C 
ATOM     10  C   UNL     1      -2.317  13.129  20.675  0.00  0.00    +0.000 C 
ATOM     11  N   UNL     1      -1.674  11.930  20.131  0.00  0.00    +0.000 N 
ATOM     12  C   UNL     1      -2.154  11.225  19.021  0.00  0.00    +0.000 C 
ATOM     13  O   UNL     1      -1.583  10.272  18.508  0.00  0.00    +0.000 OA
BRANCH  12  14
ATOM     14  C   UNL     1      -3.482  11.616  18.434  0.00  0.00    +0.000 C 
ATOM     15  C   UNL     1      -3.772  11.423  16.960  0.00  0.00    +0.000 C 
ATOM     16  C   UNL     1      -4.402  10.507  17.966  0.00  0.00    +0.000 C 
ENDBRANCH  12  14
ENDBRANCH   3   6
BRANCH   1  18
ATOM     17  N   UNL     1       2.873   6.974  18.706  0.00  0.00    +0.000 N 
ATOM     18  C   UNL     1       2.304   8.172  18.304  0.00  0.00    +0.000 C 
ATOM     19  O   UNL     1       2.466   8.711  17.212  0.00  0.00    +0.000 OA
ATOM     20  H   UNL     1       2.756   6.748  19.691  0.00  0.00    +0.000 HD
BRANCH  17  24
ATOM     21  C   UNL     1       5.360   4.489  16.343  0.00  0.00    +0.000 A 
ATOM     22  C   UNL     1       5.758   5.776  16.669  0.00  0.00    +0.000 A 
ATOM     23  C   UNL     1       4.918   6.591  17.427  0.00  0.00    +0.000 A 
ATOM     24  C   UNL     1       3.678   6.139  17.899  0.00  0.00    +0.000 A 
ATOM     25  C   UNL     1       3.253   4.844  17.546  0.00  0.00    +0.000 A 
ATOM     26  C   UNL     1       1.943   4.244  17.978  0.00  0.00    +0.000 C 
ATOM     27  C   UNL     1       4.099   4.044  16.746  0.00  0.00    +0.000 A 
BRANCH  21  29
ATOM     28  C   UNL     1       6.238   3.901  14.239  0.00  0.00    +0.000 C 
ATOM     29  O   UNL     1       6.112   3.598  15.627  0.00  0.00    +0.000 OA
ENDBRANCH  21  29
ENDBRANCH  17  24
ENDBRANCH   1  18
TORSDOF 5
ENDMDL
MODEL 4
REMARK VINA RESULT:      -7.3      2.331      2.727
REMARK  Name = 
REMARK  7 active torsions:
REMARK  status: ('A' for Active; 'I' for Inactive)
REMARK    1  A    between atoms: C_1  and  O_2
REMARK    2  A    between atoms: O_2  and  C_3
REMARK    3  A    between atoms: C_6  and  N_7
REMARK    4  A    between atoms: C_8  and  C_10
REMARK    5  A    between atoms: C_12  and  C_13
REMARK    6  A    between atoms: C_19  and  C_21
REMARK    7  A    between atoms: C_26  and  C_27
REMARK                            x       y       z     vdW  Elec       q    Type
REMARK                         _______ _______ _______ _____ _____    ______ ____
ROOT
ATOM      1  C   UNL     1       1.772   7.945  19.845  0.00  0.00    +0.000 A 
ATOM      2  C   UNL     1       1.892   6.544  20.011  0.00  0.00    +0.000 A 
ATOM      3  C   UNL     1       2.267   6.079  18.778  0.00  0.00    +0.000 A 
ATOM      4  O   UNL     1       2.405   7.139  17.928  0.00  0.00    +0.000 OA
ATOM      5  N   UNL     1       2.121   8.320  18.603  0.00  0.00    +0.000 NA
ENDROOT
BRANCH   3   6
ATOM      6  C   UNL     1       2.543   4.711  18.256  0.00  0.00    +0.000 C 
ATOM      7  C   UNL     1       1.760   3.647  19.054  0.00  0.00    +0.000 C 
ATOM      8  C   UNL     1       1.987   2.233  18.527  0.00  0.00    +0.000 C 
ATOM      9  C   UNL     1       3.475   1.937  18.384  0.00  0.00    +0.000 C 
ATOM     10  C   UNL     1       4.144   2.998  17.523  0.00  0.00    +0.000 C 
ATOM     11  N   UNL     1       3.973   4.324  18.124  0.00  0.00    +0.000 N 
ATOM     12  C   UNL     1       5.036   5.129  18.550  0.00  0.00    +0.000 C 
ATOM     13  O   UNL     1       4.912   6.269  18.978  0.00  0.00    +0.000 OA
BRANCH  12  14
ATOM     14  C   UNL     1       6.426   4.557  18.538  0.00  0.00    +0.000 C 
ATOM     15  C   UNL     1       7.350   4.775  17.357  0.00  0.00    +0.000 C 
ATOM     16  C   UNL     1       7.589   5.523  18.634  0.00  0.00    +0.000 C 
ENDBRANCH  12  14
ENDBRANCH   3   6
BRANCH   1  18
ATOM     17  N   UNL     1       0.577   9.942  20.430  0.00  0.00    +0.000 N 
ATOM     18  C   UNL     1       1.340   8.877  20.882  0.00  0.00    +0.000 C 
ATOM     19  O   UNL     1       1.712   8.702  22.040  0.00  0.00    +0.000 OA
ATOM     20  H   UNL     1       0.487  10.012  19.420  0.00  0.00    +0.000 HD
BRANCH  17  24
ATOM     21  C   UNL     1      -1.012  12.961  22.943  0.00  0.00    +0.000 A 
ATOM     22  C   UNL     1      -1.395  11.639  23.103  0.00  0.00    +0.000 A 
ATOM     23  C   UNL     1      -0.882  10.659  22.253  0.00  0.00    +0.000 A 
ATOM     24  C   UNL     1       0.039  10.966  21.243  0.00  0.00    +0.000 A 
ATOM     25  C   UNL     1       0.410  12.311  21.053  0.00  0.00    +0.000 A 
ATOM     26  C   UNL     1       1.380  12.774  20.001  0.00  0.00    +0.000 C 
ATOM     27  C   UNL     1      -0.147  13.296  21.898  0.00  0.00    +0.000 A 
BRANCH  21  29
ATOM     28  C   UNL     1      -0.740  15.226  23.528  0.00  0.00    +0.000 C 
ATOM     29  O   UNL     1      -1.433  13.996  23.732  0.00  0.00    +0.000 OA
ENDBRANCH  21  29
ENDBRANCH  17  24
ENDBRANCH   1  18
TORSDOF 5
ENDMDL
MODEL 5
REMARK VINA RESULT:      -7.3      5.588      7.444
REMARK  Name = 
REMARK  7 active torsions:
REMARK  status: ('A' for Active; 'I' for Inactive)
REMARK    1  A    between atoms: C_1  and  O_2
REMARK    2  A    between atoms: O_2  and  C_3
REMARK    3  A    between atoms: C_6  and  N_7
REMARK    4  A    between atoms: C_8  and  C_10
REMARK    5  A    between atoms: C_12  and  C_13
REMARK    6  A    between atoms: C_19  and  C_21
REMARK    7  A    between atoms: C_26  and  C_27
REMARK                            x       y       z     vdW  Elec       q    Type
REMARK                         _______ _______ _______ _____ _____    ______ ____
ROOT
ATOM      1  C   UNL     1       8.200   8.274  18.178  0.00  0.00    +0.000 A 
ATOM      2  C   UNL     1       7.518   7.708  17.074  0.00  0.00    +0.000 A 
ATOM      3  C   UNL     1       7.426   6.373  17.371  0.00  0.00    +0.000 A 
ATOM      4  O   UNL     1       7.984   6.154  18.598  0.00  0.00    +0.000 OA
ATOM      5  N   UNL     1       8.448   7.353  19.123  0.00  0.00    +0.000 NA
ENDROOT
BRANCH   3   6
ATOM      6  C   UNL     1       6.849   5.213  16.637  0.00  0.00    +0.000 C 
ATOM      7  C   UNL     1       7.097   5.341  15.119  0.00  0.00    +0.000 C 
ATOM      8  C   UNL     1       6.552   4.152  14.332  0.00  0.00    +0.000 C 
ATOM      9  C   UNL     1       5.102   3.870  14.706  0.00  0.00    +0.000 C 
ATOM     10  C   UNL     1       4.972   3.686  16.211  0.00  0.00    +0.000 C 
ATOM     11  N   UNL     1       5.424   4.892  16.912  0.00  0.00    +0.000 N 
ATOM     12  C   UNL     1       4.598   5.671  17.732  0.00  0.00    +0.000 C 
ATOM     13  O   UNL     1       4.983   6.632  18.386  0.00  0.00    +0.000 OA
BRANCH  12  14
ATOM     14  C   UNL     1       3.130   5.356  17.789  0.00  0.00    +0.000 C 
ATOM     15  C   UNL     1       2.567   4.439  18.855  0.00  0.00    +0.000 C 
ATOM     16  C   UNL     1       2.330   5.916  18.947  0.00  0.00    +0.000 C 
ENDBRANCH  12  14
ENDBRANCH   3   6
BRANCH   1  18
ATOM     17  N   UNL     1       9.635   9.930  19.158  0.00  0.00    +0.000 N 
ATOM     18  C   UNL     1       8.580   9.679  18.295  0.00  0.00    +0.000 C 
ATOM     19  O   UNL     1       7.931  10.530  17.691  0.00  0.00    +0.000 OA
ATOM     20  H   UNL     1       9.961   9.125  19.688  0.00  0.00    +0.000 HD
BRANCH  17  24
ATOM     21  C   UNL     1      11.263  13.773  19.883  0.00  0.00    +0.000 A 
ATOM     22  C   UNL     1      11.662  13.038  18.778  0.00  0.00    +0.000 A 
ATOM     23  C   UNL     1      11.135  11.765  18.565  0.00  0.00    +0.000 A 
ATOM     24  C   UNL     1      10.185  11.203  19.430  0.00  0.00    +0.000 A 
ATOM     25  C   UNL     1       9.799  11.930  20.572  0.00  0.00    +0.000 A 
ATOM     26  C   UNL     1       8.798  11.439  21.581  0.00  0.00    +0.000 C 
ATOM     27  C   UNL     1      10.370  13.203  20.793  0.00  0.00    +0.000 A 
BRANCH  21  29
ATOM     28  C   UNL     1      11.222  16.053  19.294  0.00  0.00    +0.000 C 
ATOM     29  O   UNL     1      11.697  15.037  20.176  0.00  0.00    +0.000 OA
ENDBRANCH  21  29
ENDBRANCH  17  24
ENDBRANCH   1  18
TORSDOF 5
ENDMDL
MODEL 6
REMARK VINA RESULT:      -7.3      1.649      3.263
REMARK  Name = 
REMARK  7 active torsions:
REMARK  status: ('A' for Active; 'I' for Inactive)
REMARK    1  A    between atoms: C_1  and  O_2
REMARK    2  A    between atoms: O_2  and  C_3
REMARK    3  A    between atoms: C_6  and  N_7
REMARK    4  A    between atoms: C_8  and  C_10
REMARK    5  A    between atoms: C_12  and  C_13
REMARK    6  A    between atoms: C_19  and  C_21
REMARK    7  A    between atoms: C_26  and  C_27
REMARK                            x       y       z     vdW  Elec       q    Type
REMARK                         _______ _______ _______ _____ _____    ______ ____
ROOT
ATOM      1  C   UNL     1       1.687   8.728  18.845  0.00  0.00    +0.000 A 
ATOM      2  C   UNL     1       2.439   8.189  17.774  0.00  0.00    +0.000 A 
ATOM      3  C   UNL     1       3.154   7.162  18.333  0.00  0.00    +0.000 A 
ATOM      4  O   UNL     1       2.823   7.061  19.654  0.00  0.00    +0.000 OA
ATOM      5  N   UNL     1       1.879   8.028  19.976  0.00  0.00    +0.000 NA
ENDROOT
BRANCH   3   6
ATOM      6  C   UNL     1       4.146   6.201  17.775  0.00  0.00    +0.000 C 
ATOM      7  C   UNL     1       4.654   6.671  16.396  0.00  0.00    +0.000 C 
ATOM      8  C   UNL     1       5.702   5.732  15.805  0.00  0.00    +0.000 C 
ATOM      9  C   UNL     1       5.217   4.287  15.832  0.00  0.00    +0.000 C 
ATOM     10  C   UNL     1       4.808   3.895  17.245  0.00  0.00    +0.000 C 
ATOM     11  N   UNL     1       3.737   4.772  17.727  0.00  0.00    +0.000 N 
ATOM     12  C   UNL     1       2.460   4.320  18.080  0.00  0.00    +0.000 C 
ATOM     13  O   UNL     1       1.584   5.028  18.560  0.00  0.00    +0.000 OA
BRANCH  12  14
ATOM     14  C   UNL     1       2.101   2.885  17.815  0.00  0.00    +0.000 C 
ATOM     15  C   UNL     1       2.363   1.810  18.850  0.00  0.00    +0.000 C 
ATOM     16  C   UNL     1       0.961   2.282  18.609  0.00  0.00    +0.000 C 
ENDBRANCH  12  14
ENDBRANCH   3   6
BRANCH   1  18
ATOM     17  N   UNL     1       1.080  10.909  19.639  0.00  0.00    +0.000 N 
ATOM     18  C   UNL     1       0.803   9.885  18.748  0.00  0.00    +0.000 C 
ATOM     19  O   UNL     1      -0.134   9.861  17.953  0.00  0.00    +0.000 OA
ATOM     20  H   UNL     1       1.800  10.702  20.327  0.00  0.00    +0.000 HD
BRANCH  17  24
ATOM     21  C   UNL     1      -1.045  14.556  20.009  0.00  0.00    +0.000 A 
ATOM     22  C   UNL     1      -1.490  13.414  20.656  0.00  0.00    +0.000 A 
ATOM     23  C   UNL     1      -0.793  12.215  20.506  0.00  0.00    +0.000 A 
ATOM     24  C   UNL     1       0.371  12.129  19.731  0.00  0.00    +0.000 A 
ATOM     25  C   UNL     1       0.811  13.276  19.044  0.00  0.00    +0.000 A 
ATOM     26  C   UNL     1       2.038  13.315  18.174  0.00  0.00    +0.000 C 
ATOM     27  C   UNL     1       0.074  14.474  19.177  0.00  0.00    +0.000 A 
BRANCH  21  29
ATOM     28  C   UNL     1      -2.638  15.893  21.114  0.00  0.00    +0.000 C 
ATOM     29  O   UNL     1      -1.636  15.786  20.105  0.00  0.00    +0.000 OA
ENDBRANCH  21  29
ENDBRANCH  17  24
ENDBRANCH   1  18
TORSDOF 5
ENDMDL
MODEL 7
REMARK VINA RESULT:      -7.2      2.350      3.758
REMARK  Name = 
REMARK  7 active torsions:
REMARK  status: ('A' for Active; 'I' for Inactive)
REMARK    1  A    between atoms: C_1  and  O_2
REMARK    2  A    between atoms: O_2  and  C_3
REMARK    3  A    between atoms: C_6  and  N_7
REMARK    4  A    between atoms: C_8  and  C_10
REMARK    5  A    between atoms: C_12  and  C_13
REMARK    6  A    between atoms: C_19  and  C_21
REMARK    7  A    between atoms: C_26  and  C_27
REMARK                            x       y       z     vdW  Elec       q    Type
REMARK                         _______ _______ _______ _____ _____    ______ ____
ROOT
ATOM      1  C   UNL     1       1.721   8.683  18.893  0.00  0.00    +0.000 A 
ATOM      2  C   UNL     1       2.621   7.633  19.197  0.00  0.00    +0.000 A 
ATOM      3  C   UNL     1       3.211   7.324  17.999  0.00  0.00    +0.000 A 
ATOM      4  O   UNL     1       2.726   8.164  17.037  0.00  0.00    +0.000 OA
ATOM      5  N   UNL     1       1.807   9.041  17.601  0.00  0.00    +0.000 NA
ENDROOT
BRANCH   3   6
ATOM      6  C   UNL     1       4.227   6.309  17.606  0.00  0.00    +0.000 C 
ATOM      7  C   UNL     1       4.838   6.644  16.229  0.00  0.00    +0.000 C 
ATOM      8  C   UNL     1       5.912   5.646  15.804  0.00  0.00    +0.000 C 
ATOM      9  C   UNL     1       5.406   4.214  15.930  0.00  0.00    +0.000 C 
ATOM     10  C   UNL     1       4.892   3.959  17.340  0.00  0.00    +0.000 C 
ATOM     11  N   UNL     1       3.802   4.884  17.661  0.00  0.00    +0.000 N 
ATOM     12  C   UNL     1       2.498   4.476  17.961  0.00  0.00    +0.000 C 
ATOM     13  O   UNL     1       1.600   5.232  18.309  0.00  0.00    +0.000 OA
BRANCH  12  14
ATOM     14  C   UNL     1       2.139   3.025  17.805  0.00  0.00    +0.000 C 
ATOM     15  C   UNL     1       2.353   2.041  18.937  0.00  0.00    +0.000 C 
ATOM     16  C   UNL     1       0.965   2.496  18.603  0.00  0.00    +0.000 C 
ENDBRANCH  12  14
ENDBRANCH   3   6
BRANCH   1  18
ATOM     17  N   UNL     1       0.462  10.619  19.545  0.00  0.00    +0.000 N 
ATOM     18  C   UNL     1       0.820   9.317  19.851  0.00  0.00    +0.000 C 
ATOM     19  O   UNL     1       0.490   8.702  20.863  0.00  0.00    +0.000 OA
ATOM     20  H   UNL     1       0.944  11.024  18.746  0.00  0.00    +0.000 HD
BRANCH  17  24
ATOM     21  C   UNL     1      -2.054  13.121  21.859  0.00  0.00    +0.000 A 
ATOM     22  C   UNL     1      -0.807  12.749  22.332  0.00  0.00    +0.000 A 
ATOM     23  C   UNL     1       0.001  11.906  21.570  0.00  0.00    +0.000 A 
ATOM     24  C   UNL     1      -0.401  11.433  20.313  0.00  0.00    +0.000 A 
ATOM     25  C   UNL     1      -1.681  11.781  19.839  0.00  0.00    +0.000 A 
ATOM     26  C   UNL     1      -2.235  11.335  18.515  0.00  0.00    +0.000 C 
ATOM     27  C   UNL     1      -2.502  12.607  20.640  0.00  0.00    +0.000 A 
BRANCH  21  29
ATOM     28  C   UNL     1      -4.260  13.488  22.601  0.00  0.00    +0.000 C 
ATOM     29  O   UNL     1      -2.917  13.960  22.511  0.00  0.00    +0.000 OA
ENDBRANCH  21  29
ENDBRANCH  17  24
ENDBRANCH   1  18
TORSDOF 5
ENDMDL
MODEL 8
REMARK VINA RESULT:      -7.2      2.320      3.587
REMARK  Name = 
REMARK  7 active torsions:
REMARK  status: ('A' for Active; 'I' for Inactive)
REMARK    1  A    between atoms: C_1  and  O_2
REMARK    2  A    between atoms: O_2  and  C_3
REMARK    3  A    between atoms: C_6  and  N_7
REMARK    4  A    between atoms: C_8  and  C_10
REMARK    5  A    between atoms: C_12  and  C_13
REMARK    6  A    between atoms: C_19  and  C_21
REMARK    7  A    between atoms: C_26  and  C_27
REMARK                            x       y       z     vdW  Elec       q    Type
REMARK                         _______ _______ _______ _____ _____    ______ ____
ROOT
ATOM      1  C   UNL     1       1.896   8.644  18.955  0.00  0.00    +0.000 A 
ATOM      2  C   UNL     1       2.615   8.172  17.831  0.00  0.00    +0.000 A 
ATOM      3  C   UNL     1       3.301   7.079  18.292  0.00  0.00    +0.000 A 
ATOM      4  O   UNL     1       2.984   6.879  19.606  0.00  0.00    +0.000 OA
ATOM      5  N   UNL     1       2.077   7.846  20.021  0.00  0.00    +0.000 NA
ENDROOT
BRANCH   3   6
ATOM      6  C   UNL     1       4.254   6.136  17.642  0.00  0.00    +0.000 C 
ATOM      7  C   UNL     1       4.684   6.656  16.254  0.00  0.00    +0.000 C 
ATOM      8  C   UNL     1       5.689   5.735  15.568  0.00  0.00    +0.000 C 
ATOM      9  C   UNL     1       5.196   4.293  15.569  0.00  0.00    +0.000 C 
ATOM     10  C   UNL     1       4.867   3.849  16.987  0.00  0.00    +0.000 C 
ATOM     11  N   UNL     1       3.832   4.712  17.564  0.00  0.00    +0.000 N 
ATOM     12  C   UNL     1       2.575   4.252  17.973  0.00  0.00    +0.000 C 
ATOM     13  O   UNL     1       1.733   4.945  18.529  0.00  0.00    +0.000 OA
BRANCH  12  14
ATOM     14  C   UNL     1       2.192   2.830  17.675  0.00  0.00    +0.000 C 
ATOM     15  C   UNL     1       2.546   1.708  18.630  0.00  0.00    +0.000 C 
ATOM     16  C   UNL     1       1.128   2.187  18.541  0.00  0.00    +0.000 C 
ENDBRANCH  12  14
ENDBRANCH   3   6
BRANCH   1  18
ATOM     17  N   UNL     1      -0.134   9.703  19.676  0.00  0.00    +0.000 N 
ATOM     18  C   UNL     1       1.050   9.834  18.968  0.00  0.00    +0.000 C 
ATOM     19  O   UNL     1       1.396  10.825  18.329  0.00  0.00    +0.000 OA
ATOM     20  H   UNL     1      -0.331   8.766  20.021  0.00  0.00    +0.000 HD
BRANCH  17  24
ATOM     21  C   UNL     1      -2.982  12.798  20.178  0.00  0.00    +0.000 A 
ATOM     22  C   UNL     1      -2.017  12.567  21.145  0.00  0.00    +0.000 A 
ATOM     23  C   UNL     1      -1.101  11.530  20.977  0.00  0.00    +0.000 A 
ATOM     24  C   UNL     1      -1.108  10.715  19.837  0.00  0.00    +0.000 A 
ATOM     25  C   UNL     1      -2.105  10.922  18.865  0.00  0.00    +0.000 A 
ATOM     26  C   UNL     1      -2.228  10.114  17.603  0.00  0.00    +0.000 C 
ATOM     27  C   UNL     1      -3.048  11.954  19.067  0.00  0.00    +0.000 A 
BRANCH  21  29
ATOM     28  C   UNL     1      -4.937  13.619  21.205  0.00  0.00    +0.000 C 
ATOM     29  O   UNL     1      -3.913  13.800  20.229  0.00  0.00    +0.000 OA
ENDBRANCH  21  29
ENDBRANCH  17  24
ENDBRANCH   1  18
TORSDOF 5
ENDMDL
MODEL 9
REMARK VINA RESULT:      -7.2      5.389      7.343
REMARK  Name = 
REMARK  7 active torsions:
REMARK  status: ('A' for Active; 'I' for Inactive)
REMARK    1  A    between atoms: C_1  and  O_2
REMARK    2  A    between atoms: O_2  and  C_3
REMARK    3  A    between atoms: C_6  and  N_7
REMARK    4  A    between atoms: C_8  and  C_10
REMARK    5  A    between atoms: C_12  and  C_13
REMARK    6  A    between atoms: C_19  and  C_21
REMARK    7  A    between atoms: C_26  and  C_27
REMARK                            x       y       z     vdW  Elec       q    Type
REMARK                         _______ _______ _______ _____ _____    ______ ____
ROOT
ATOM      1  C   UNL     1       8.128   8.160  18.177  0.00  0.00    +0.000 A 
ATOM      2  C   UNL     1       7.471   7.640  17.036  0.00  0.00    +0.000 A 
ATOM      3  C   UNL     1       7.452   6.284  17.233  0.00  0.00    +0.000 A 
ATOM      4  O   UNL     1       8.029   6.005  18.440  0.00  0.00    +0.000 OA
ATOM      5  N   UNL     1       8.431   7.186  19.051  0.00  0.00    +0.000 NA
ENDROOT
BRANCH   3   6
ATOM      6  C   UNL     1       6.935   5.151  16.417  0.00  0.00    +0.000 C 
ATOM      7  C   UNL     1       7.157   5.408  14.911  0.00  0.00    +0.000 C 
ATOM      8  C   UNL     1       6.673   4.253  14.040  0.00  0.00    +0.000 C 
ATOM      9  C   UNL     1       5.245   3.860  14.401  0.00  0.00    +0.000 C 
ATOM     10  C   UNL     1       5.143   3.555  15.889  0.00  0.00    +0.000 C 
ATOM     11  N   UNL     1       5.533   4.728  16.677  0.00  0.00    +0.000 N 
ATOM     12  C   UNL     1       4.674   5.394  17.559  0.00  0.00    +0.000 C 
ATOM     13  O   UNL     1       5.010   6.323  18.282  0.00  0.00    +0.000 OA
BRANCH  12  14
ATOM     14  C   UNL     1       3.226   4.992  17.602  0.00  0.00    +0.000 C 
ATOM     15  C   UNL     1       2.706   4.058  18.676  0.00  0.00    +0.000 C 
ATOM     16  C   UNL     1       2.378   5.519  18.741  0.00  0.00    +0.000 C 
ENDBRANCH  12  14
ENDBRANCH   3   6
BRANCH   1  18
ATOM     17  N   UNL     1       9.221   9.833  19.505  0.00  0.00    +0.000 N 
ATOM     18  C   UNL     1       8.432   9.571  18.397  0.00  0.00    +0.000 C 
ATOM     19  O   UNL     1       7.943  10.415  17.649  0.00  0.00    +0.000 OA
ATOM     20  H   UNL     1       9.417   9.029  20.097  0.00  0.00    +0.000 HD
BRANCH  17  24
ATOM     21  C   UNL     1      10.529  13.638  20.830  0.00  0.00    +0.000 A 
ATOM     22  C   UNL     1       9.542  12.954  21.521  0.00  0.00    +0.000 A 
ATOM     23  C   UNL     1       9.105  11.713  21.060  0.00  0.00    +0.000 A 
ATOM     24  C   UNL     1       9.653  11.114  19.917  0.00  0.00    +0.000 A 
ATOM     25  C   UNL     1      10.633  11.817  19.191  0.00  0.00    +0.000 A 
ATOM     26  C   UNL     1      11.294  11.291  17.947  0.00  0.00    +0.000 C 
ATOM     27  C   UNL     1      11.039  13.089  19.651  0.00  0.00    +0.000 A 
BRANCH  21  29
ATOM     28  C   UNL     1      10.081  15.817  21.605  0.00  0.00    +0.000 C 
ATOM     29  O   UNL     1      11.048  14.848  21.205  0.00  0.00    +0.000 OA
ENDBRANCH  21  29
ENDBRANCH  17  24
ENDBRANCH   1  18
TORSDOF 5
ENDMDL
