MODEL 1
REMARK VINA RESULT:      -9.0      0.000      0.000
REMARK  Name = 
REMARK  4 active torsions:
REMARK  status: ('A' for Active; 'I' for Inactive)
REMARK    1  A    between atoms: C_3  and  C_4
REMARK    2  A    between atoms: C_4  and  C_5
REMARK    3  A    between atoms: C_15  and  C_16
REMARK    4  A    between atoms: C_16  and  C_17
REMARK                            x       y       z     vdW  Elec       q    Type
REMARK                         _______ _______ _______ _____ _____    ______ ____
ROOT
ATOM      1  O   UNL     1       5.635   7.339  16.536  0.00  0.00    +0.000 OA
ATOM      2  C   UNL     1       5.572   6.252  17.105  0.00  0.00    +0.000 C 
ATOM      3  C   UNL     1       6.500   5.102  16.773  0.00  0.00    +0.000 C 
ATOM      4  C   UNL     1       7.331   4.924  18.054  0.00  0.00    +0.000 C 
ATOM      5  N   UNL     1       6.550   4.823  19.298  0.00  0.00    +0.000 NA
ATOM      6  C   UNL     1       5.100   4.842  19.098  0.00  0.00    +0.000 C 
ATOM      7  C   UNL     1       4.591   6.015  18.242  0.00  0.00    +0.000 C 
ATOM      8  H   UNL     1       6.823   5.575  19.933  0.00  0.00    +0.000 HD
ENDROOT
BRANCH   3   9
ATOM      9  C   UNL     1       7.408   5.360  15.563  0.00  0.00    +0.000 C 
BRANCH   9  10
ATOM     10  C   UNL     1       7.006   4.709  14.258  0.00  0.00    +0.000 A 
ATOM     11  C   UNL     1       5.887   3.864  14.211  0.00  0.00    +0.000 A 
ATOM     12  C   UNL     1       5.440   3.330  12.997  0.00  0.00    +0.000 A 
ATOM     13  C   UNL     1       6.105   3.638  11.812  0.00  0.00    +0.000 A 
ATOM     14  C   UNL     1       7.237   4.449  11.848  0.00  0.00    +0.000 A 
ATOM     15  C   UNL     1       7.681   4.972  13.063  0.00  0.00    +0.000 A 
ATOM     16  F   UNL     1       8.775   5.744  13.068  0.00  0.00    +0.000 F 
ENDBRANCH   9  10
ENDBRANCH   3   9
BRANCH   7  17
ATOM     17  C   UNL     1       3.176   5.712  17.736  0.00  0.00    +0.000 C 
BRANCH  17  18
ATOM     18  C   UNL     1       2.371   4.735  18.555  0.00  0.00    +0.000 A 
ATOM     19  C   UNL     1       1.929   5.067  19.845  0.00  0.00    +0.000 A 
ATOM     20  C   UNL     1       1.128   4.182  20.570  0.00  0.00    +0.000 A 
ATOM     21  C   UNL     1       0.749   2.961  20.013  0.00  0.00    +0.000 A 
ATOM     22  C   UNL     1       1.205   2.609  18.744  0.00  0.00    +0.000 A 
ATOM     23  C   UNL     1       2.019   3.487  18.035  0.00  0.00    +0.000 A 
ATOM     24  F   UNL     1       2.453   3.128  16.817  0.00  0.00    +0.000 F 
ENDBRANCH  17  18
ENDBRANCH   7  17
TORSDOF 4
ENDMDL
MODEL 2
REMARK VINA RESULT:      -8.9      0.977      1.400
REMARK  Name = 
REMARK  4 active torsions:
REMARK  status: ('A' for Active; 'I' for Inactive)
REMARK    1  A    between atoms: C_3  and  C_4
REMARK    2  A    between atoms: C_4  and  C_5
REMARK    3  A    between atoms: C_15  and  C_16
REMARK    4  A    between atoms: C_16  and  C_17
REMARK                            x       y       z     vdW  Elec       q    Type
REMARK                         _______ _______ _______ _____ _____    ______ ____
ROOT
ATOM      1  O   UNL     1       5.538   7.224  16.450  0.00  0.00    +0.000 OA
ATOM      2  C   UNL     1       5.526   6.154  17.053  0.00  0.00    +0.000 C 
ATOM      3  C   UNL     1       6.520   5.047  16.771  0.00  0.00    +0.000 C 
ATOM      4  C   UNL     1       7.340   4.955  18.068  0.00  0.00    +0.000 C 
ATOM      5  N   UNL     1       6.547   4.852  19.304  0.00  0.00    +0.000 NA
ATOM      6  C   UNL     1       5.101   4.785  19.085  0.00  0.00    +0.000 C 
ATOM      7  C   UNL     1       4.543   5.900  18.183  0.00  0.00    +0.000 C 
ATOM      8  H   UNL     1       6.769   5.638  19.918  0.00  0.00    +0.000 HD
ENDROOT
BRANCH   3   9
ATOM      9  C   UNL     1       7.431   5.315  15.566  0.00  0.00    +0.000 C 
BRANCH   9  10
ATOM     10  C   UNL     1       7.028   4.682  14.252  0.00  0.00    +0.000 A 
ATOM     11  C   UNL     1       5.913   3.832  14.196  0.00  0.00    +0.000 A 
ATOM     12  C   UNL     1       5.463   3.315  12.976  0.00  0.00    +0.000 A 
ATOM     13  C   UNL     1       6.122   3.644  11.793  0.00  0.00    +0.000 A 
ATOM     14  C   UNL     1       7.250   4.461  11.837  0.00  0.00    +0.000 A 
ATOM     15  C   UNL     1       7.696   4.967  13.059  0.00  0.00    +0.000 A 
ATOM     16  F   UNL     1       8.786   5.745  13.072  0.00  0.00    +0.000 F 
ENDBRANCH   9  10
ENDBRANCH   3   9
BRANCH   7  17
ATOM     17  C   UNL     1       3.153   5.505  17.669  0.00  0.00    +0.000 C 
BRANCH  17  18
ATOM     18  C   UNL     1       2.354   4.582  18.554  0.00  0.00    +0.000 A 
ATOM     19  C   UNL     1       2.054   3.273  18.147  0.00  0.00    +0.000 A 
ATOM     20  C   UNL     1       1.371   2.403  19.001  0.00  0.00    +0.000 A 
ATOM     21  C   UNL     1       0.989   2.826  20.274  0.00  0.00    +0.000 A 
ATOM     22  C   UNL     1       1.257   4.133  20.677  0.00  0.00    +0.000 A 
ATOM     23  C   UNL     1       1.921   5.000  19.814  0.00  0.00    +0.000 A 
ATOM     24  F   UNL     1       2.165   6.255  20.219  0.00  0.00    +0.000 F 
ENDBRANCH  17  18
ENDBRANCH   7  17
TORSDOF 4
ENDMDL
MODEL 3
REMARK VINA RESULT:      -8.6      1.010      1.419
REMARK  Name = 
REMARK  4 active torsions:
REMARK  status: ('A' for Active; 'I' for Inactive)
REMARK    1  A    between atoms: C_3  and  C_4
REMARK    2  A    between atoms: C_4  and  C_5
REMARK    3  A    between atoms: C_15  and  C_16
REMARK    4  A    between atoms: C_16  and  C_17
REMARK                            x       y       z     vdW  Elec       q    Type
REMARK                         _______ _______ _______ _____ _____    ______ ____
ROOT
ATOM      1  O   UNL     1       5.790   7.329  16.614  0.00  0.00    +0.000 OA
ATOM      2  C   UNL     1       5.662   6.237  17.162  0.00  0.00    +0.000 C 
ATOM      3  C   UNL     1       6.502   5.033  16.791  0.00  0.00    +0.000 C 
ATOM      4  C   UNL     1       7.342   4.772  18.052  0.00  0.00    +0.000 C 
ATOM      5  N   UNL     1       6.578   4.700  19.309  0.00  0.00    +0.000 NA
ATOM      6  C   UNL     1       5.129   4.823  19.137  0.00  0.00    +0.000 C 
ATOM      7  C   UNL     1       4.688   6.046  18.313  0.00  0.00    +0.000 C 
ATOM      8  H   UNL     1       6.914   5.419  19.952  0.00  0.00    +0.000 HD
ENDROOT
BRANCH   3   9
ATOM      9  C   UNL     1       7.405   5.253  15.569  0.00  0.00    +0.000 C 
BRANCH   9  10
ATOM     10  C   UNL     1       6.897   4.728  14.244  0.00  0.00    +0.000 A 
ATOM     11  C   UNL     1       7.684   4.856  13.090  0.00  0.00    +0.000 A 
ATOM     12  C   UNL     1       7.279   4.291  11.876  0.00  0.00    +0.000 A 
ATOM     13  C   UNL     1       6.080   3.585  11.801  0.00  0.00    +0.000 A 
ATOM     14  C   UNL     1       5.272   3.477  12.931  0.00  0.00    +0.000 A 
ATOM     15  C   UNL     1       5.680   4.049  14.136  0.00  0.00    +0.000 A 
ATOM     16  F   UNL     1       4.880   3.935  15.205  0.00  0.00    +0.000 F 
ENDBRANCH   9  10
ENDBRANCH   3   9
BRANCH   7  17
ATOM     17  C   UNL     1       3.246   5.852  17.829  0.00  0.00    +0.000 C 
BRANCH  17  18
ATOM     18  C   UNL     1       2.421   4.840  18.584  0.00  0.00    +0.000 A 
ATOM     19  C   UNL     1       1.977   5.102  19.889  0.00  0.00    +0.000 A 
ATOM     20  C   UNL     1       1.157   4.188  20.556  0.00  0.00    +0.000 A 
ATOM     21  C   UNL     1       0.762   3.009  19.924  0.00  0.00    +0.000 A 
ATOM     22  C   UNL     1       1.220   2.726  18.639  0.00  0.00    +0.000 A 
ATOM     23  C   UNL     1       2.052   3.632  17.988  0.00  0.00    +0.000 A 
ATOM     24  F   UNL     1       2.487   3.340  16.753  0.00  0.00    +0.000 F 
ENDBRANCH  17  18
ENDBRANCH   7  17
TORSDOF 4
ENDMDL
MODEL 4
REMARK VINA RESULT:      -8.4      1.204      2.020
REMARK  Name = 
REMARK  4 active torsions:
REMARK  status: ('A' for Active; 'I' for Inactive)
REMARK    1  A    between atoms: C_3  and  C_4
REMARK    2  A    between atoms: C_4  and  C_5
REMARK    3  A    between atoms: C_15  and  C_16
REMARK    4  A    between atoms: C_16  and  C_17
REMARK                            x       y       z     vdW  Elec       q    Type
REMARK                         _______ _______ _______ _____ _____    ______ ____
ROOT
ATOM      1  O   UNL     1       5.719   7.395  16.712  0.00  0.00    +0.000 OA
ATOM      2  C   UNL     1       5.553   6.290  17.221  0.00  0.00    +0.000 C 
ATOM      3  C   UNL     1       6.354   5.073  16.809  0.00  0.00    +0.000 C 
ATOM      4  C   UNL     1       7.180   4.739  18.061  0.00  0.00    +0.000 C 
ATOM      5  N   UNL     1       6.410   4.647  19.312  0.00  0.00    +0.000 NA
ATOM      6  C   UNL     1       4.966   4.824  19.142  0.00  0.00    +0.000 C 
ATOM      7  C   UNL     1       4.569   6.089  18.362  0.00  0.00    +0.000 C 
ATOM      8  H   UNL     1       6.767   5.330  19.983  0.00  0.00    +0.000 HD
ENDROOT
BRANCH   3   9
ATOM      9  C   UNL     1       7.268   5.306  15.598  0.00  0.00    +0.000 C 
BRANCH   9  10
ATOM     10  C   UNL     1       6.802   4.741  14.273  0.00  0.00    +0.000 A 
ATOM     11  C   UNL     1       7.625   4.835  13.142  0.00  0.00    +0.000 A 
ATOM     12  C   UNL     1       7.257   4.234  11.933  0.00  0.00    +0.000 A 
ATOM     13  C   UNL     1       6.061   3.526  11.841  0.00  0.00    +0.000 A 
ATOM     14  C   UNL     1       5.218   3.451  12.948  0.00  0.00    +0.000 A 
ATOM     15  C   UNL     1       5.588   4.060  14.148  0.00  0.00    +0.000 A 
ATOM     16  F   UNL     1       4.756   3.976  15.193  0.00  0.00    +0.000 F 
ENDBRANCH   9  10
ENDBRANCH   3   9
BRANCH   7  17
ATOM     17  C   UNL     1       3.123   5.961  17.867  0.00  0.00    +0.000 C 
BRANCH  17  18
ATOM     18  C   UNL     1       2.279   4.911  18.544  0.00  0.00    +0.000 A 
ATOM     19  C   UNL     1       1.942   3.720  17.883  0.00  0.00    +0.000 A 
ATOM     20  C   UNL     1       1.216   2.724  18.541  0.00  0.00    +0.000 A 
ATOM     21  C   UNL     1       0.828   2.900  19.869  0.00  0.00    +0.000 A 
ATOM     22  C   UNL     1       1.133   4.091  20.526  0.00  0.00    +0.000 A 
ATOM     23  C   UNL     1       1.840   5.086  19.858  0.00  0.00    +0.000 A 
ATOM     24  F   UNL     1       2.119   6.227  20.506  0.00  0.00    +0.000 F 
ENDBRANCH  17  18
ENDBRANCH   7  17
TORSDOF 4
ENDMDL
MODEL 5
REMARK VINA RESULT:      -8.3      1.043      6.942
REMARK  Name = 
REMARK  4 active torsions:
REMARK  status: ('A' for Active; 'I' for Inactive)
REMARK    1  A    between atoms: C_3  and  C_4
REMARK    2  A    between atoms: C_4  and  C_5
REMARK    3  A    between atoms: C_15  and  C_16
REMARK    4  A    between atoms: C_16  and  C_17
REMARK                            x       y       z     vdW  Elec       q    Type
REMARK                         _______ _______ _______ _____ _____    ______ ____
ROOT
ATOM      1  O   UNL     1       4.119   4.167  16.406  0.00  0.00    +0.000 OA
ATOM      2  C   UNL     1       4.995   4.804  16.985  0.00  0.00    +0.000 C 
ATOM      3  C   UNL     1       4.698   5.738  18.139  0.00  0.00    +0.000 C 
ATOM      4  C   UNL     1       5.387   5.066  19.338  0.00  0.00    +0.000 C 
ATOM      5  N   UNL     1       6.793   4.688  19.121  0.00  0.00    +0.000 NA
ATOM      6  C   UNL     1       7.324   5.079  17.814  0.00  0.00    +0.000 C 
ATOM      7  C   UNL     1       6.461   4.636  16.619  0.00  0.00    +0.000 C 
ATOM      8  H   UNL     1       6.898   3.680  19.251  0.00  0.00    +0.000 HD
ENDROOT
BRANCH   3   9
ATOM      9  C   UNL     1       3.201   5.940  18.411  0.00  0.00    +0.000 C 
BRANCH   9  10
ATOM     10  C   UNL     1       2.506   4.870  19.224  0.00  0.00    +0.000 A 
ATOM     11  C   UNL     1       2.746   4.770  20.603  0.00  0.00    +0.000 A 
ATOM     12  C   UNL     1       2.041   3.854  21.391  0.00  0.00    +0.000 A 
ATOM     13  C   UNL     1       1.082   3.026  20.810  0.00  0.00    +0.000 A 
ATOM     14  C   UNL     1       0.856   3.092  19.437  0.00  0.00    +0.000 A 
ATOM     15  C   UNL     1       1.568   4.003  18.657  0.00  0.00    +0.000 A 
ATOM     16  F   UNL     1       1.334   4.040  17.339  0.00  0.00    +0.000 F 
ENDBRANCH   9  10
ENDBRANCH   3   9
BRANCH   7  17
ATOM     17  C   UNL     1       6.846   5.443  15.373  0.00  0.00    +0.000 C 
BRANCH  17  18
ATOM     18  C   UNL     1       6.743   4.720  14.054  0.00  0.00    +0.000 A 
ATOM     19  C   UNL     1       5.720   3.789  13.820  0.00  0.00    +0.000 A 
ATOM     20  C   UNL     1       5.593   3.174  12.571  0.00  0.00    +0.000 A 
ATOM     21  C   UNL     1       6.478   3.489  11.541  0.00  0.00    +0.000 A 
ATOM     22  C   UNL     1       7.515   4.391  11.771  0.00  0.00    +0.000 A 
ATOM     23  C   UNL     1       7.647   4.986  13.023  0.00  0.00    +0.000 A 
ATOM     24  F   UNL     1       8.654   5.848  13.227  0.00  0.00    +0.000 F 
ENDBRANCH  17  18
ENDBRANCH   7  17
TORSDOF 4
ENDMDL
MODEL 6
REMARK VINA RESULT:      -8.3      2.526      7.123
REMARK  Name = 
REMARK  4 active torsions:
REMARK  status: ('A' for Active; 'I' for Inactive)
REMARK    1  A    between atoms: C_3  and  C_4
REMARK    2  A    between atoms: C_4  and  C_5
REMARK    3  A    between atoms: C_15  and  C_16
REMARK    4  A    between atoms: C_16  and  C_17
REMARK                            x       y       z     vdW  Elec       q    Type
REMARK                         _______ _______ _______ _____ _____    ______ ____
ROOT
ATOM      1  O   UNL     1       2.798   4.232  17.180  0.00  0.00    +0.000 OA
ATOM      2  C   UNL     1       3.923   4.661  17.425  0.00  0.00    +0.000 C 
ATOM      3  C   UNL     1       4.229   5.498  18.649  0.00  0.00    +0.000 C 
ATOM      4  C   UNL     1       5.164   4.603  19.478  0.00  0.00    +0.000 C 
ATOM      5  N   UNL     1       6.308   4.042  18.741  0.00  0.00    +0.000 NA
ATOM      6  C   UNL     1       6.402   4.488  17.350  0.00  0.00    +0.000 C 
ATOM      7  C   UNL     1       5.107   4.314  16.538  0.00  0.00    +0.000 C 
ATOM      8  H   UNL     1       6.269   3.022  18.778  0.00  0.00    +0.000 HD
ENDROOT
BRANCH   3   9
ATOM      9  C   UNL     1       2.988   5.894  19.462  0.00  0.00    +0.000 C 
BRANCH   9  10
ATOM     10  C   UNL     1       2.433   7.282  19.225  0.00  0.00    +0.000 A 
ATOM     11  C   UNL     1       2.641   7.920  17.993  0.00  0.00    +0.000 A 
ATOM     12  C   UNL     1       2.054   9.160  17.717  0.00  0.00    +0.000 A 
ATOM     13  C   UNL     1       1.246   9.777  18.671  0.00  0.00    +0.000 A 
ATOM     14  C   UNL     1       1.057   9.171  19.910  0.00  0.00    +0.000 A 
ATOM     15  C   UNL     1       1.652   7.937  20.180  0.00  0.00    +0.000 A 
ATOM     16  F   UNL     1       1.457   7.381  21.383  0.00  0.00    +0.000 F 
ENDBRANCH   9  10
ENDBRANCH   3   9
BRANCH   7  17
ATOM     17  C   UNL     1       5.164   5.184  15.277  0.00  0.00    +0.000 C 
BRANCH  17  18
ATOM     18  C   UNL     1       5.740   4.532  14.044  0.00  0.00    +0.000 A 
ATOM     19  C   UNL     1       4.960   3.681  13.247  0.00  0.00    +0.000 A 
ATOM     20  C   UNL     1       5.481   3.136  12.071  0.00  0.00    +0.000 A 
ATOM     21  C   UNL     1       6.782   3.441  11.672  0.00  0.00    +0.000 A 
ATOM     22  C   UNL     1       7.575   4.263  12.471  0.00  0.00    +0.000 A 
ATOM     23  C   UNL     1       7.056   4.787  13.651  0.00  0.00    +0.000 A 
ATOM     24  F   UNL     1       7.836   5.572  14.410  0.00  0.00    +0.000 F 
ENDBRANCH  17  18
ENDBRANCH   7  17
TORSDOF 4
ENDMDL
MODEL 7
REMARK VINA RESULT:      -8.2      2.202      2.994
REMARK  Name = 
REMARK  4 active torsions:
REMARK  status: ('A' for Active; 'I' for Inactive)
REMARK    1  A    between atoms: C_3  and  C_4
REMARK    2  A    between atoms: C_4  and  C_5
REMARK    3  A    between atoms: C_15  and  C_16
REMARK    4  A    between atoms: C_16  and  C_17
REMARK                            x       y       z     vdW  Elec       q    Type
REMARK                         _______ _______ _______ _____ _____    ______ ____
ROOT
ATOM      1  O   UNL     1       5.686   7.457  17.302  0.00  0.00    +0.000 OA
ATOM      2  C   UNL     1       5.372   6.289  17.512  0.00  0.00    +0.000 C 
ATOM      3  C   UNL     1       5.951   5.133  16.725  0.00  0.00    +0.000 C 
ATOM      4  C   UNL     1       6.771   4.356  17.768  0.00  0.00    +0.000 C 
ATOM      5  N   UNL     1       6.054   4.032  19.012  0.00  0.00    +0.000 NA
ATOM      6  C   UNL     1       4.650   4.448  19.021  0.00  0.00    +0.000 C 
ATOM      7  C   UNL     1       4.422   5.922  18.640  0.00  0.00    +0.000 C 
ATOM      8  H   UNL     1       6.545   4.449  19.806  0.00  0.00    +0.000 HD
ENDROOT
BRANCH   3   9
ATOM      9  C   UNL     1       6.834   5.560  15.544  0.00  0.00    +0.000 C 
BRANCH   9  10
ATOM     10  C   UNL     1       6.663   4.791  14.252  0.00  0.00    +0.000 A 
ATOM     11  C   UNL     1       5.556   3.947  14.080  0.00  0.00    +0.000 A 
ATOM     12  C   UNL     1       5.325   3.303  12.859  0.00  0.00    +0.000 A 
ATOM     13  C   UNL     1       6.198   3.500  11.790  0.00  0.00    +0.000 A 
ATOM     14  C   UNL     1       7.319   4.311  11.957  0.00  0.00    +0.000 A 
ATOM     15  C   UNL     1       7.546   4.943  13.180  0.00  0.00    +0.000 A 
ATOM     16  F   UNL     1       8.634   5.712  13.313  0.00  0.00    +0.000 F 
ENDBRANCH   9  10
ENDBRANCH   3   9
BRANCH   7  17
ATOM     17  C   UNL     1       2.953   6.137  18.257  0.00  0.00    +0.000 C 
BRANCH  17  18
ATOM     18  C   UNL     1       2.354   7.468  18.637  0.00  0.00    +0.000 A 
ATOM     19  C   UNL     1       2.312   8.528  17.718  0.00  0.00    +0.000 A 
ATOM     20  C   UNL     1       1.695   9.735  18.056  0.00  0.00    +0.000 A 
ATOM     21  C   UNL     1       1.104   9.894  19.309  0.00  0.00    +0.000 A 
ATOM     22  C   UNL     1       1.165   8.858  20.239  0.00  0.00    +0.000 A 
ATOM     23  C   UNL     1       1.798   7.665  19.902  0.00  0.00    +0.000 A 
ATOM     24  F   UNL     1       1.851   6.681  20.813  0.00  0.00    +0.000 F 
ENDBRANCH  17  18
ENDBRANCH   7  17
TORSDOF 4
ENDMDL
MODEL 8
REMARK VINA RESULT:      -8.2      1.340      1.410
REMARK  Name = 
REMARK  4 active torsions:
REMARK  status: ('A' for Active; 'I' for Inactive)
REMARK    1  A    between atoms: C_3  and  C_4
REMARK    2  A    between atoms: C_4  and  C_5
REMARK    3  A    between atoms: C_15  and  C_16
REMARK    4  A    between atoms: C_16  and  C_17
REMARK                            x       y       z     vdW  Elec       q    Type
REMARK                         _______ _______ _______ _____ _____    ______ ____
ROOT
ATOM      1  O   UNL     1       4.728   6.526  16.422  0.00  0.00    +0.000 OA
ATOM      2  C   UNL     1       5.371   5.743  17.117  0.00  0.00    +0.000 C 
ATOM      3  C   UNL     1       6.784   5.320  16.777  0.00  0.00    +0.000 C 
ATOM      4  C   UNL     1       7.627   5.914  17.917  0.00  0.00    +0.000 C 
ATOM      5  N   UNL     1       7.142   5.616  19.274  0.00  0.00    +0.000 NA
ATOM      6  C   UNL     1       5.969   4.741  19.313  0.00  0.00    +0.000 C 
ATOM      7  C   UNL     1       4.804   5.200  18.419  0.00  0.00    +0.000 C 
ATOM      8  H   UNL     1       6.941   6.490  19.763  0.00  0.00    +0.000 HD
ENDROOT
BRANCH   3   9
ATOM      9  C   UNL     1       7.277   5.824  15.413  0.00  0.00    +0.000 C 
BRANCH   9  10
ATOM     10  C   UNL     1       6.976   4.949  14.215  0.00  0.00    +0.000 A 
ATOM     11  C   UNL     1       5.880   4.075  14.242  0.00  0.00    +0.000 A 
ATOM     12  C   UNL     1       5.526   3.330  13.111  0.00  0.00    +0.000 A 
ATOM     13  C   UNL     1       6.263   3.455  11.935  0.00  0.00    +0.000 A 
ATOM     14  C   UNL     1       7.373   4.295  11.903  0.00  0.00    +0.000 A 
ATOM     15  C   UNL     1       7.724   5.028  13.037  0.00  0.00    +0.000 A 
ATOM     16  F   UNL     1       8.800   5.824  12.979  0.00  0.00    +0.000 F 
ENDBRANCH   9  10
ENDBRANCH   3   9
BRANCH   7  17
ATOM     17  C   UNL     1       3.835   4.034  18.190  0.00  0.00    +0.000 C 
BRANCH  17  18
ATOM     18  C   UNL     1       2.934   3.680  19.347  0.00  0.00    +0.000 A 
ATOM     19  C   UNL     1       1.709   4.338  19.533  0.00  0.00    +0.000 A 
ATOM     20  C   UNL     1       0.850   3.958  20.568  0.00  0.00    +0.000 A 
ATOM     21  C   UNL     1       1.200   2.911  21.421  0.00  0.00    +0.000 A 
ATOM     22  C   UNL     1       2.427   2.270  21.261  0.00  0.00    +0.000 A 
ATOM     23  C   UNL     1       3.286   2.667  20.241  0.00  0.00    +0.000 A 
ATOM     24  F   UNL     1       4.465   2.041  20.107  0.00  0.00    +0.000 F 
ENDBRANCH  17  18
ENDBRANCH   7  17
TORSDOF 4
ENDMDL
MODEL 9
REMARK VINA RESULT:      -8.2      1.354      6.947
REMARK  Name = 
REMARK  4 active torsions:
REMARK  status: ('A' for Active; 'I' for Inactive)
REMARK    1  A    between atoms: C_3  and  C_4
REMARK    2  A    between atoms: C_4  and  C_5
REMARK    3  A    between atoms: C_15  and  C_16
REMARK    4  A    between atoms: C_16  and  C_17
REMARK                            x       y       z     vdW  Elec       q    Type
REMARK                         _______ _______ _______ _____ _____    ______ ____
ROOT
ATOM      1  O   UNL     1       4.125   4.185  16.130  0.00  0.00    +0.000 OA
ATOM      2  C   UNL     1       4.939   4.784  16.829  0.00  0.00    +0.000 C 
ATOM      3  C   UNL     1       4.524   5.724  17.940  0.00  0.00    +0.000 C 
ATOM      4  C   UNL     1       5.016   5.020  19.215  0.00  0.00    +0.000 C 
ATOM      5  N   UNL     1       6.423   4.587  19.188  0.00  0.00    +0.000 NA
ATOM      6  C   UNL     1       7.142   4.962  17.969  0.00  0.00    +0.000 C 
ATOM      7  C   UNL     1       6.433   4.559  16.664  0.00  0.00    +0.000 C 
ATOM      8  H   UNL     1       6.470   3.576  19.322  0.00  0.00    +0.000 HD
ENDROOT
BRANCH   3   9
ATOM      9  C   UNL     1       3.013   5.985  18.008  0.00  0.00    +0.000 C 
BRANCH   9  10
ATOM     10  C   UNL     1       2.173   4.945  18.718  0.00  0.00    +0.000 A 
ATOM     11  C   UNL     1       1.727   3.811  18.024  0.00  0.00    +0.000 A 
ATOM     12  C   UNL     1       1.034   2.790  18.685  0.00  0.00    +0.000 A 
ATOM     13  C   UNL     1       0.782   2.889  20.052  0.00  0.00    +0.000 A 
ATOM     14  C   UNL     1       1.191   4.025  20.748  0.00  0.00    +0.000 A 
ATOM     15  C   UNL     1       1.875   5.042  20.080  0.00  0.00    +0.000 A 
ATOM     16  F   UNL     1       2.252   6.124  20.773  0.00  0.00    +0.000 F 
ENDBRANCH   9  10
ENDBRANCH   3   9
BRANCH   7  17
ATOM     17  C   UNL     1       7.015   5.356  15.490  0.00  0.00    +0.000 C 
BRANCH  17  18
ATOM     18  C   UNL     1       6.900   4.716  14.129  0.00  0.00    +0.000 A 
ATOM     19  C   UNL     1       5.923   3.742  13.871  0.00  0.00    +0.000 A 
ATOM     20  C   UNL     1       5.780   3.203  12.589  0.00  0.00    +0.000 A 
ATOM     21  C   UNL     1       6.602   3.637  11.550  0.00  0.00    +0.000 A 
ATOM     22  C   UNL     1       7.594   4.583  11.802  0.00  0.00    +0.000 A 
ATOM     23  C   UNL     1       7.743   5.101  13.085  0.00  0.00    +0.000 A 
ATOM     24  F   UNL     1       8.708   6.007  13.310  0.00  0.00    +0.000 F 
ENDBRANCH  17  18
ENDBRANCH   7  17
TORSDOF 4
ENDMDL
