MODEL 1
REMARK VINA RESULT:      -7.3      0.000      0.000
REMARK  Name = 
REMARK  19 active torsions:
REMARK  status: ('A' for Active; 'I' for Inactive)
REMARK    1  A    between atoms: C_1  and  C_2
REMARK    2  A    between atoms: C_2  and  C_3
REMARK    3  A    between atoms: C_3  and  C_4
REMARK    4  A    between atoms: C_5  and  O_6
REMARK    5  A    between atoms: O_6  and  C_7
REMARK    6  A    between atoms: C_7  and  C_8
REMARK    7  A    between atoms: C_8  and  O_9
REMARK    8  A    between atoms: C_8  and  C_10
REMARK    9  A    between atoms: C_10  and  O_11
REMARK   10  A    between atoms: O_11  and  C_12
REMARK   11  A    between atoms: C_16  and  N_17
REMARK   12  A    between atoms: C_18  and  C_20
REMARK   13  A    between atoms: C_20  and  O_22
REMARK   14  A    between atoms: O_22  and  C_23
REMARK   15  A    between atoms: C_23  and  C_24
REMARK   16  A    between atoms: C_25  and  C_26
REMARK   17  A    between atoms: C_30  and  C_31
REMARK   18  A    between atoms: C_31  and  C_32
REMARK   19  A    between atoms: C_34  and  O_35
REMARK                            x       y       z     vdW  Elec       q    Type
REMARK                         _______ _______ _______ _____ _____    ______ ____
ROOT
ATOM      1  C   UNL     1       1.707   9.671  18.667  0.00  0.00    +0.000 C 
ENDROOT
BRANCH   1   2
ATOM      2  O   UNL     1       2.127  10.758  17.829  0.00  0.00    +0.000 OA
ATOM      3  H   UNL     1       1.320  11.231  17.553  0.00  0.00    +0.000 HD
ENDBRANCH   1   2
BRANCH   1   4
ATOM      4  C   UNL     1       0.309   9.949  19.261  0.00  0.00    +0.000 C 
BRANCH   4   5
ATOM      5  O   UNL     1      -0.245  11.132  18.660  0.00  0.00    +0.000 OA
BRANCH   5   6
ATOM      6  C   UNL     1      -1.483  11.048  18.064  0.00  0.00    +0.000 A 
ATOM      7  C   UNL     1      -1.535  10.114  17.022  0.00  0.00    +0.000 A 
ATOM      8  C   UNL     1      -2.733   9.842  16.365  0.00  0.00    +0.000 A 
ATOM      9  C   UNL     1      -3.893  10.529  16.719  0.00  0.00    +0.000 A 
ATOM     10  C   UNL     1      -3.893  11.453  17.772  0.00  0.00    +0.000 A 
ATOM     11  C   UNL     1      -2.679  11.673  18.478  0.00  0.00    +0.000 A 
BRANCH  10  12
ATOM     12  N   UNL     1      -5.083  12.149  18.135  0.00  0.00    +0.000 N 
ATOM     13  C   UNL     1      -6.261  11.566  18.593  0.00  0.00    +0.000 C 
ATOM     14  O   UNL     1      -6.455  10.375  18.803  0.00  0.00    +0.000 OA
ATOM     15  H   UNL     1      -5.080  13.169  18.142  0.00  0.00    +0.000 HD
BRANCH  13  16
ATOM     16  C   UNL     1      -7.386  12.582  18.896  0.00  0.00    +0.000 C 
ATOM     17  O   UNL     1      -7.794  13.367  18.059  0.00  0.00    +0.000 OA
BRANCH  16  18
ATOM     18  O   UNL     1      -7.784  12.444  20.177  0.00  0.00    +0.000 OA
BRANCH  18  19
ATOM     19  C   UNL     1      -7.069  13.172  21.182  0.00  0.00    +0.000 C 
ATOM     20  C   UNL     1      -7.916  13.310  22.434  0.00  0.00    +0.000 C 
ENDBRANCH  18  19
ENDBRANCH  16  18
ENDBRANCH  13  16
ENDBRANCH  10  12
BRANCH  11  21
ATOM     21  C   UNL     1      -2.743  12.373  19.719  0.00  0.00    +0.000 C 
ATOM     22  N   UNL     1      -2.754  12.975  20.718  0.00  0.00    +0.000 NA
ENDBRANCH  11  21
ENDBRANCH   5   6
ENDBRANCH   4   5
ENDBRANCH   1   4
BRANCH   1  23
ATOM     23  C   UNL     1       1.760   8.351  17.864  0.00  0.00    +0.000 C 
BRANCH  23  24
ATOM     24  O   UNL     1       2.443   7.294  18.578  0.00  0.00    +0.000 OA
BRANCH  24  26
ATOM     25  C   UNL     1       3.539   5.225  18.006  0.00  0.00    +0.000 A 
ATOM     26  C   UNL     1       3.454   6.633  17.914  0.00  0.00    +0.000 A 
ATOM     27  C   UNL     1       4.371   7.316  17.106  0.00  0.00    +0.000 A 
ATOM     28  C   UNL     1       5.414   6.652  16.452  0.00  0.00    +0.000 A 
ATOM     29  C   UNL     1       5.561   5.272  16.573  0.00  0.00    +0.000 A 
ATOM     30  C   UNL     1       4.609   4.568  17.341  0.00  0.00    +0.000 A 
BRANCH  29  31
ATOM     31  C   UNL     1       6.689   4.535  15.915  0.00  0.00    +0.000 C 
ATOM     32  C   UNL     1       6.635   4.119  14.466  0.00  0.00    +0.000 C 
ATOM     33  O   UNL     1       7.689   4.265  16.587  0.00  0.00    +0.000 OA
ENDBRANCH  29  31
BRANCH  30  34
ATOM     34  O   UNL     1       4.689   3.200  17.480  0.00  0.00    +0.000 OA
ATOM     35  H   UNL     1       4.528   2.781  16.604  0.00  0.00    +0.000 HD
ENDBRANCH  30  34
BRANCH  25  36
ATOM     36  C   UNL     1       2.562   4.396  18.823  0.00  0.00    +0.000 C 
BRANCH  36  38
ATOM     37  C   UNL     1       1.852   3.468  21.052  0.00  0.00    +0.000 C 
ATOM     38  C   UNL     1       2.830   4.390  20.331  0.00  0.00    +0.000 C 
ENDBRANCH  36  38
ENDBRANCH  25  36
ENDBRANCH  24  26
ENDBRANCH  23  24
ENDBRANCH   1  23
TORSDOF 16
ENDMDL
MODEL 2
REMARK VINA RESULT:      -7.1      3.034     11.319
REMARK  Name = 
REMARK  19 active torsions:
REMARK  status: ('A' for Active; 'I' for Inactive)
REMARK    1  A    between atoms: C_1  and  C_2
REMARK    2  A    between atoms: C_2  and  C_3
REMARK    3  A    between atoms: C_3  and  C_4
REMARK    4  A    between atoms: C_5  and  O_6
REMARK    5  A    between atoms: O_6  and  C_7
REMARK    6  A    between atoms: C_7  and  C_8
REMARK    7  A    between atoms: C_8  and  O_9
REMARK    8  A    between atoms: C_8  and  C_10
REMARK    9  A    between atoms: C_10  and  O_11
REMARK   10  A    between atoms: O_11  and  C_12
REMARK   11  A    between atoms: C_16  and  N_17
REMARK   12  A    between atoms: C_18  and  C_20
REMARK   13  A    between atoms: C_20  and  O_22
REMARK   14  A    between atoms: O_22  and  C_23
REMARK   15  A    between atoms: C_23  and  C_24
REMARK   16  A    between atoms: C_25  and  C_26
REMARK   17  A    between atoms: C_30  and  C_31
REMARK   18  A    between atoms: C_31  and  C_32
REMARK   19  A    between atoms: C_34  and  O_35
REMARK                            x       y       z     vdW  Elec       q    Type
REMARK                         _______ _______ _______ _____ _____    ______ ____
ROOT
ATOM      1  C   UNL     1       1.353   9.592  21.076  0.00  0.00    +0.000 C 
ENDROOT
BRANCH   1   2
ATOM      2  O   UNL     1       0.582  10.311  22.049  0.00  0.00    +0.000 OA
ATOM      3  H   UNL     1       0.284  11.136  21.622  0.00  0.00    +0.000 HD
ENDBRANCH   1   2
BRANCH   1   4
ATOM      4  C   UNL     1       1.658   8.161  21.570  0.00  0.00    +0.000 C 
BRANCH   4   5
ATOM      5  O   UNL     1       1.176   7.205  20.608  0.00  0.00    +0.000 OA
BRANCH   5   6
ATOM      6  C   UNL     1       1.960   6.111  20.320  0.00  0.00    +0.000 A 
ATOM      7  C   UNL     1       1.630   4.978  21.076  0.00  0.00    +0.000 A 
ATOM      8  C   UNL     1       2.269   3.761  20.853  0.00  0.00    +0.000 A 
ATOM      9  C   UNL     1       3.274   3.666  19.891  0.00  0.00    +0.000 A 
ATOM     10  C   UNL     1       3.618   4.767  19.096  0.00  0.00    +0.000 A 
ATOM     11  C   UNL     1       2.913   5.986  19.287  0.00  0.00    +0.000 A 
BRANCH  10  12
ATOM     12  N   UNL     1       4.642   4.665  18.108  0.00  0.00    +0.000 N 
ATOM     13  C   UNL     1       6.012   4.684  18.350  0.00  0.00    +0.000 C 
ATOM     14  O   UNL     1       6.562   4.743  19.442  0.00  0.00    +0.000 OA
ATOM     15  H   UNL     1       4.380   4.488  17.138  0.00  0.00    +0.000 HD
BRANCH  13  16
ATOM     16  C   UNL     1       6.874   4.566  17.072  0.00  0.00    +0.000 C 
ATOM     17  O   UNL     1       8.075   4.371  17.113  0.00  0.00    +0.000 OA
BRANCH  16  18
ATOM     18  O   UNL     1       6.089   4.722  15.985  0.00  0.00    +0.000 OA
BRANCH  18  19
ATOM     19  C   UNL     1       6.731   4.904  14.717  0.00  0.00    +0.000 C 
ATOM     20  C   UNL     1       6.200   3.901  13.711  0.00  0.00    +0.000 C 
ENDBRANCH  18  19
ENDBRANCH  16  18
ENDBRANCH  13  16
ENDBRANCH  10  12
BRANCH  11  21
ATOM     21  C   UNL     1       3.048   7.000  18.294  0.00  0.00    +0.000 C 
ATOM     22  N   UNL     1       3.193   7.799  17.456  0.00  0.00    +0.000 NA
ENDBRANCH  11  21
ENDBRANCH   5   6
ENDBRANCH   4   5
ENDBRANCH   1   4
BRANCH   1  23
ATOM     23  C   UNL     1       0.614   9.607  19.718  0.00  0.00    +0.000 C 
BRANCH  23  24
ATOM     24  O   UNL     1       0.140  10.925  19.358  0.00  0.00    +0.000 OA
BRANCH  24  26
ATOM     25  C   UNL     1      -1.954  12.109  19.504  0.00  0.00    +0.000 A 
ATOM     26  C   UNL     1      -1.181  11.044  18.987  0.00  0.00    +0.000 A 
ATOM     27  C   UNL     1      -1.768  10.166  18.068  0.00  0.00    +0.000 A 
ATOM     28  C   UNL     1      -3.116  10.267  17.710  0.00  0.00    +0.000 A 
ATOM     29  C   UNL     1      -3.920  11.269  18.250  0.00  0.00    +0.000 A 
ATOM     30  C   UNL     1      -3.323  12.192  19.135  0.00  0.00    +0.000 A 
BRANCH  29  31
ATOM     31  C   UNL     1      -5.377  11.383  17.915  0.00  0.00    +0.000 C 
ATOM     32  C   UNL     1      -6.419  10.510  18.570  0.00  0.00    +0.000 C 
ATOM     33  O   UNL     1      -5.726  12.221  17.079  0.00  0.00    +0.000 OA
ENDBRANCH  29  31
BRANCH  30  34
ATOM     34  O   UNL     1      -4.061  13.217  19.685  0.00  0.00    +0.000 OA
ATOM     35  H   UNL     1      -4.805  13.435  19.080  0.00  0.00    +0.000 HD
ENDBRANCH  30  34
BRANCH  25  36
ATOM     36  C   UNL     1      -1.390  13.136  20.473  0.00  0.00    +0.000 C 
BRANCH  36  38
ATOM     37  C   UNL     1      -1.153  15.642  20.481  0.00  0.00    +0.000 C 
ATOM     38  C   UNL     1      -0.719  14.343  19.809  0.00  0.00    +0.000 C 
ENDBRANCH  36  38
ENDBRANCH  25  36
ENDBRANCH  24  26
ENDBRANCH  23  24
ENDBRANCH   1  23
TORSDOF 16
ENDMDL
MODEL 3
REMARK VINA RESULT:      -7.1      1.455      3.212
REMARK  Name = 
REMARK  19 active torsions:
REMARK  status: ('A' for Active; 'I' for Inactive)
REMARK    1  A    between atoms: C_1  and  C_2
REMARK    2  A    between atoms: C_2  and  C_3
REMARK    3  A    between atoms: C_3  and  C_4
REMARK    4  A    between atoms: C_5  and  O_6
REMARK    5  A    between atoms: O_6  and  C_7
REMARK    6  A    between atoms: C_7  and  C_8
REMARK    7  A    between atoms: C_8  and  O_9
REMARK    8  A    between atoms: C_8  and  C_10
REMARK    9  A    between atoms: C_10  and  O_11
REMARK   10  A    between atoms: O_11  and  C_12
REMARK   11  A    between atoms: C_16  and  N_17
REMARK   12  A    between atoms: C_18  and  C_20
REMARK   13  A    between atoms: C_20  and  O_22
REMARK   14  A    between atoms: O_22  and  C_23
REMARK   15  A    between atoms: C_23  and  C_24
REMARK   16  A    between atoms: C_25  and  C_26
REMARK   17  A    between atoms: C_30  and  C_31
REMARK   18  A    between atoms: C_31  and  C_32
REMARK   19  A    between atoms: C_34  and  O_35
REMARK                            x       y       z     vdW  Elec       q    Type
REMARK                         _______ _______ _______ _____ _____    ______ ____
ROOT
ATOM      1  C   UNL     1       1.989   9.726  18.330  0.00  0.00    +0.000 C 
ENDROOT
BRANCH   1   2
ATOM      2  O   UNL     1       2.124  10.831  17.424  0.00  0.00    +0.000 OA
ATOM      3  H   UNL     1       1.377  11.434  17.600  0.00  0.00    +0.000 HD
ENDBRANCH   1   2
BRANCH   1   4
ATOM      4  C   UNL     1       0.628   9.780  19.059  0.00  0.00    +0.000 C 
BRANCH   4   5
ATOM      5  O   UNL     1      -0.014  11.039  18.790  0.00  0.00    +0.000 OA
BRANCH   5   6
ATOM      6  C   UNL     1      -1.311  11.030  18.333  0.00  0.00    +0.000 A 
ATOM      7  C   UNL     1      -1.578   9.985  17.440  0.00  0.00    +0.000 A 
ATOM      8  C   UNL     1      -2.864   9.779  16.945  0.00  0.00    +0.000 A 
ATOM      9  C   UNL     1      -3.898  10.639  17.311  0.00  0.00    +0.000 A 
ATOM     10  C   UNL     1      -3.682  11.682  18.220  0.00  0.00    +0.000 A 
ATOM     11  C   UNL     1      -2.380  11.842  18.769  0.00  0.00    +0.000 A 
BRANCH  10  12
ATOM     12  N   UNL     1      -4.744  12.556  18.597  0.00  0.00    +0.000 N 
ATOM     13  C   UNL     1      -5.892  12.192  19.295  0.00  0.00    +0.000 C 
ATOM     14  O   UNL     1      -6.158  11.082  19.738  0.00  0.00    +0.000 OA
ATOM     15  H   UNL     1      -4.650  13.557  18.418  0.00  0.00    +0.000 HD
BRANCH  13  16
ATOM     16  C   UNL     1      -6.869  13.363  19.545  0.00  0.00    +0.000 C 
ATOM     17  O   UNL     1      -7.847  13.251  20.262  0.00  0.00    +0.000 OA
BRANCH  16  18
ATOM     18  O   UNL     1      -6.458  14.447  18.855  0.00  0.00    +0.000 OA
BRANCH  18  19
ATOM     19  C   UNL     1      -6.381  15.695  19.554  0.00  0.00    +0.000 C 
ATOM     20  C   UNL     1      -5.172  15.711  20.470  0.00  0.00    +0.000 C 
ENDBRANCH  18  19
ENDBRANCH  16  18
ENDBRANCH  13  16
ENDBRANCH  10  12
BRANCH  11  21
ATOM     21  C   UNL     1      -2.232  12.695  19.902  0.00  0.00    +0.000 C 
ATOM     22  N   UNL     1      -2.148  13.364  20.855  0.00  0.00    +0.000 NA
ENDBRANCH  11  21
ENDBRANCH   5   6
ENDBRANCH   4   5
ENDBRANCH   1   4
BRANCH   1  23
ATOM     23  C   UNL     1       2.198   8.401  17.561  0.00  0.00    +0.000 C 
BRANCH  23  24
ATOM     24  O   UNL     1       3.443   7.749  17.906  0.00  0.00    +0.000 OA
BRANCH  24  26
ATOM     25  C   UNL     1       4.370   5.596  18.470  0.00  0.00    +0.000 A 
ATOM     26  C   UNL     1       3.365   6.579  18.629  0.00  0.00    +0.000 A 
ATOM     27  C   UNL     1       2.344   6.357  19.561  0.00  0.00    +0.000 A 
ATOM     28  C   UNL     1       2.247   5.160  20.277  0.00  0.00    +0.000 A 
ATOM     29  C   UNL     1       3.187   4.148  20.097  0.00  0.00    +0.000 A 
ATOM     30  C   UNL     1       4.252   4.384  19.201  0.00  0.00    +0.000 A 
BRANCH  29  31
ATOM     31  C   UNL     1       3.092   2.839  20.822  0.00  0.00    +0.000 C 
ATOM     32  C   UNL     1       1.859   2.441  21.595  0.00  0.00    +0.000 C 
ATOM     33  O   UNL     1       4.055   2.069  20.778  0.00  0.00    +0.000 OA
ENDBRANCH  29  31
BRANCH  30  34
ATOM     34  O   UNL     1       5.224   3.430  18.996  0.00  0.00    +0.000 OA
ATOM     35  H   UNL     1       5.764   3.689  18.214  0.00  0.00    +0.000 HD
ENDBRANCH  30  34
BRANCH  25  36
ATOM     36  C   UNL     1       5.541   5.769  17.515  0.00  0.00    +0.000 C 
BRANCH  36  38
ATOM     37  C   UNL     1       7.469   7.386  17.518  0.00  0.00    +0.000 C 
ATOM     38  C   UNL     1       6.863   6.156  18.185  0.00  0.00    +0.000 C 
ENDBRANCH  36  38
ENDBRANCH  25  36
ENDBRANCH  24  26
ENDBRANCH  23  24
ENDBRANCH   1  23
TORSDOF 16
ENDMDL
MODEL 4
REMARK VINA RESULT:      -7.0      3.088     11.422
REMARK  Name = 
REMARK  19 active torsions:
REMARK  status: ('A' for Active; 'I' for Inactive)
REMARK    1  A    between atoms: C_1  and  C_2
REMARK    2  A    between atoms: C_2  and  C_3
REMARK    3  A    between atoms: C_3  and  C_4
REMARK    4  A    between atoms: C_5  and  O_6
REMARK    5  A    between atoms: O_6  and  C_7
REMARK    6  A    between atoms: C_7  and  C_8
REMARK    7  A    between atoms: C_8  and  O_9
REMARK    8  A    between atoms: C_8  and  C_10
REMARK    9  A    between atoms: C_10  and  O_11
REMARK   10  A    between atoms: O_11  and  C_12
REMARK   11  A    between atoms: C_16  and  N_17
REMARK   12  A    between atoms: C_18  and  C_20
REMARK   13  A    between atoms: C_20  and  O_22
REMARK   14  A    between atoms: O_22  and  C_23
REMARK   15  A    between atoms: C_23  and  C_24
REMARK   16  A    between atoms: C_25  and  C_26
REMARK   17  A    between atoms: C_30  and  C_31
REMARK   18  A    between atoms: C_31  and  C_32
REMARK   19  A    between atoms: C_34  and  O_35
REMARK                            x       y       z     vdW  Elec       q    Type
REMARK                         _______ _______ _______ _____ _____    ______ ____
ROOT
ATOM      1  C   UNL     1       1.278   9.361  20.850  0.00  0.00    +0.000 C 
ENDROOT
BRANCH   1   2
ATOM      2  O   UNL     1       1.189  10.317  21.918  0.00  0.00    +0.000 OA
ATOM      3  H   UNL     1       0.243  10.528  22.030  0.00  0.00    +0.000 HD
ENDBRANCH   1   2
BRANCH   1   4
ATOM      4  C   UNL     1       1.526   7.942  21.407  0.00  0.00    +0.000 C 
BRANCH   4   5
ATOM      5  O   UNL     1       1.253   6.968  20.385  0.00  0.00    +0.000 OA
BRANCH   5   6
ATOM      6  C   UNL     1       2.129   5.918  20.228  0.00  0.00    +0.000 A 
ATOM      7  C   UNL     1       1.772   4.782  20.966  0.00  0.00    +0.000 A 
ATOM      8  C   UNL     1       2.503   3.602  20.858  0.00  0.00    +0.000 A 
ATOM      9  C   UNL     1       3.626   3.550  20.035  0.00  0.00    +0.000 A 
ATOM     10  C   UNL     1       4.005   4.653  19.260  0.00  0.00    +0.000 A 
ATOM     11  C   UNL     1       3.212   5.831  19.328  0.00  0.00    +0.000 A 
BRANCH  10  12
ATOM     12  N   UNL     1       5.151   4.594  18.413  0.00  0.00    +0.000 N 
ATOM     13  C   UNL     1       6.436   5.011  18.749  0.00  0.00    +0.000 C 
ATOM     14  O   UNL     1       6.803   5.448  19.831  0.00  0.00    +0.000 OA
ATOM     15  H   UNL     1       5.071   4.146  17.500  0.00  0.00    +0.000 HD
BRANCH  13  16
ATOM     16  C   UNL     1       7.468   4.831  17.612  0.00  0.00    +0.000 C 
ATOM     17  O   UNL     1       8.352   3.996  17.664  0.00  0.00    +0.000 OA
BRANCH  16  18
ATOM     18  O   UNL     1       7.218   5.725  16.633  0.00  0.00    +0.000 OA
BRANCH  18  19
ATOM     19  C   UNL     1       6.228   5.387  15.655  0.00  0.00    +0.000 C 
ATOM     20  C   UNL     1       6.889   4.834  14.407  0.00  0.00    +0.000 C 
ENDBRANCH  18  19
ENDBRANCH  16  18
ENDBRANCH  13  16
ENDBRANCH  10  12
BRANCH  11  21
ATOM     21  C   UNL     1       3.414   6.832  18.332  0.00  0.00    +0.000 C 
ATOM     22  N   UNL     1       3.601   7.614  17.486  0.00  0.00    +0.000 NA
ENDBRANCH  11  21
ENDBRANCH   5   6
ENDBRANCH   4   5
ENDBRANCH   1   4
BRANCH   1  23
ATOM     23  C   UNL     1       0.006   9.443  19.977  0.00  0.00    +0.000 C 
BRANCH  23  24
ATOM     24  O   UNL     1      -0.292  10.794  19.553  0.00  0.00    +0.000 OA
BRANCH  24  26
ATOM     25  C   UNL     1      -2.274  12.155  19.718  0.00  0.00    +0.000 A 
ATOM     26  C   UNL     1      -1.582  11.061  19.150  0.00  0.00    +0.000 A 
ATOM     27  C   UNL     1      -2.210  10.308  18.151  0.00  0.00    +0.000 A 
ATOM     28  C   UNL     1      -3.529  10.560  17.758  0.00  0.00    +0.000 A 
ATOM     29  C   UNL     1      -4.258  11.592  18.343  0.00  0.00    +0.000 A 
ATOM     30  C   UNL     1      -3.615  12.391  19.312  0.00  0.00    +0.000 A 
BRANCH  29  31
ATOM     31  C   UNL     1      -5.684  11.865  17.971  0.00  0.00    +0.000 C 
ATOM     32  C   UNL     1      -6.797  10.902  18.305  0.00  0.00    +0.000 C 
ATOM     33  O   UNL     1      -5.948  12.913  17.375  0.00  0.00    +0.000 OA
ENDBRANCH  29  31
BRANCH  30  34
ATOM     34  O   UNL     1      -4.276  13.441  19.912  0.00  0.00    +0.000 OA
ATOM     35  H   UNL     1      -5.101  13.101  20.327  0.00  0.00    +0.000 HD
ENDBRANCH  30  34
BRANCH  25  36
ATOM     36  C   UNL     1      -1.657  13.055  20.777  0.00  0.00    +0.000 C 
BRANCH  36  38
ATOM     37  C   UNL     1      -2.850  12.263  22.846  0.00  0.00    +0.000 C 
ATOM     38  C   UNL     1      -1.498  12.408  22.156  0.00  0.00    +0.000 C 
ENDBRANCH  36  38
ENDBRANCH  25  36
ENDBRANCH  24  26
ENDBRANCH  23  24
ENDBRANCH   1  23
TORSDOF 16
ENDMDL
MODEL 5
REMARK VINA RESULT:      -6.9      3.965     10.203
REMARK  Name = 
REMARK  19 active torsions:
REMARK  status: ('A' for Active; 'I' for Inactive)
REMARK    1  A    between atoms: C_1  and  C_2
REMARK    2  A    between atoms: C_2  and  C_3
REMARK    3  A    between atoms: C_3  and  C_4
REMARK    4  A    between atoms: C_5  and  O_6
REMARK    5  A    between atoms: O_6  and  C_7
REMARK    6  A    between atoms: C_7  and  C_8
REMARK    7  A    between atoms: C_8  and  O_9
REMARK    8  A    between atoms: C_8  and  C_10
REMARK    9  A    between atoms: C_10  and  O_11
REMARK   10  A    between atoms: O_11  and  C_12
REMARK   11  A    between atoms: C_16  and  N_17
REMARK   12  A    between atoms: C_18  and  C_20
REMARK   13  A    between atoms: C_20  and  O_22
REMARK   14  A    between atoms: O_22  and  C_23
REMARK   15  A    between atoms: C_23  and  C_24
REMARK   16  A    between atoms: C_25  and  C_26
REMARK   17  A    between atoms: C_30  and  C_31
REMARK   18  A    between atoms: C_31  and  C_32
REMARK   19  A    between atoms: C_34  and  O_35
REMARK                            x       y       z     vdW  Elec       q    Type
REMARK                         _______ _______ _______ _____ _____    ______ ____
ROOT
ATOM      1  C   UNL     1      -0.089   9.525  23.122  0.00  0.00    +0.000 C 
ENDROOT
BRANCH   1   2
ATOM      2  O   UNL     1      -1.089   8.508  22.970  0.00  0.00    +0.000 OA
ATOM      3  H   UNL     1      -1.859   8.929  22.544  0.00  0.00    +0.000 HD
ENDBRANCH   1   2
BRANCH   1   4
ATOM      4  C   UNL     1       1.089   9.282  22.153  0.00  0.00    +0.000 C 
BRANCH   4   5
ATOM      5  O   UNL     1       0.824   8.115  21.354  0.00  0.00    +0.000 OA
BRANCH   5   6
ATOM      6  C   UNL     1       1.440   8.004  20.129  0.00  0.00    +0.000 A 
ATOM      7  C   UNL     1       1.539   9.223  19.445  0.00  0.00    +0.000 A 
ATOM      8  C   UNL     1       2.209   9.305  18.226  0.00  0.00    +0.000 A 
ATOM      9  C   UNL     1       2.761   8.160  17.655  0.00  0.00    +0.000 A 
ATOM     10  C   UNL     1       2.708   6.926  18.315  0.00  0.00    +0.000 A 
ATOM     11  C   UNL     1       2.079   6.867  19.589  0.00  0.00    +0.000 A 
BRANCH  10  12
ATOM     12  N   UNL     1       3.280   5.758  17.731  0.00  0.00    +0.000 N 
ATOM     13  C   UNL     1       4.572   5.287  17.946  0.00  0.00    +0.000 C 
ATOM     14  O   UNL     1       5.408   5.765  18.702  0.00  0.00    +0.000 OA
ATOM     15  H   UNL     1       2.693   5.152  17.156  0.00  0.00    +0.000 HD
BRANCH  13  16
ATOM     16  C   UNL     1       4.907   3.999  17.160  0.00  0.00    +0.000 C 
ATOM     17  O   UNL     1       4.191   3.015  17.191  0.00  0.00    +0.000 OA
BRANCH  16  18
ATOM     18  O   UNL     1       6.068   4.169  16.494  0.00  0.00    +0.000 OA
BRANCH  18  19
ATOM     19  C   UNL     1       6.053   4.993  15.323  0.00  0.00    +0.000 C 
ATOM     20  C   UNL     1       5.654   4.176  14.109  0.00  0.00    +0.000 C 
ENDBRANCH  18  19
ENDBRANCH  16  18
ENDBRANCH  13  16
ENDBRANCH  10  12
BRANCH  11  21
ATOM     21  C   UNL     1       2.286   5.702  20.384  0.00  0.00    +0.000 C 
ATOM     22  N   UNL     1       2.416   4.723  21.006  0.00  0.00    +0.000 NA
ENDBRANCH  11  21
ENDBRANCH   5   6
ENDBRANCH   4   5
ENDBRANCH   1   4
BRANCH   1  23
ATOM     23  C   UNL     1      -0.735  10.917  22.934  0.00  0.00    +0.000 C 
BRANCH  23  24
ATOM     24  O   UNL     1      -1.179  11.144  21.576  0.00  0.00    +0.000 OA
BRANCH  24  26
ATOM     25  C   UNL     1      -0.893  12.339  19.502  0.00  0.00    +0.000 A 
ATOM     26  C   UNL     1      -0.492  12.080  20.833  0.00  0.00    +0.000 A 
ATOM     27  C   UNL     1       0.562  12.821  21.380  0.00  0.00    +0.000 A 
ATOM     28  C   UNL     1       1.279  13.752  20.621  0.00  0.00    +0.000 A 
ATOM     29  C   UNL     1       0.948  13.985  19.288  0.00  0.00    +0.000 A 
ATOM     30  C   UNL     1      -0.149  13.283  18.745  0.00  0.00    +0.000 A 
BRANCH  29  31
ATOM     31  C   UNL     1       1.718  14.950  18.437  0.00  0.00    +0.000 C 
ATOM     32  C   UNL     1       1.470  16.437  18.489  0.00  0.00    +0.000 C 
ATOM     33  O   UNL     1       2.581  14.505  17.675  0.00  0.00    +0.000 OA
ENDBRANCH  29  31
BRANCH  30  34
ATOM     34  O   UNL     1      -0.538  13.486  17.439  0.00  0.00    +0.000 OA
ATOM     35  H   UNL     1      -0.946  12.659  17.096  0.00  0.00    +0.000 HD
ENDBRANCH  30  34
BRANCH  25  36
ATOM     36  C   UNL     1      -2.054  11.615  18.840  0.00  0.00    +0.000 C 
BRANCH  36  38
ATOM     37  C   UNL     1      -2.060  10.134  16.805  0.00  0.00    +0.000 C 
ATOM     38  C   UNL     1      -1.714  10.228  18.288  0.00  0.00    +0.000 C 
ENDBRANCH  36  38
ENDBRANCH  25  36
ENDBRANCH  24  26
ENDBRANCH  23  24
ENDBRANCH   1  23
TORSDOF 16
ENDMDL
MODEL 6
REMARK VINA RESULT:      -6.9      2.323      3.033
REMARK  Name = 
REMARK  19 active torsions:
REMARK  status: ('A' for Active; 'I' for Inactive)
REMARK    1  A    between atoms: C_1  and  C_2
REMARK    2  A    between atoms: C_2  and  C_3
REMARK    3  A    between atoms: C_3  and  C_4
REMARK    4  A    between atoms: C_5  and  O_6
REMARK    5  A    between atoms: O_6  and  C_7
REMARK    6  A    between atoms: C_7  and  C_8
REMARK    7  A    between atoms: C_8  and  O_9
REMARK    8  A    between atoms: C_8  and  C_10
REMARK    9  A    between atoms: C_10  and  O_11
REMARK   10  A    between atoms: O_11  and  C_12
REMARK   11  A    between atoms: C_16  and  N_17
REMARK   12  A    between atoms: C_18  and  C_20
REMARK   13  A    between atoms: C_20  and  O_22
REMARK   14  A    between atoms: O_22  and  C_23
REMARK   15  A    between atoms: C_23  and  C_24
REMARK   16  A    between atoms: C_25  and  C_26
REMARK   17  A    between atoms: C_30  and  C_31
REMARK   18  A    between atoms: C_31  and  C_32
REMARK   19  A    between atoms: C_34  and  O_35
REMARK                            x       y       z     vdW  Elec       q    Type
REMARK                         _______ _______ _______ _____ _____    ______ ____
ROOT
ATOM      1  C   UNL     1       1.356   8.131  20.403  0.00  0.00    +0.000 C 
ENDROOT
BRANCH   1   2
ATOM      2  O   UNL     1       1.853   8.638  21.650  0.00  0.00    +0.000 OA
ATOM      3  H   UNL     1       2.329   9.465  21.451  0.00  0.00    +0.000 HD
ENDBRANCH   1   2
BRANCH   1   4
ATOM      4  C   UNL     1       1.268   9.260  19.352  0.00  0.00    +0.000 C 
BRANCH   4   5
ATOM      5  O   UNL     1       1.051  10.519  20.013  0.00  0.00    +0.000 OA
BRANCH   5   6
ATOM      6  C   UNL     1      -0.165  11.143  19.854  0.00  0.00    +0.000 A 
ATOM      7  C   UNL     1      -0.570  11.238  18.516  0.00  0.00    +0.000 A 
ATOM      8  C   UNL     1      -1.815  11.767  18.182  0.00  0.00    +0.000 A 
ATOM      9  C   UNL     1      -2.661  12.242  19.183  0.00  0.00    +0.000 A 
ATOM     10  C   UNL     1      -2.308  12.144  20.534  0.00  0.00    +0.000 A 
ATOM     11  C   UNL     1      -1.064  11.542  20.866  0.00  0.00    +0.000 A 
BRANCH  10  12
ATOM     12  N   UNL     1      -3.180  12.625  21.555  0.00  0.00    +0.000 N 
ATOM     13  C   UNL     1      -3.189  13.915  22.079  0.00  0.00    +0.000 C 
ATOM     14  O   UNL     1      -2.490  14.854  21.722  0.00  0.00    +0.000 OA
ATOM     15  H   UNL     1      -3.922  12.016  21.902  0.00  0.00    +0.000 HD
BRANCH  13  16
ATOM     16  C   UNL     1      -4.245  14.131  23.187  0.00  0.00    +0.000 C 
ATOM     17  O   UNL     1      -4.066  14.904  24.112  0.00  0.00    +0.000 OA
BRANCH  16  18
ATOM     18  O   UNL     1      -5.315  13.346  22.949  0.00  0.00    +0.000 OA
BRANCH  18  19
ATOM     19  C   UNL     1      -5.983  12.765  24.074  0.00  0.00    +0.000 C 
ATOM     20  C   UNL     1      -7.395  13.307  24.185  0.00  0.00    +0.000 C 
ENDBRANCH  18  19
ENDBRANCH  16  18
ENDBRANCH  13  16
ENDBRANCH  10  12
BRANCH  11  21
ATOM     21  C   UNL     1      -0.841  11.173  22.225  0.00  0.00    +0.000 C 
ATOM     22  N   UNL     1      -0.606  10.885  23.332  0.00  0.00    +0.000 NA
ENDBRANCH  11  21
ENDBRANCH   5   6
ENDBRANCH   4   5
ENDBRANCH   1   4
BRANCH   1  23
ATOM     23  C   UNL     1       2.241   6.953  19.935  0.00  0.00    +0.000 C 
BRANCH  23  24
ATOM     24  O   UNL     1       2.184   6.748  18.505  0.00  0.00    +0.000 OA
BRANCH  24  26
ATOM     25  C   UNL     1       3.427   4.923  17.538  0.00  0.00    +0.000 A 
ATOM     26  C   UNL     1       3.326   6.290  17.885  0.00  0.00    +0.000 A 
ATOM     27  C   UNL     1       4.371   7.156  17.539  0.00  0.00    +0.000 A 
ATOM     28  C   UNL     1       5.542   6.690  16.933  0.00  0.00    +0.000 A 
ATOM     29  C   UNL     1       5.698   5.338  16.636  0.00  0.00    +0.000 A 
ATOM     30  C   UNL     1       4.627   4.467  16.930  0.00  0.00    +0.000 A 
BRANCH  29  31
ATOM     31  C   UNL     1       6.955   4.801  16.020  0.00  0.00    +0.000 C 
ATOM     32  C   UNL     1       7.122   4.673  14.526  0.00  0.00    +0.000 C 
ATOM     33  O   UNL     1       7.877   4.459  16.765  0.00  0.00    +0.000 OA
ENDBRANCH  29  31
BRANCH  30  34
ATOM     34  O   UNL     1       4.712   3.123  16.640  0.00  0.00    +0.000 OA
ATOM     35  H   UNL     1       4.128   2.926  15.873  0.00  0.00    +0.000 HD
ENDBRANCH  30  34
BRANCH  25  36
ATOM     36  C   UNL     1       2.324   3.919  17.834  0.00  0.00    +0.000 C 
BRANCH  36  38
ATOM     37  C   UNL     1       2.486   1.804  19.189  0.00  0.00    +0.000 C 
ATOM     38  C   UNL     1       2.360   3.324  19.244  0.00  0.00    +0.000 C 
ENDBRANCH  36  38
ENDBRANCH  25  36
ENDBRANCH  24  26
ENDBRANCH  23  24
ENDBRANCH   1  23
TORSDOF 16
ENDMDL
MODEL 7
REMARK VINA RESULT:      -6.8      3.195      4.716
REMARK  Name = 
REMARK  19 active torsions:
REMARK  status: ('A' for Active; 'I' for Inactive)
REMARK    1  A    between atoms: C_1  and  C_2
REMARK    2  A    between atoms: C_2  and  C_3
REMARK    3  A    between atoms: C_3  and  C_4
REMARK    4  A    between atoms: C_5  and  O_6
REMARK    5  A    between atoms: O_6  and  C_7
REMARK    6  A    between atoms: C_7  and  C_8
REMARK    7  A    between atoms: C_8  and  O_9
REMARK    8  A    between atoms: C_8  and  C_10
REMARK    9  A    between atoms: C_10  and  O_11
REMARK   10  A    between atoms: O_11  and  C_12
REMARK   11  A    between atoms: C_16  and  N_17
REMARK   12  A    between atoms: C_18  and  C_20
REMARK   13  A    between atoms: C_20  and  O_22
REMARK   14  A    between atoms: O_22  and  C_23
REMARK   15  A    between atoms: C_23  and  C_24
REMARK   16  A    between atoms: C_25  and  C_26
REMARK   17  A    between atoms: C_30  and  C_31
REMARK   18  A    between atoms: C_31  and  C_32
REMARK   19  A    between atoms: C_34  and  O_35
REMARK                            x       y       z     vdW  Elec       q    Type
REMARK                         _______ _______ _______ _____ _____    ______ ____
ROOT
ATOM      1  C   UNL     1       1.881   9.685  18.270  0.00  0.00    +0.000 C 
ENDROOT
BRANCH   1   2
ATOM      2  O   UNL     1       2.329  10.681  17.339  0.00  0.00    +0.000 OA
ATOM      3  H   UNL     1       2.031  11.544  17.681  0.00  0.00    +0.000 HD
ENDBRANCH   1   2
BRANCH   1   4
ATOM      4  C   UNL     1       0.420   9.954  18.695  0.00  0.00    +0.000 C 
BRANCH   4   5
ATOM      5  O   UNL     1       0.337  11.229  19.357  0.00  0.00    +0.000 OA
BRANCH   5   6
ATOM      6  C   UNL     1      -0.308  11.298  20.570  0.00  0.00    +0.000 A 
ATOM      7  C   UNL     1      -0.066  10.189  21.391  0.00  0.00    +0.000 A 
ATOM      8  C   UNL     1      -0.575  10.136  22.687  0.00  0.00    +0.000 A 
ATOM      9  C   UNL     1      -1.365  11.178  23.170  0.00  0.00    +0.000 A 
ATOM     10  C   UNL     1      -1.611  12.317  22.393  0.00  0.00    +0.000 A 
ATOM     11  C   UNL     1      -1.032  12.390  21.096  0.00  0.00    +0.000 A 
BRANCH  10  12
ATOM     12  N   UNL     1      -2.414  13.384  22.892  0.00  0.00    +0.000 N 
ATOM     13  C   UNL     1      -1.995  14.376  23.775  0.00  0.00    +0.000 C 
ATOM     14  O   UNL     1      -0.867  14.523  24.229  0.00  0.00    +0.000 OA
ATOM     15  H   UNL     1      -3.362  13.503  22.534  0.00  0.00    +0.000 HD
BRANCH  13  16
ATOM     16  C   UNL     1      -3.100  15.392  24.144  0.00  0.00    +0.000 C 
ATOM     17  O   UNL     1      -3.447  15.585  25.296  0.00  0.00    +0.000 OA
BRANCH  16  18
ATOM     18  O   UNL     1      -3.575  15.968  23.021  0.00  0.00    +0.000 OA
BRANCH  18  19
ATOM     19  C   UNL     1      -4.989  16.165  22.916  0.00  0.00    +0.000 C 
ATOM     20  C   UNL     1      -5.639  14.969  22.245  0.00  0.00    +0.000 C 
ENDBRANCH  18  19
ENDBRANCH  16  18
ENDBRANCH  13  16
ENDBRANCH  10  12
BRANCH  11  21
ATOM     21  C   UNL     1      -1.030  13.652  20.434  0.00  0.00    +0.000 C 
ATOM     22  N   UNL     1      -0.975  14.679  19.882  0.00  0.00    +0.000 NA
ENDBRANCH  11  21
ENDBRANCH   5   6
ENDBRANCH   4   5
ENDBRANCH   1   4
BRANCH   1  23
ATOM     23  C   UNL     1       2.071   8.280  17.654  0.00  0.00    +0.000 C 
BRANCH  23  24
ATOM     24  O   UNL     1       3.437   7.814  17.745  0.00  0.00    +0.000 OA
BRANCH  24  26
ATOM     25  C   UNL     1       4.881   5.891  17.913  0.00  0.00    +0.000 A 
ATOM     26  C   UNL     1       3.637   6.516  18.162  0.00  0.00    +0.000 A 
ATOM     27  C   UNL     1       2.658   5.815  18.876  0.00  0.00    +0.000 A 
ATOM     28  C   UNL     1       2.847   4.489  19.278  0.00  0.00    +0.000 A 
ATOM     29  C   UNL     1       4.038   3.825  18.993  0.00  0.00    +0.000 A 
ATOM     30  C   UNL     1       5.052   4.542  18.323  0.00  0.00    +0.000 A 
BRANCH  29  31
ATOM     31  C   UNL     1       4.259   2.393  19.378  0.00  0.00    +0.000 C 
ATOM     32  C   UNL     1       3.588   1.256  18.648  0.00  0.00    +0.000 C 
ATOM     33  O   UNL     1       5.016   2.145  20.321  0.00  0.00    +0.000 OA
ENDBRANCH  29  31
BRANCH  30  34
ATOM     34  O   UNL     1       6.260   3.947  18.032  0.00  0.00    +0.000 OA
ATOM     35  H   UNL     1       6.138   2.970  18.015  0.00  0.00    +0.000 HD
ENDBRANCH  30  34
BRANCH  25  36
ATOM     36  C   UNL     1       6.018   6.589  17.186  0.00  0.00    +0.000 C 
BRANCH  36  38
ATOM     37  C   UNL     1       7.953   8.131  17.650  0.00  0.00    +0.000 C 
ATOM     38  C   UNL     1       7.275   6.818  18.031  0.00  0.00    +0.000 C 
ENDBRANCH  36  38
ENDBRANCH  25  36
ENDBRANCH  24  26
ENDBRANCH  23  24
ENDBRANCH   1  23
TORSDOF 16
ENDMDL
MODEL 8
REMARK VINA RESULT:      -6.8      1.551      2.219
REMARK  Name = 
REMARK  19 active torsions:
REMARK  status: ('A' for Active; 'I' for Inactive)
REMARK    1  A    between atoms: C_1  and  C_2
REMARK    2  A    between atoms: C_2  and  C_3
REMARK    3  A    between atoms: C_3  and  C_4
REMARK    4  A    between atoms: C_5  and  O_6
REMARK    5  A    between atoms: O_6  and  C_7
REMARK    6  A    between atoms: C_7  and  C_8
REMARK    7  A    between atoms: C_8  and  O_9
REMARK    8  A    between atoms: C_8  and  C_10
REMARK    9  A    between atoms: C_10  and  O_11
REMARK   10  A    between atoms: O_11  and  C_12
REMARK   11  A    between atoms: C_16  and  N_17
REMARK   12  A    between atoms: C_18  and  C_20
REMARK   13  A    between atoms: C_20  and  O_22
REMARK   14  A    between atoms: O_22  and  C_23
REMARK   15  A    between atoms: C_23  and  C_24
REMARK   16  A    between atoms: C_25  and  C_26
REMARK   17  A    between atoms: C_30  and  C_31
REMARK   18  A    between atoms: C_31  and  C_32
REMARK   19  A    between atoms: C_34  and  O_35
REMARK                            x       y       z     vdW  Elec       q    Type
REMARK                         _______ _______ _______ _____ _____    ______ ____
ROOT
ATOM      1  C   UNL     1       0.486   9.023  20.686  0.00  0.00    +0.000 C 
ENDROOT
BRANCH   1   2
ATOM      2  O   UNL     1       0.490   9.941  21.789  0.00  0.00    +0.000 OA
ATOM      3  H   UNL     1       1.231  10.558  21.640  0.00  0.00    +0.000 HD
ENDBRANCH   1   2
BRANCH   1   4
ATOM      4  C   UNL     1       0.713   9.770  19.353  0.00  0.00    +0.000 C 
BRANCH   4   5
ATOM      5  O   UNL     1      -0.109  10.950  19.314  0.00  0.00    +0.000 OA
BRANCH   5   6
ATOM      6  C   UNL     1      -1.236  10.939  18.525  0.00  0.00    +0.000 A 
ATOM      7  C   UNL     1      -1.199   9.965  17.518  0.00  0.00    +0.000 A 
ATOM      8  C   UNL     1      -2.294   9.762  16.681  0.00  0.00    +0.000 A 
ATOM      9  C   UNL     1      -3.432  10.556  16.816  0.00  0.00    +0.000 A 
ATOM     10  C   UNL     1      -3.522  11.524  17.824  0.00  0.00    +0.000 A 
ATOM     11  C   UNL     1      -2.424  11.677  18.714  0.00  0.00    +0.000 A 
BRANCH  10  12
ATOM     12  N   UNL     1      -4.690  12.330  17.963  0.00  0.00    +0.000 N 
ATOM     13  C   UNL     1      -5.987  11.860  18.154  0.00  0.00    +0.000 C 
ATOM     14  O   UNL     1      -6.331  10.692  18.280  0.00  0.00    +0.000 OA
ATOM     15  H   UNL     1      -4.591  13.344  18.003  0.00  0.00    +0.000 HD
BRANCH  13  16
ATOM     16  C   UNL     1      -7.047  12.980  18.257  0.00  0.00    +0.000 C 
ATOM     17  O   UNL     1      -7.884  13.003  19.142  0.00  0.00    +0.000 OA
BRANCH  16  18
ATOM     18  O   UNL     1      -6.881  13.852  17.241  0.00  0.00    +0.000 OA
BRANCH  18  19
ATOM     19  C   UNL     1      -7.916  14.814  17.009  0.00  0.00    +0.000 C 
ATOM     20  C   UNL     1      -7.912  15.251  15.556  0.00  0.00    +0.000 C 
ENDBRANCH  18  19
ENDBRANCH  16  18
ENDBRANCH  13  16
ENDBRANCH  10  12
BRANCH  11  21
ATOM     21  C   UNL     1      -2.628  12.435  19.904  0.00  0.00    +0.000 C 
ATOM     22  N   UNL     1      -2.840  13.077  20.856  0.00  0.00    +0.000 NA
ENDBRANCH  11  21
ENDBRANCH   5   6
ENDBRANCH   4   5
ENDBRANCH   1   4
BRANCH   1  23
ATOM     23  C   UNL     1       1.536   7.915  20.932  0.00  0.00    +0.000 C 
BRANCH  23  24
ATOM     24  O   UNL     1       1.469   6.858  19.947  0.00  0.00    +0.000 OA
BRANCH  24  26
ATOM     25  C   UNL     1       3.381   5.427  19.616  0.00  0.00    +0.000 A 
ATOM     26  C   UNL     1       2.624   6.565  19.254  0.00  0.00    +0.000 A 
ATOM     27  C   UNL     1       3.041   7.337  18.163  0.00  0.00    +0.000 A 
ATOM     28  C   UNL     1       4.226   7.058  17.474  0.00  0.00    +0.000 A 
ATOM     29  C   UNL     1       5.025   5.980  17.846  0.00  0.00    +0.000 A 
ATOM     30  C   UNL     1       4.585   5.163  18.910  0.00  0.00    +0.000 A 
BRANCH  29  31
ATOM     31  C   UNL     1       6.319   5.675  17.152  0.00  0.00    +0.000 C 
ATOM     32  C   UNL     1       7.459   6.662  17.117  0.00  0.00    +0.000 C 
ATOM     33  O   UNL     1       6.448   4.581  16.597  0.00  0.00    +0.000 OA
ENDBRANCH  29  31
BRANCH  30  34
ATOM     34  O   UNL     1       5.321   4.070  19.310  0.00  0.00    +0.000 OA
ATOM     35  H   UNL     1       4.706   3.328  19.511  0.00  0.00    +0.000 HD
ENDBRANCH  30  34
BRANCH  25  36
ATOM     36  C   UNL     1       2.981   4.505  20.757  0.00  0.00    +0.000 C 
BRANCH  36  38
ATOM     37  C   UNL     1       0.785   3.296  20.534  0.00  0.00    +0.000 C 
ATOM     38  C   UNL     1       2.293   3.208  20.323  0.00  0.00    +0.000 C 
ENDBRANCH  36  38
ENDBRANCH  25  36
ENDBRANCH  24  26
ENDBRANCH  23  24
ENDBRANCH   1  23
TORSDOF 16
ENDMDL
MODEL 9
REMARK VINA RESULT:      -6.8      3.116      3.551
REMARK  Name = 
REMARK  19 active torsions:
REMARK  status: ('A' for Active; 'I' for Inactive)
REMARK    1  A    between atoms: C_1  and  C_2
REMARK    2  A    between atoms: C_2  and  C_3
REMARK    3  A    between atoms: C_3  and  C_4
REMARK    4  A    between atoms: C_5  and  O_6
REMARK    5  A    between atoms: O_6  and  C_7
REMARK    6  A    between atoms: C_7  and  C_8
REMARK    7  A    between atoms: C_8  and  O_9
REMARK    8  A    between atoms: C_8  and  C_10
REMARK    9  A    between atoms: C_10  and  O_11
REMARK   10  A    between atoms: O_11  and  C_12
REMARK   11  A    between atoms: C_16  and  N_17
REMARK   12  A    between atoms: C_18  and  C_20
REMARK   13  A    between atoms: C_20  and  O_22
REMARK   14  A    between atoms: O_22  and  C_23
REMARK   15  A    between atoms: C_23  and  C_24
REMARK   16  A    between atoms: C_25  and  C_26
REMARK   17  A    between atoms: C_30  and  C_31
REMARK   18  A    between atoms: C_31  and  C_32
REMARK   19  A    between atoms: C_34  and  O_35
REMARK                            x       y       z     vdW  Elec       q    Type
REMARK                         _______ _______ _______ _____ _____    ______ ____
ROOT
ATOM      1  C   UNL     1       1.875   9.568  18.492  0.00  0.00    +0.000 C 
ENDROOT
BRANCH   1   2
ATOM      2  O   UNL     1       2.067  10.321  17.285  0.00  0.00    +0.000 OA
ATOM      3  H   UNL     1       1.269  10.869  17.164  0.00  0.00    +0.000 HD
ENDBRANCH   1   2
BRANCH   1   4
ATOM      4  C   UNL     1       0.700  10.143  19.313  0.00  0.00    +0.000 C 
BRANCH   4   5
ATOM      5  O   UNL     1       1.177  11.197  20.168  0.00  0.00    +0.000 OA
BRANCH   5   6
ATOM      6  C   UNL     1       0.529  12.410  20.140  0.00  0.00    +0.000 A 
ATOM      7  C   UNL     1       0.644  13.073  18.911  0.00  0.00    +0.000 A 
ATOM      8  C   UNL     1      -0.022  14.275  18.683  0.00  0.00    +0.000 A 
ATOM      9  C   UNL     1      -0.787  14.851  19.696  0.00  0.00    +0.000 A 
ATOM     10  C   UNL     1      -0.951  14.211  20.930  0.00  0.00    +0.000 A 
ATOM     11  C   UNL     1      -0.320  12.953  21.128  0.00  0.00    +0.000 A 
BRANCH  10  12
ATOM     12  N   UNL     1      -1.740  14.800  21.961  0.00  0.00    +0.000 N 
ATOM     13  C   UNL     1      -3.128  14.911  21.964  0.00  0.00    +0.000 C 
ATOM     14  O   UNL     1      -3.897  14.484  21.113  0.00  0.00    +0.000 OA
ATOM     15  H   UNL     1      -1.284  15.112  22.819  0.00  0.00    +0.000 HD
BRANCH  13  16
ATOM     16  C   UNL     1      -3.696  15.611  23.219  0.00  0.00    +0.000 C 
ATOM     17  O   UNL     1      -3.488  16.788  23.457  0.00  0.00    +0.000 OA
BRANCH  16  18
ATOM     18  O   UNL     1      -4.405  14.724  23.947  0.00  0.00    +0.000 OA
BRANCH  18  19
ATOM     19  C   UNL     1      -3.679  13.751  24.708  0.00  0.00    +0.000 C 
ATOM     20  C   UNL     1      -4.354  12.397  24.610  0.00  0.00    +0.000 C 
ENDBRANCH  18  19
ENDBRANCH  16  18
ENDBRANCH  13  16
ENDBRANCH  10  12
BRANCH  11  21
ATOM     21  C   UNL     1      -0.724  12.171  22.250  0.00  0.00    +0.000 C 
ATOM     22  N   UNL     1      -1.030  11.567  23.201  0.00  0.00    +0.000 NA
ENDBRANCH  11  21
ENDBRANCH   5   6
ENDBRANCH   4   5
ENDBRANCH   1   4
BRANCH   1  23
ATOM     23  C   UNL     1       1.682   8.074  18.144  0.00  0.00    +0.000 C 
BRANCH  23  24
ATOM     24  O   UNL     1       2.558   7.209  18.903  0.00  0.00    +0.000 OA
BRANCH  24  26
ATOM     25  C   UNL     1       4.053   5.332  18.677  0.00  0.00    +0.000 A 
ATOM     26  C   UNL     1       3.576   6.581  18.218  0.00  0.00    +0.000 A 
ATOM     27  C   UNL     1       4.116   7.123  17.046  0.00  0.00    +0.000 A 
ATOM     28  C   UNL     1       5.167   6.502  16.363  0.00  0.00    +0.000 A 
ATOM     29  C   UNL     1       5.701   5.301  16.825  0.00  0.00    +0.000 A 
ATOM     30  C   UNL     1       5.125   4.719  17.976  0.00  0.00    +0.000 A 
BRANCH  29  31
ATOM     31  C   UNL     1       6.851   4.628  16.138  0.00  0.00    +0.000 C 
ATOM     32  C   UNL     1       6.776   4.193  14.696  0.00  0.00    +0.000 C 
ATOM     33  O   UNL     1       7.886   4.429  16.779  0.00  0.00    +0.000 OA
ENDBRANCH  29  31
BRANCH  30  34
ATOM     34  O   UNL     1       5.595   3.521  18.469  0.00  0.00    +0.000 OA
ATOM     35  H   UNL     1       5.202   2.786  17.947  0.00  0.00    +0.000 HD
ENDBRANCH  30  34
BRANCH  25  36
ATOM     36  C   UNL     1       3.496   4.646  19.915  0.00  0.00    +0.000 C 
BRANCH  36  38
ATOM     37  C   UNL     1       1.070   4.201  20.411  0.00  0.00    +0.000 C 
ATOM     38  C   UNL     1       2.304   3.722  19.653  0.00  0.00    +0.000 C 
ENDBRANCH  36  38
ENDBRANCH  25  36
ENDBRANCH  24  26
ENDBRANCH  23  24
ENDBRANCH   1  23
TORSDOF 16
ENDMDL
