MODEL 1
REMARK VINA RESULT:      -7.2      0.000      0.000
REMARK  Name = 
REMARK  7 active torsions:
REMARK  status: ('A' for Active; 'I' for Inactive)
REMARK    1  A    between atoms: C_1  and  C_2
REMARK    2  A    between atoms: C_2  and  O_3
REMARK    3  A    between atoms: C_2  and  C_4
REMARK    4  A    between atoms: C_4  and  N_5
REMARK    5  A    between atoms: C_9  and  C_11
REMARK    6  A    between atoms: C_11  and  N_12
REMARK    7  A    between atoms: N_12  and  C_13
REMARK                            x       y       z     vdW  Elec       q    Type
REMARK                         _______ _______ _______ _____ _____    ______ ____
ROOT
ATOM      1  N   UNL     1       2.247   2.011  18.424  0.00  0.00    +0.000 NA
ATOM      2  C   UNL     1       2.598   2.936  17.329  0.00  0.00    +0.000 C 
ATOM      3  C   UNL     1       3.152   4.279  17.823  0.00  0.00    +0.000 C 
ATOM      4  N   UNL     1       4.345   4.077  18.647  0.00  0.00    +0.000 N 
ATOM      5  C   UNL     1       5.402   4.980  18.695  0.00  0.00    +0.000 C 
ATOM      6  O   UNL     1       6.390   4.790  19.413  0.00  0.00    +0.000 OA
ATOM      7  C   UNL     1       4.213   3.061  19.704  0.00  0.00    +0.000 C 
ATOM      8  C   UNL     1       3.467   1.787  19.243  0.00  0.00    +0.000 C 
ENDROOT
BRANCH   1   9
ATOM      9  C   UNL     1       1.125   2.498  19.250  0.00  0.00    +0.000 C 
BRANCH   9  11
ATOM     10  C   UNL     1       1.139   4.676  20.599  0.00  0.00    +0.000 C 
ATOM     11  C   UNL     1       1.516   3.200  20.575  0.00  0.00    +0.000 C 
BRANCH  11  12
ATOM     12  O   UNL     1       0.876   2.535  21.666  0.00  0.00    +0.000 OA
ATOM     13  H   UNL     1       1.063   1.583  21.583  0.00  0.00    +0.000 HD
ENDBRANCH  11  12
ENDBRANCH   9  11
ENDBRANCH   1   9
BRANCH   5  14
ATOM     14  C   UNL     1       5.264   6.277  17.873  0.00  0.00    +0.000 C 
BRANCH  14  15
ATOM     15  N   UNL     1       6.316   6.556  16.879  0.00  0.00    +0.000 N 
ATOM     16  C   UNL     1       7.582   7.169  17.259  0.00  0.00    +0.000 C 
ATOM     17  C   UNL     1       6.384   5.713  15.761  0.00  0.00    +0.000 A 
ATOM     18  C   UNL     1       5.283   4.988  15.278  0.00  0.00    +0.000 A 
ATOM     19  N   UNL     1       5.295   4.192  14.174  0.00  0.00    +0.000 NA
ATOM     20  C   UNL     1       6.472   4.144  13.526  0.00  0.00    +0.000 A 
ATOM     21  C   UNL     1       7.579   4.834  13.977  0.00  0.00    +0.000 A 
ATOM     22  N   UNL     1       7.556   5.611  15.087  0.00  0.00    +0.000 NA
ENDBRANCH  14  15
ENDBRANCH   5  14
TORSDOF 5
ENDMDL
MODEL 2
REMARK VINA RESULT:      -6.9      3.865      7.197
REMARK  Name = 
REMARK  7 active torsions:
REMARK  status: ('A' for Active; 'I' for Inactive)
REMARK    1  A    between atoms: C_1  and  C_2
REMARK    2  A    between atoms: C_2  and  O_3
REMARK    3  A    between atoms: C_2  and  C_4
REMARK    4  A    between atoms: C_4  and  N_5
REMARK    5  A    between atoms: C_9  and  C_11
REMARK    6  A    between atoms: C_11  and  N_12
REMARK    7  A    between atoms: N_12  and  C_13
REMARK                            x       y       z     vdW  Elec       q    Type
REMARK                         _______ _______ _______ _____ _____    ______ ____
ROOT
ATOM      1  N   UNL     1       5.973   4.155  17.016  0.00  0.00    +0.000 NA
ATOM      2  C   UNL     1       6.002   4.853  18.316  0.00  0.00    +0.000 C 
ATOM      3  C   UNL     1       4.811   5.796  18.526  0.00  0.00    +0.000 C 
ATOM      4  N   UNL     1       3.546   5.065  18.431  0.00  0.00    +0.000 N 
ATOM      5  C   UNL     1       2.412   5.400  19.164  0.00  0.00    +0.000 C 
ATOM      6  O   UNL     1       1.353   4.773  19.052  0.00  0.00    +0.000 OA
ATOM      7  C   UNL     1       3.414   4.189  17.255  0.00  0.00    +0.000 C 
ATOM      8  C   UNL     1       4.700   3.392  16.935  0.00  0.00    +0.000 C 
ENDROOT
BRANCH   1   9
ATOM      9  C   UNL     1       6.126   5.072  15.869  0.00  0.00    +0.000 C 
BRANCH   9  11
ATOM     10  C   UNL     1       6.099   3.946  13.568  0.00  0.00    +0.000 C 
ATOM     11  C   UNL     1       6.960   4.533  14.680  0.00  0.00    +0.000 C 
BRANCH  11  12
ATOM     12  O   UNL     1       7.757   5.592  14.147  0.00  0.00    +0.000 OA
ATOM     13  H   UNL     1       7.154   6.292  13.840  0.00  0.00    +0.000 HD
ENDBRANCH  11  12
ENDBRANCH   9  11
ENDBRANCH   1   9
BRANCH   5  14
ATOM     14  C   UNL     1       2.498   6.642  20.073  0.00  0.00    +0.000 C 
BRANCH  14  15
ATOM     15  N   UNL     1       2.091   7.932  19.488  0.00  0.00    +0.000 N 
ATOM     16  C   UNL     1       1.961   8.108  18.048  0.00  0.00    +0.000 C 
ATOM     17  C   UNL     1       1.256   8.753  20.258  0.00  0.00    +0.000 A 
ATOM     18  C   UNL     1       1.197   8.689  21.659  0.00  0.00    +0.000 A 
ATOM     19  N   UNL     1       0.432   9.493  22.446  0.00  0.00    +0.000 NA
ATOM     20  C   UNL     1      -0.290  10.413  21.781  0.00  0.00    +0.000 A 
ATOM     21  C   UNL     1      -0.265  10.499  20.404  0.00  0.00    +0.000 A 
ATOM     22  N   UNL     1       0.490   9.680  19.632  0.00  0.00    +0.000 NA
ENDBRANCH  14  15
ENDBRANCH   5  14
TORSDOF 5
ENDMDL
MODEL 3
REMARK VINA RESULT:      -6.9      2.646      6.526
REMARK  Name = 
REMARK  7 active torsions:
REMARK  status: ('A' for Active; 'I' for Inactive)
REMARK    1  A    between atoms: C_1  and  C_2
REMARK    2  A    between atoms: C_2  and  O_3
REMARK    3  A    between atoms: C_2  and  C_4
REMARK    4  A    between atoms: C_4  and  N_5
REMARK    5  A    between atoms: C_9  and  C_11
REMARK    6  A    between atoms: C_11  and  N_12
REMARK    7  A    between atoms: N_12  and  C_13
REMARK                            x       y       z     vdW  Elec       q    Type
REMARK                         _______ _______ _______ _____ _____    ______ ____
ROOT
ATOM      1  N   UNL     1       6.684   5.589  15.305  0.00  0.00    +0.000 NA
ATOM      2  C   UNL     1       5.238   5.693  15.586  0.00  0.00    +0.000 C 
ATOM      3  C   UNL     1       4.725   4.606  16.539  0.00  0.00    +0.000 C 
ATOM      4  N   UNL     1       5.441   4.654  17.816  0.00  0.00    +0.000 N 
ATOM      5  C   UNL     1       4.855   4.323  19.033  0.00  0.00    +0.000 C 
ATOM      6  O   UNL     1       5.490   4.358  20.094  0.00  0.00    +0.000 OA
ATOM      7  C   UNL     1       6.908   4.711  17.711  0.00  0.00    +0.000 C 
ATOM      8  C   UNL     1       7.409   5.665  16.600  0.00  0.00    +0.000 C 
ENDROOT
BRANCH   1   9
ATOM      9  C   UNL     1       7.036   4.364  14.561  0.00  0.00    +0.000 C 
BRANCH   9  11
ATOM     10  C   UNL     1       7.386   4.830  12.066  0.00  0.00    +0.000 C 
ATOM     11  C   UNL     1       6.458   4.252  13.128  0.00  0.00    +0.000 C 
BRANCH  11  12
ATOM     12  O   UNL     1       6.201   2.879  12.829  0.00  0.00    +0.000 OA
ATOM     13  H   UNL     1       5.354   2.833  12.352  0.00  0.00    +0.000 HD
ENDBRANCH  11  12
ENDBRANCH   9  11
ENDBRANCH   1   9
BRANCH   5  14
ATOM     14  C   UNL     1       3.395   3.830  19.006  0.00  0.00    +0.000 C 
BRANCH  14  15
ATOM     15  N   UNL     1       2.439   4.516  19.894  0.00  0.00    +0.000 N 
ATOM     16  C   UNL     1       2.199   4.057  21.256  0.00  0.00    +0.000 C 
ATOM     17  C   UNL     1       2.249   5.890  19.696  0.00  0.00    +0.000 A 
ATOM     18  C   UNL     1       2.486   6.529  18.468  0.00  0.00    +0.000 A 
ATOM     19  N   UNL     1       2.276   7.850  18.221  0.00  0.00    +0.000 NA
ATOM     20  C   UNL     1       1.788   8.548  19.262  0.00  0.00    +0.000 A 
ATOM     21  C   UNL     1       1.552   7.957  20.487  0.00  0.00    +0.000 A 
ATOM     22  N   UNL     1       1.782   6.643  20.723  0.00  0.00    +0.000 NA
ENDBRANCH  14  15
ENDBRANCH   5  14
TORSDOF 5
ENDMDL
MODEL 4
REMARK VINA RESULT:      -6.8      4.879      7.806
REMARK  Name = 
REMARK  7 active torsions:
REMARK  status: ('A' for Active; 'I' for Inactive)
REMARK    1  A    between atoms: C_1  and  C_2
REMARK    2  A    between atoms: C_2  and  O_3
REMARK    3  A    between atoms: C_2  and  C_4
REMARK    4  A    between atoms: C_4  and  N_5
REMARK    5  A    between atoms: C_9  and  C_11
REMARK    6  A    between atoms: C_11  and  N_12
REMARK    7  A    between atoms: N_12  and  C_13
REMARK                            x       y       z     vdW  Elec       q    Type
REMARK                         _______ _______ _______ _____ _____    ______ ____
ROOT
ATOM      1  N   UNL     1       4.655   4.582  18.096  0.00  0.00    +0.000 NA
ATOM      2  C   UNL     1       3.409   4.708  18.877  0.00  0.00    +0.000 C 
ATOM      3  C   UNL     1       3.144   6.136  19.371  0.00  0.00    +0.000 C 
ATOM      4  N   UNL     1       3.072   7.070  18.246  0.00  0.00    +0.000 N 
ATOM      5  C   UNL     1       2.256   8.197  18.239  0.00  0.00    +0.000 C 
ATOM      6  O   UNL     1       2.228   8.976  17.279  0.00  0.00    +0.000 OA
ATOM      7  C   UNL     1       4.174   6.969  17.275  0.00  0.00    +0.000 C 
ATOM      8  C   UNL     1       4.567   5.511  16.940  0.00  0.00    +0.000 C 
ENDROOT
BRANCH   1   9
ATOM      9  C   UNL     1       5.865   4.837  18.902  0.00  0.00    +0.000 C 
BRANCH   9  11
ATOM     10  C   UNL     1       7.956   6.313  18.783  0.00  0.00    +0.000 C 
ATOM     11  C   UNL     1       7.140   5.219  18.107  0.00  0.00    +0.000 C 
BRANCH  11  12
ATOM     12  O   UNL     1       7.956   4.058  17.941  0.00  0.00    +0.000 OA
ATOM     13  H   UNL     1       7.659   3.392  18.586  0.00  0.00    +0.000 HD
ENDBRANCH  11  12
ENDBRANCH   9  11
ENDBRANCH   1   9
BRANCH   5  14
ATOM     14  C   UNL     1       1.437   8.486  19.512  0.00  0.00    +0.000 C 
BRANCH  14  15
ATOM     15  N   UNL     1       1.103   9.895  19.789  0.00  0.00    +0.000 N 
ATOM     16  C   UNL     1       0.966  10.871  18.716  0.00  0.00    +0.000 C 
ATOM     17  C   UNL     1       0.329  10.161  20.927  0.00  0.00    +0.000 A 
ATOM     18  C   UNL     1       0.283   9.306  22.040  0.00  0.00    +0.000 A 
ATOM     19  N   UNL     1      -0.421   9.546  23.180  0.00  0.00    +0.000 NA
ATOM     20  C   UNL     1      -1.093  10.710  23.194  0.00  0.00    +0.000 A 
ATOM     21  C   UNL     1      -1.080  11.570  22.115  0.00  0.00    +0.000 A 
ATOM     22  N   UNL     1      -0.387  11.311  20.979  0.00  0.00    +0.000 NA
ENDBRANCH  14  15
ENDBRANCH   5  14
TORSDOF 5
ENDMDL
MODEL 5
REMARK VINA RESULT:      -6.8      2.177      6.409
REMARK  Name = 
REMARK  7 active torsions:
REMARK  status: ('A' for Active; 'I' for Inactive)
REMARK    1  A    between atoms: C_1  and  C_2
REMARK    2  A    between atoms: C_2  and  O_3
REMARK    3  A    between atoms: C_2  and  C_4
REMARK    4  A    between atoms: C_4  and  N_5
REMARK    5  A    between atoms: C_9  and  C_11
REMARK    6  A    between atoms: C_11  and  N_12
REMARK    7  A    between atoms: N_12  and  C_13
REMARK                            x       y       z     vdW  Elec       q    Type
REMARK                         _______ _______ _______ _____ _____    ______ ____
ROOT
ATOM      1  N   UNL     1       6.618   5.144  14.787  0.00  0.00    +0.000 NA
ATOM      2  C   UNL     1       5.681   6.220  15.165  0.00  0.00    +0.000 C 
ATOM      3  C   UNL     1       4.736   5.828  16.308  0.00  0.00    +0.000 C 
ATOM      4  N   UNL     1       5.493   5.444  17.501  0.00  0.00    +0.000 N 
ATOM      5  C   UNL     1       5.041   5.668  18.798  0.00  0.00    +0.000 C 
ATOM      6  O   UNL     1       5.696   5.318  19.786  0.00  0.00    +0.000 OA
ATOM      7  C   UNL     1       6.582   4.480  17.270  0.00  0.00    +0.000 C 
ATOM      8  C   UNL     1       7.404   4.776  15.994  0.00  0.00    +0.000 C 
ENDROOT
BRANCH   1   9
ATOM      9  C   UNL     1       5.938   3.969  14.208  0.00  0.00    +0.000 C 
BRANCH   9  11
ATOM     10  C   UNL     1       5.318   3.199  11.844  0.00  0.00    +0.000 C 
ATOM     11  C   UNL     1       6.448   3.510  12.818  0.00  0.00    +0.000 C 
BRANCH  11  12
ATOM     12  O   UNL     1       7.280   4.530  12.261  0.00  0.00    +0.000 OA
ATOM     13  H   UNL     1       6.698   5.207  11.872  0.00  0.00    +0.000 HD
ENDBRANCH  11  12
ENDBRANCH   9  11
ENDBRANCH   1   9
BRANCH   5  14
ATOM     14  C   UNL     1       3.646   6.301  18.962  0.00  0.00    +0.000 C 
BRANCH  14  15
ATOM     15  N   UNL     1       2.709   5.632  19.882  0.00  0.00    +0.000 N 
ATOM     16  C   UNL     1       1.885   6.388  20.815  0.00  0.00    +0.000 C 
ATOM     17  C   UNL     1       2.154   4.415  19.461  0.00  0.00    +0.000 A 
ATOM     18  C   UNL     1       2.771   3.574  18.522  0.00  0.00    +0.000 A 
ATOM     19  N   UNL     1       2.289   2.368  18.117  0.00  0.00    +0.000 NA
ATOM     20  C   UNL     1       1.139   1.994  18.705  0.00  0.00    +0.000 A 
ATOM     21  C   UNL     1       0.498   2.798  19.625  0.00  0.00    +0.000 A 
ATOM     22  N   UNL     1       0.982   4.005  20.007  0.00  0.00    +0.000 NA
ENDBRANCH  14  15
ENDBRANCH   5  14
TORSDOF 5
ENDMDL
MODEL 6
REMARK VINA RESULT:      -6.7      5.682      7.392
REMARK  Name = 
REMARK  7 active torsions:
REMARK  status: ('A' for Active; 'I' for Inactive)
REMARK    1  A    between atoms: C_1  and  C_2
REMARK    2  A    between atoms: C_2  and  O_3
REMARK    3  A    between atoms: C_2  and  C_4
REMARK    4  A    between atoms: C_4  and  N_5
REMARK    5  A    between atoms: C_9  and  C_11
REMARK    6  A    between atoms: C_11  and  N_12
REMARK    7  A    between atoms: N_12  and  C_13
REMARK                            x       y       z     vdW  Elec       q    Type
REMARK                         _______ _______ _______ _____ _____    ______ ____
ROOT
ATOM      1  N   UNL     1       3.353   5.427  18.436  0.00  0.00    +0.000 NA
ATOM      2  C   UNL     1       3.393   6.821  17.951  0.00  0.00    +0.000 C 
ATOM      3  C   UNL     1       2.142   7.628  18.321  0.00  0.00    +0.000 C 
ATOM      4  N   UNL     1       1.951   7.657  19.772  0.00  0.00    +0.000 N 
ATOM      5  C   UNL     1       1.392   8.736  20.448  0.00  0.00    +0.000 C 
ATOM      6  O   UNL     1       1.230   8.726  21.674  0.00  0.00    +0.000 OA
ATOM      7  C   UNL     1       2.037   6.349  20.443  0.00  0.00    +0.000 C 
ATOM      8  C   UNL     1       3.187   5.460  19.913  0.00  0.00    +0.000 C 
ENDROOT
BRANCH   1   9
ATOM      9  C   UNL     1       2.293   4.626  17.793  0.00  0.00    +0.000 C 
BRANCH   9  11
ATOM     10  C   UNL     1       0.816   2.850  18.900  0.00  0.00    +0.000 C 
ATOM     11  C   UNL     1       2.170   3.157  18.272  0.00  0.00    +0.000 C 
BRANCH  11  12
ATOM     12  O   UNL     1       2.383   2.281  17.164  0.00  0.00    +0.000 OA
ATOM     13  H   UNL     1       1.863   2.620  16.414  0.00  0.00    +0.000 HD
ENDBRANCH  11  12
ENDBRANCH   9  11
ENDBRANCH   1   9
BRANCH   5  14
ATOM     14  C   UNL     1       0.904   9.927  19.601  0.00  0.00    +0.000 C 
BRANCH  14  15
ATOM     15  N   UNL     1      -0.441  10.454  19.894  0.00  0.00    +0.000 N 
ATOM     16  C   UNL     1      -0.676  11.368  21.004  0.00  0.00    +0.000 C 
ATOM     17  C   UNL     1      -1.324  10.599  18.816  0.00  0.00    +0.000 A 
ATOM     18  C   UNL     1      -1.223   9.848  17.634  0.00  0.00    +0.000 A 
ATOM     19  N   UNL     1      -2.081   9.928  16.581  0.00  0.00    +0.000 NA
ATOM     20  C   UNL     1      -3.096  10.795  16.745  0.00  0.00    +0.000 A 
ATOM     21  C   UNL     1      -3.223  11.558  17.888  0.00  0.00    +0.000 A 
ATOM     22  N   UNL     1      -2.350  11.479  18.922  0.00  0.00    +0.000 NA
ENDBRANCH  14  15
ENDBRANCH   5  14
TORSDOF 5
ENDMDL
MODEL 7
REMARK VINA RESULT:      -6.6      4.952      6.241
REMARK  Name = 
REMARK  7 active torsions:
REMARK  status: ('A' for Active; 'I' for Inactive)
REMARK    1  A    between atoms: C_1  and  C_2
REMARK    2  A    between atoms: C_2  and  O_3
REMARK    3  A    between atoms: C_2  and  C_4
REMARK    4  A    between atoms: C_4  and  N_5
REMARK    5  A    between atoms: C_9  and  C_11
REMARK    6  A    between atoms: C_11  and  N_12
REMARK    7  A    between atoms: N_12  and  C_13
REMARK                            x       y       z     vdW  Elec       q    Type
REMARK                         _______ _______ _______ _____ _____    ______ ____
ROOT
ATOM      1  N   UNL     1       0.025  10.638  19.498  0.00  0.00    +0.000 NA
ATOM      2  C   UNL     1       0.338   9.948  18.231  0.00  0.00    +0.000 C 
ATOM      3  C   UNL     1       1.693   9.229  18.250  0.00  0.00    +0.000 C 
ATOM      4  N   UNL     1       1.743   8.242  19.331  0.00  0.00    +0.000 N 
ATOM      5  C   UNL     1       2.456   7.051  19.245  0.00  0.00    +0.000 C 
ATOM      6  O   UNL     1       2.492   6.243  20.181  0.00  0.00    +0.000 OA
ATOM      7  C   UNL     1       1.309   8.733  20.649  0.00  0.00    +0.000 C 
ATOM      8  C   UNL     1       0.049   9.629  20.588  0.00  0.00    +0.000 C 
ENDROOT
BRANCH   1   9
ATOM      9  C   UNL     1       0.942  11.760  19.781  0.00  0.00    +0.000 C 
BRANCH   9  11
ATOM     10  C   UNL     1       0.260  14.007  18.756  0.00  0.00    +0.000 C 
ATOM     11  C   UNL     1       1.146  12.774  18.627  0.00  0.00    +0.000 C 
BRANCH  11  12
ATOM     12  O   UNL     1       2.515  13.182  18.595  0.00  0.00    +0.000 OA
ATOM     13  H   UNL     1       2.799  13.195  17.664  0.00  0.00    +0.000 HD
ENDBRANCH  11  12
ENDBRANCH   9  11
ENDBRANCH   1   9
BRANCH   5  14
ATOM     14  C   UNL     1       3.273   6.804  17.962  0.00  0.00    +0.000 C 
BRANCH  14  15
ATOM     15  N   UNL     1       3.655   5.411  17.667  0.00  0.00    +0.000 N 
ATOM     16  C   UNL     1       2.657   4.357  17.541  0.00  0.00    +0.000 C 
ATOM     17  C   UNL     1       4.820   5.210  16.913  0.00  0.00    +0.000 A 
ATOM     18  C   UNL     1       5.870   6.141  16.860  0.00  0.00    +0.000 A 
ATOM     19  N   UNL     1       7.033   5.968  16.176  0.00  0.00    +0.000 NA
ATOM     20  C   UNL     1       7.141   4.792  15.534  0.00  0.00    +0.000 A 
ATOM     21  C   UNL     1       6.126   3.856  15.555  0.00  0.00    +0.000 A 
ATOM     22  N   UNL     1       4.965   4.050  16.228  0.00  0.00    +0.000 NA
ENDBRANCH  14  15
ENDBRANCH   5  14
TORSDOF 5
ENDMDL
MODEL 8
REMARK VINA RESULT:      -6.6      4.563      7.382
REMARK  Name = 
REMARK  7 active torsions:
REMARK  status: ('A' for Active; 'I' for Inactive)
REMARK    1  A    between atoms: C_1  and  C_2
REMARK    2  A    between atoms: C_2  and  O_3
REMARK    3  A    between atoms: C_2  and  C_4
REMARK    4  A    between atoms: C_4  and  N_5
REMARK    5  A    between atoms: C_9  and  C_11
REMARK    6  A    between atoms: C_11  and  N_12
REMARK    7  A    between atoms: N_12  and  C_13
REMARK                            x       y       z     vdW  Elec       q    Type
REMARK                         _______ _______ _______ _____ _____    ______ ____
ROOT
ATOM      1  N   UNL     1       5.876   5.095  17.325  0.00  0.00    +0.000 NA
ATOM      2  C   UNL     1       5.680   6.522  17.648  0.00  0.00    +0.000 C 
ATOM      3  C   UNL     1       4.203   6.926  17.738  0.00  0.00    +0.000 C 
ATOM      4  N   UNL     1       3.507   6.130  18.752  0.00  0.00    +0.000 N 
ATOM      5  C   UNL     1       2.455   6.620  19.519  0.00  0.00    +0.000 C 
ATOM      6  O   UNL     1       1.877   5.920  20.357  0.00  0.00    +0.000 OA
ATOM      7  C   UNL     1       3.724   4.676  18.666  0.00  0.00    +0.000 C 
ATOM      8  C   UNL     1       5.193   4.290  18.371  0.00  0.00    +0.000 C 
ENDROOT
BRANCH   1   9
ATOM      9  C   UNL     1       5.399   4.742  15.974  0.00  0.00    +0.000 C 
BRANCH   9  11
ATOM     10  C   UNL     1       5.912   3.876  13.618  0.00  0.00    +0.000 C 
ATOM     11  C   UNL     1       6.482   4.252  14.980  0.00  0.00    +0.000 C 
BRANCH  11  12
ATOM     12  O   UNL     1       7.463   5.278  14.811  0.00  0.00    +0.000 OA
ATOM     13  H   UNL     1       7.200   5.816  14.043  0.00  0.00    +0.000 HD
ENDBRANCH  11  12
ENDBRANCH   9  11
ENDBRANCH   1   9
BRANCH   5  14
ATOM     14  C   UNL     1       1.979   8.057  19.231  0.00  0.00    +0.000 C 
BRANCH  14  15
ATOM     15  N   UNL     1       1.116   8.694  20.244  0.00  0.00    +0.000 N 
ATOM     16  C   UNL     1       1.483   8.716  21.653  0.00  0.00    +0.000 C 
ATOM     17  C   UNL     1       0.322   9.771  19.826  0.00  0.00    +0.000 A 
ATOM     18  C   UNL     1      -0.086   9.953  18.495  0.00  0.00    +0.000 A 
ATOM     19  N   UNL     1      -0.889  10.960  18.055  0.00  0.00    +0.000 NA
ATOM     20  C   UNL     1      -1.309  11.806  19.012  0.00  0.00    +0.000 A 
ATOM     21  C   UNL     1      -0.922  11.664  20.329  0.00  0.00    +0.000 A 
ATOM     22  N   UNL     1      -0.107  10.665  20.750  0.00  0.00    +0.000 NA
ENDBRANCH  14  15
ENDBRANCH   5  14
TORSDOF 5
ENDMDL
MODEL 9
REMARK VINA RESULT:      -6.6      5.017      6.807
REMARK  Name = 
REMARK  7 active torsions:
REMARK  status: ('A' for Active; 'I' for Inactive)
REMARK    1  A    between atoms: C_1  and  C_2
REMARK    2  A    between atoms: C_2  and  O_3
REMARK    3  A    between atoms: C_2  and  C_4
REMARK    4  A    between atoms: C_4  and  N_5
REMARK    5  A    between atoms: C_9  and  C_11
REMARK    6  A    between atoms: C_11  and  N_12
REMARK    7  A    between atoms: N_12  and  C_13
REMARK                            x       y       z     vdW  Elec       q    Type
REMARK                         _______ _______ _______ _____ _____    ______ ____
ROOT
ATOM      1  N   UNL     1       0.243  10.953  19.821  0.00  0.00    +0.000 NA
ATOM      2  C   UNL     1       0.914  10.028  20.755  0.00  0.00    +0.000 C 
ATOM      3  C   UNL     1       1.113   8.620  20.178  0.00  0.00    +0.000 C 
ATOM      4  N   UNL     1       1.900   8.671  18.944  0.00  0.00    +0.000 N 
ATOM      5  C   UNL     1       2.772   7.661  18.552  0.00  0.00    +0.000 C 
ATOM      6  O   UNL     1       3.412   7.725  17.497  0.00  0.00    +0.000 OA
ATOM      7  C   UNL     1       1.451   9.664  17.954  0.00  0.00    +0.000 C 
ATOM      8  C   UNL     1       1.059  11.023  18.581  0.00  0.00    +0.000 C 
ENDROOT
BRANCH   1   9
ATOM      9  C   UNL     1      -1.150  10.562  19.529  0.00  0.00    +0.000 C 
BRANCH   9  11
ATOM     10  C   UNL     1      -2.975  10.470  17.733  0.00  0.00    +0.000 C 
ATOM     11  C   UNL     1      -1.807  11.260  18.311  0.00  0.00    +0.000 C 
BRANCH  11  12
ATOM     12  O   UNL     1      -2.265  12.556  18.701  0.00  0.00    +0.000 OA
ATOM     13  H   UNL     1      -2.086  13.167  17.965  0.00  0.00    +0.000 HD
ENDBRANCH  11  12
ENDBRANCH   9  11
ENDBRANCH   1   9
BRANCH   5  14
ATOM     14  C   UNL     1       2.857   6.410  19.449  0.00  0.00    +0.000 C 
BRANCH  14  15
ATOM     15  N   UNL     1       3.699   5.298  18.972  0.00  0.00    +0.000 N 
ATOM     16  C   UNL     1       5.124   5.240  19.266  0.00  0.00    +0.000 C 
ATOM     17  C   UNL     1       3.082   4.050  18.806  0.00  0.00    +0.000 A 
ATOM     18  C   UNL     1       1.705   3.900  18.573  0.00  0.00    +0.000 A 
ATOM     19  N   UNL     1       1.073   2.712  18.366  0.00  0.00    +0.000 NA
ATOM     20  C   UNL     1       1.878   1.635  18.379  0.00  0.00    +0.000 A 
ATOM     21  C   UNL     1       3.234   1.743  18.614  0.00  0.00    +0.000 A 
ATOM     22  N   UNL     1       3.847   2.932  18.836  0.00  0.00    +0.000 NA
ENDBRANCH  14  15
ENDBRANCH   5  14
TORSDOF 5
ENDMDL
