MODEL 1
REMARK VINA RESULT:      -7.9      0.000      0.000
REMARK  Name = 
REMARK  6 active torsions:
REMARK  status: ('A' for Active; 'I' for Inactive)
REMARK    1  A    between atoms: N_3  and  C_4
REMARK    2  A    between atoms: C_4  and  C_5
REMARK    3  A    between atoms: C_5  and  C_6
REMARK    4  A    between atoms: C_6  and  C_7
REMARK    5  A    between atoms: C_7  and  C_8
REMARK    6  A    between atoms: C_16  and  C_17
REMARK                            x       y       z     vdW  Elec       q    Type
REMARK                         _______ _______ _______ _____ _____    ______ ____
ROOT
ATOM      1  O   UNL     1       3.052   5.883  19.974  0.00  0.00    +0.000 OA
ATOM      2  C   UNL     1       2.954   6.751  19.106  0.00  0.00    +0.000 C 
ATOM      3  N   UNL     1       3.629   6.674  17.915  0.00  0.00    +0.000 N 
ATOM      4  N   UNL     1       2.172   7.887  19.269  0.00  0.00    +0.000 N 
ATOM      5  C   UNL     1       1.528   8.186  20.428  0.00  0.00    +0.000 A 
ATOM      6  C   UNL     1       0.871   9.324  20.228  0.00  0.00    +0.000 A 
ATOM      7  O   UNL     1       1.033   9.832  18.925  0.00  0.00    +0.000 OA
ATOM      8  C   UNL     1       1.869   8.883  18.345  0.00  0.00    +0.000 A 
ATOM      9  O   UNL     1       2.252   8.949  17.182  0.00  0.00    +0.000 OA
ATOM     10  H   UNL     1       3.386   7.342  17.186  0.00  0.00    +0.000 HD
ENDROOT
BRANCH   6  11
ATOM     11  C   UNL     1       0.040  10.070  21.174  0.00  0.00    +0.000 A 
ATOM     12  C   UNL     1      -0.716  11.182  20.783  0.00  0.00    +0.000 A 
ATOM     13  C   UNL     1      -1.496  11.866  21.713  0.00  0.00    +0.000 A 
ATOM     14  C   UNL     1      -1.501  11.417  23.020  0.00  0.00    +0.000 A 
ATOM     15  N   UNL     1      -0.793  10.350  23.446  0.00  0.00    +0.000 NA
ATOM     16  C   UNL     1      -0.044   9.705  22.517  0.00  0.00    +0.000 A 
ENDBRANCH   6  11
BRANCH   3  17
ATOM     17  C   UNL     1       4.449   5.537  17.558  0.00  0.00    +0.000 C 
BRANCH  17  18
ATOM     18  C   UNL     1       3.625   4.394  16.967  0.00  0.00    +0.000 C 
BRANCH  18  19
ATOM     19  C   UNL     1       4.217   3.020  17.304  0.00  0.00    +0.000 C 
BRANCH  19  20
ATOM     20  C   UNL     1       3.130   2.030  17.725  0.00  0.00    +0.000 C 
BRANCH  20  21
ATOM     21  C   UNL     1       2.518   2.404  19.053  0.00  0.00    +0.000 A 
ATOM     22  C   UNL     1       1.186   2.831  19.123  0.00  0.00    +0.000 A 
ATOM     23  C   UNL     1       0.625   3.201  20.347  0.00  0.00    +0.000 A 
ATOM     24  C   UNL     1       1.390   3.150  21.511  0.00  0.00    +0.000 A 
ATOM     25  C   UNL     1       2.717   2.728  21.451  0.00  0.00    +0.000 A 
ATOM     26  C   UNL     1       3.280   2.359  20.228  0.00  0.00    +0.000 A 
ENDBRANCH  20  21
ENDBRANCH  19  20
ENDBRANCH  18  19
ENDBRANCH  17  18
ENDBRANCH   3  17
TORSDOF 6
ENDMDL
MODEL 2
REMARK VINA RESULT:      -7.7      4.821      6.529
REMARK  Name = 
REMARK  6 active torsions:
REMARK  status: ('A' for Active; 'I' for Inactive)
REMARK    1  A    between atoms: N_3  and  C_4
REMARK    2  A    between atoms: C_4  and  C_5
REMARK    3  A    between atoms: C_5  and  C_6
REMARK    4  A    between atoms: C_6  and  C_7
REMARK    5  A    between atoms: C_7  and  C_8
REMARK    6  A    between atoms: C_16  and  C_17
REMARK                            x       y       z     vdW  Elec       q    Type
REMARK                         _______ _______ _______ _____ _____    ______ ____
ROOT
ATOM      1  O   UNL     1       5.932   6.643  15.650  0.00  0.00    +0.000 OA
ATOM      2  C   UNL     1       6.445   6.171  16.666  0.00  0.00    +0.000 C 
ATOM      3  N   UNL     1       6.235   4.873  17.055  0.00  0.00    +0.000 N 
ATOM      4  N   UNL     1       7.257   6.916  17.511  0.00  0.00    +0.000 N 
ATOM      5  C   UNL     1       7.478   8.247  17.346  0.00  0.00    +0.000 A 
ATOM      6  C   UNL     1       8.303   8.630  18.313  0.00  0.00    +0.000 A 
ATOM      7  O   UNL     1       8.684   7.573  19.163  0.00  0.00    +0.000 OA
ATOM      8  C   UNL     1       7.995   6.497  18.613  0.00  0.00    +0.000 A 
ATOM      9  O   UNL     1       8.063   5.358  19.062  0.00  0.00    +0.000 OA
ATOM     10  H   UNL     1       6.806   4.505  17.814  0.00  0.00    +0.000 HD
ENDROOT
BRANCH   6  11
ATOM     11  C   UNL     1       8.831   9.969  18.579  0.00  0.00    +0.000 A 
ATOM     12  C   UNL     1       8.698  11.016  17.659  0.00  0.00    +0.000 A 
ATOM     13  C   UNL     1       9.212  12.278  17.947  0.00  0.00    +0.000 A 
ATOM     14  C   UNL     1       9.850  12.463  19.159  0.00  0.00    +0.000 A 
ATOM     15  N   UNL     1      10.001  11.489  20.080  0.00  0.00    +0.000 NA
ATOM     16  C   UNL     1       9.490  10.272  19.769  0.00  0.00    +0.000 A 
ENDBRANCH   6  11
BRANCH   3  17
ATOM     17  C   UNL     1       5.457   3.942  16.268  0.00  0.00    +0.000 C 
BRANCH  17  18
ATOM     18  C   UNL     1       4.001   3.876  16.725  0.00  0.00    +0.000 C 
BRANCH  18  19
ATOM     19  C   UNL     1       3.595   5.107  17.544  0.00  0.00    +0.000 C 
BRANCH  19  20
ATOM     20  C   UNL     1       2.119   5.055  17.941  0.00  0.00    +0.000 C 
BRANCH  20  21
ATOM     21  C   UNL     1       1.907   4.234  19.190  0.00  0.00    +0.000 A 
ATOM     22  C   UNL     1       1.157   3.051  19.141  0.00  0.00    +0.000 A 
ATOM     23  C   UNL     1       0.940   2.303  20.299  0.00  0.00    +0.000 A 
ATOM     24  C   UNL     1       1.467   2.729  21.517  0.00  0.00    +0.000 A 
ATOM     25  C   UNL     1       2.214   3.905  21.576  0.00  0.00    +0.000 A 
ATOM     26  C   UNL     1       2.430   4.656  20.419  0.00  0.00    +0.000 A 
ENDBRANCH  20  21
ENDBRANCH  19  20
ENDBRANCH  18  19
ENDBRANCH  17  18
ENDBRANCH   3  17
TORSDOF 6
ENDMDL
MODEL 3
REMARK VINA RESULT:      -7.6      0.376      1.014
REMARK  Name = 
REMARK  6 active torsions:
REMARK  status: ('A' for Active; 'I' for Inactive)
REMARK    1  A    between atoms: N_3  and  C_4
REMARK    2  A    between atoms: C_4  and  C_5
REMARK    3  A    between atoms: C_5  and  C_6
REMARK    4  A    between atoms: C_6  and  C_7
REMARK    5  A    between atoms: C_7  and  C_8
REMARK    6  A    between atoms: C_16  and  C_17
REMARK                            x       y       z     vdW  Elec       q    Type
REMARK                         _______ _______ _______ _____ _____    ______ ____
ROOT
ATOM      1  O   UNL     1       3.297   5.774  20.109  0.00  0.00    +0.000 OA
ATOM      2  C   UNL     1       3.158   6.589  19.195  0.00  0.00    +0.000 C 
ATOM      3  N   UNL     1       3.812   6.463  17.997  0.00  0.00    +0.000 N 
ATOM      4  N   UNL     1       2.347   7.710  19.310  0.00  0.00    +0.000 N 
ATOM      5  C   UNL     1       1.717   8.058  20.464  0.00  0.00    +0.000 A 
ATOM      6  C   UNL     1       1.025   9.163  20.214  0.00  0.00    +0.000 A 
ATOM      7  O   UNL     1       1.147   9.601  18.881  0.00  0.00    +0.000 OA
ATOM      8  C   UNL     1       1.998   8.643  18.339  0.00  0.00    +0.000 A 
ATOM      9  O   UNL     1       2.357   8.654  17.167  0.00  0.00    +0.000 OA
ATOM     10  H   UNL     1       3.536   7.082  17.237  0.00  0.00    +0.000 HD
ENDROOT
BRANCH   6  11
ATOM     11  C   UNL     1       0.191   9.939  21.134  0.00  0.00    +0.000 A 
ATOM     12  C   UNL     1      -0.639  10.976  20.690  0.00  0.00    +0.000 A 
ATOM     13  C   UNL     1      -1.419  11.691  21.597  0.00  0.00    +0.000 A 
ATOM     14  C   UNL     1      -1.349  11.348  22.933  0.00  0.00    +0.000 A 
ATOM     15  N   UNL     1      -0.568  10.357  23.410  0.00  0.00    +0.000 NA
ATOM     16  C   UNL     1       0.178   9.679  22.504  0.00  0.00    +0.000 A 
ENDBRANCH   6  11
BRANCH   3  17
ATOM     17  C   UNL     1       4.657   5.331  17.688  0.00  0.00    +0.000 C 
BRANCH  17  18
ATOM     18  C   UNL     1       4.048   4.432  16.613  0.00  0.00    +0.000 C 
BRANCH  18  19
ATOM     19  C   UNL     1       3.975   2.966  17.057  0.00  0.00    +0.000 C 
BRANCH  19  20
ATOM     20  C   UNL     1       2.548   2.566  17.438  0.00  0.00    +0.000 C 
BRANCH  20  21
ATOM     21  C   UNL     1       2.314   2.686  18.924  0.00  0.00    +0.000 A 
ATOM     22  C   UNL     1       3.345   2.402  19.829  0.00  0.00    +0.000 A 
ATOM     23  C   UNL     1       3.124   2.489  21.204  0.00  0.00    +0.000 A 
ATOM     24  C   UNL     1       1.871   2.859  21.689  0.00  0.00    +0.000 A 
ATOM     25  C   UNL     1       0.837   3.143  20.797  0.00  0.00    +0.000 A 
ATOM     26  C   UNL     1       1.056   3.055  19.421  0.00  0.00    +0.000 A 
ENDBRANCH  20  21
ENDBRANCH  19  20
ENDBRANCH  18  19
ENDBRANCH  17  18
ENDBRANCH   3  17
TORSDOF 6
ENDMDL
MODEL 4
REMARK VINA RESULT:      -7.6      0.706      1.069
REMARK  Name = 
REMARK  6 active torsions:
REMARK  status: ('A' for Active; 'I' for Inactive)
REMARK    1  A    between atoms: N_3  and  C_4
REMARK    2  A    between atoms: C_4  and  C_5
REMARK    3  A    between atoms: C_5  and  C_6
REMARK    4  A    between atoms: C_6  and  C_7
REMARK    5  A    between atoms: C_7  and  C_8
REMARK    6  A    between atoms: C_16  and  C_17
REMARK                            x       y       z     vdW  Elec       q    Type
REMARK                         _______ _______ _______ _____ _____    ______ ____
ROOT
ATOM      1  O   UNL     1       3.392   5.709  20.152  0.00  0.00    +0.000 OA
ATOM      2  C   UNL     1       3.252   6.508  19.225  0.00  0.00    +0.000 C 
ATOM      3  N   UNL     1       3.931   6.380  18.041  0.00  0.00    +0.000 N 
ATOM      4  N   UNL     1       2.415   7.612  19.310  0.00  0.00    +0.000 N 
ATOM      5  C   UNL     1       1.756   7.961  20.447  0.00  0.00    +0.000 A 
ATOM      6  C   UNL     1       1.044   9.048  20.169  0.00  0.00    +0.000 A 
ATOM      7  O   UNL     1       1.182   9.470  18.832  0.00  0.00    +0.000 OA
ATOM      8  C   UNL     1       2.064   8.524  18.319  0.00  0.00    +0.000 A 
ATOM      9  O   UNL     1       2.444   8.526  17.153  0.00  0.00    +0.000 OA
ATOM     10  H   UNL     1       3.656   6.982  17.267  0.00  0.00    +0.000 HD
ENDROOT
BRANCH   6  11
ATOM     11  C   UNL     1       0.177   9.817  21.063  0.00  0.00    +0.000 A 
ATOM     12  C   UNL     1      -0.030   9.447  22.397  0.00  0.00    +0.000 A 
ATOM     13  C   UNL     1      -0.862  10.205  23.218  0.00  0.00    +0.000 A 
ATOM     14  C   UNL     1      -1.469  11.323  22.680  0.00  0.00    +0.000 A 
ATOM     15  N   UNL     1      -1.300  11.723  21.403  0.00  0.00    +0.000 NA
ATOM     16  C   UNL     1      -0.485  10.965  20.629  0.00  0.00    +0.000 A 
ENDBRANCH   6  11
BRANCH   3  17
ATOM     17  C   UNL     1       4.806   5.263  17.763  0.00  0.00    +0.000 C 
BRANCH  17  18
ATOM     18  C   UNL     1       4.317   4.426  16.582  0.00  0.00    +0.000 C 
BRANCH  18  19
ATOM     19  C   UNL     1       2.959   3.772  16.859  0.00  0.00    +0.000 C 
BRANCH  19  20
ATOM     20  C   UNL     1       3.112   2.477  17.658  0.00  0.00    +0.000 C 
BRANCH  20  21
ATOM     21  C   UNL     1       2.555   2.614  19.054  0.00  0.00    +0.000 A 
ATOM     22  C   UNL     1       1.239   3.055  19.251  0.00  0.00    +0.000 A 
ATOM     23  C   UNL     1       0.729   3.205  20.541  0.00  0.00    +0.000 A 
ATOM     24  C   UNL     1       1.527   2.918  21.647  0.00  0.00    +0.000 A 
ATOM     25  C   UNL     1       2.838   2.480  21.462  0.00  0.00    +0.000 A 
ATOM     26  C   UNL     1       3.350   2.330  20.172  0.00  0.00    +0.000 A 
ENDBRANCH  20  21
ENDBRANCH  19  20
ENDBRANCH  18  19
ENDBRANCH  17  18
ENDBRANCH   3  17
TORSDOF 6
ENDMDL
MODEL 5
REMARK VINA RESULT:      -7.5      4.548      6.874
REMARK  Name = 
REMARK  6 active torsions:
REMARK  status: ('A' for Active; 'I' for Inactive)
REMARK    1  A    between atoms: N_3  and  C_4
REMARK    2  A    between atoms: C_4  and  C_5
REMARK    3  A    between atoms: C_5  and  C_6
REMARK    4  A    between atoms: C_6  and  C_7
REMARK    5  A    between atoms: C_7  and  C_8
REMARK    6  A    between atoms: C_16  and  C_17
REMARK                            x       y       z     vdW  Elec       q    Type
REMARK                         _______ _______ _______ _____ _____    ______ ____
ROOT
ATOM      1  O   UNL     1       5.561   6.747  15.721  0.00  0.00    +0.000 OA
ATOM      2  C   UNL     1       6.143   6.235  16.679  0.00  0.00    +0.000 C 
ATOM      3  N   UNL     1       5.936   4.932  17.049  0.00  0.00    +0.000 N 
ATOM      4  N   UNL     1       7.038   6.940  17.473  0.00  0.00    +0.000 N 
ATOM      5  C   UNL     1       7.276   8.270  17.326  0.00  0.00    +0.000 A 
ATOM      6  C   UNL     1       8.186   8.608  18.233  0.00  0.00    +0.000 A 
ATOM      7  O   UNL     1       8.609   7.520  19.020  0.00  0.00    +0.000 OA
ATOM      8  C   UNL     1       7.853   6.475  18.500  0.00  0.00    +0.000 A 
ATOM      9  O   UNL     1       7.932   5.322  18.912  0.00  0.00    +0.000 OA
ATOM     10  H   UNL     1       6.558   4.531  17.749  0.00  0.00    +0.000 HD
ENDROOT
BRANCH   6  11
ATOM     11  C   UNL     1       8.764   9.928  18.490  0.00  0.00    +0.000 A 
ATOM     12  C   UNL     1       8.586  11.001  17.608  0.00  0.00    +0.000 A 
ATOM     13  C   UNL     1       9.151  12.244  17.887  0.00  0.00    +0.000 A 
ATOM     14  C   UNL     1       9.883  12.383  19.050  0.00  0.00    +0.000 A 
ATOM     15  N   UNL     1      10.081  11.382  19.932  0.00  0.00    +0.000 NA
ATOM     16  C   UNL     1       9.518  10.185  19.633  0.00  0.00    +0.000 A 
ENDBRANCH   6  11
BRANCH   3  17
ATOM     17  C   UNL     1       5.075   4.039  16.304  0.00  0.00    +0.000 C 
BRANCH  17  18
ATOM     18  C   UNL     1       4.152   3.234  17.216  0.00  0.00    +0.000 C 
BRANCH  18  19
ATOM     19  C   UNL     1       2.822   3.952  17.473  0.00  0.00    +0.000 C 
BRANCH  19  20
ATOM     20  C   UNL     1       2.686   4.374  18.936  0.00  0.00    +0.000 C 
BRANCH  20  21
ATOM     21  C   UNL     1       2.412   5.853  19.066  0.00  0.00    +0.000 A 
ATOM     22  C   UNL     1       1.951   6.384  20.278  0.00  0.00    +0.000 A 
ATOM     23  C   UNL     1       1.675   7.747  20.393  0.00  0.00    +0.000 A 
ATOM     24  C   UNL     1       1.854   8.593  19.300  0.00  0.00    +0.000 A 
ATOM     25  C   UNL     1       2.311   8.074  18.089  0.00  0.00    +0.000 A 
ATOM     26  C   UNL     1       2.587   6.710  17.971  0.00  0.00    +0.000 A 
ENDBRANCH  20  21
ENDBRANCH  19  20
ENDBRANCH  18  19
ENDBRANCH  17  18
ENDBRANCH   3  17
TORSDOF 6
ENDMDL
MODEL 6
REMARK VINA RESULT:      -7.5      3.404      8.443
REMARK  Name = 
REMARK  6 active torsions:
REMARK  status: ('A' for Active; 'I' for Inactive)
REMARK    1  A    between atoms: N_3  and  C_4
REMARK    2  A    between atoms: C_4  and  C_5
REMARK    3  A    between atoms: C_5  and  C_6
REMARK    4  A    between atoms: C_6  and  C_7
REMARK    5  A    between atoms: C_7  and  C_8
REMARK    6  A    between atoms: C_16  and  C_17
REMARK                            x       y       z     vdW  Elec       q    Type
REMARK                         _______ _______ _______ _____ _____    ______ ____
ROOT
ATOM      1  O   UNL     1       2.471   2.774  17.601  0.00  0.00    +0.000 OA
ATOM      2  C   UNL     1       3.479   3.219  18.153  0.00  0.00    +0.000 C 
ATOM      3  N   UNL     1       3.560   3.370  19.513  0.00  0.00    +0.000 N 
ATOM      4  N   UNL     1       4.603   3.621  17.445  0.00  0.00    +0.000 N 
ATOM      5  C   UNL     1       4.655   3.652  16.087  0.00  0.00    +0.000 A 
ATOM      6  C   UNL     1       5.871   4.070  15.751  0.00  0.00    +0.000 A 
ATOM      7  O   UNL     1       6.692   4.327  16.866  0.00  0.00    +0.000 OA
ATOM      8  C   UNL     1       5.844   4.025  17.926  0.00  0.00    +0.000 A 
ATOM      9  O   UNL     1       6.185   4.108  19.101  0.00  0.00    +0.000 OA
ATOM     10  H   UNL     1       4.469   3.597  19.913  0.00  0.00    +0.000 HD
ENDROOT
BRANCH   6  11
ATOM     11  C   UNL     1       6.418   4.285  14.411  0.00  0.00    +0.000 A 
ATOM     12  C   UNL     1       6.019   3.513  13.313  0.00  0.00    +0.000 A 
ATOM     13  C   UNL     1       6.562   3.749  12.051  0.00  0.00    +0.000 A 
ATOM     14  C   UNL     1       7.496   4.758  11.919  0.00  0.00    +0.000 A 
ATOM     15  N   UNL     1       7.911   5.530  12.944  0.00  0.00    +0.000 NA
ATOM     16  C   UNL     1       7.364   5.277  14.159  0.00  0.00    +0.000 A 
ENDBRANCH   6  11
BRANCH   3  17
ATOM     17  C   UNL     1       2.501   2.956  20.407  0.00  0.00    +0.000 C 
BRANCH  17  18
ATOM     18  C   UNL     1       1.991   4.108  21.270  0.00  0.00    +0.000 C 
BRANCH  18  19
ATOM     19  C   UNL     1       1.454   5.270  20.426  0.00  0.00    +0.000 C 
BRANCH  19  20
ATOM     20  C   UNL     1       2.568   6.245  20.039  0.00  0.00    +0.000 C 
BRANCH  20  21
ATOM     21  C   UNL     1       2.015   7.579  19.604  0.00  0.00    +0.000 A 
ATOM     22  C   UNL     1       2.209   8.033  18.293  0.00  0.00    +0.000 A 
ATOM     23  C   UNL     1       1.719   9.278  17.895  0.00  0.00    +0.000 A 
ATOM     24  C   UNL     1       1.031  10.082  18.802  0.00  0.00    +0.000 A 
ATOM     25  C   UNL     1       0.833   9.640  20.109  0.00  0.00    +0.000 A 
ATOM     26  C   UNL     1       1.324   8.396  20.510  0.00  0.00    +0.000 A 
ENDBRANCH  20  21
ENDBRANCH  19  20
ENDBRANCH  18  19
ENDBRANCH  17  18
ENDBRANCH   3  17
TORSDOF 6
ENDMDL
MODEL 7
REMARK VINA RESULT:      -7.5      4.476      6.763
REMARK  Name = 
REMARK  6 active torsions:
REMARK  status: ('A' for Active; 'I' for Inactive)
REMARK    1  A    between atoms: N_3  and  C_4
REMARK    2  A    between atoms: C_4  and  C_5
REMARK    3  A    between atoms: C_5  and  C_6
REMARK    4  A    between atoms: C_6  and  C_7
REMARK    5  A    between atoms: C_7  and  C_8
REMARK    6  A    between atoms: C_16  and  C_17
REMARK                            x       y       z     vdW  Elec       q    Type
REMARK                         _______ _______ _______ _____ _____    ______ ____
ROOT
ATOM      1  O   UNL     1       5.632   6.355  15.698  0.00  0.00    +0.000 OA
ATOM      2  C   UNL     1       6.216   5.907  16.686  0.00  0.00    +0.000 C 
ATOM      3  N   UNL     1       6.059   4.610  17.101  0.00  0.00    +0.000 N 
ATOM      4  N   UNL     1       7.062   6.680  17.469  0.00  0.00    +0.000 N 
ATOM      5  C   UNL     1       7.244   8.013  17.276  0.00  0.00    +0.000 A 
ATOM      6  C   UNL     1       8.119   8.425  18.186  0.00  0.00    +0.000 A 
ATOM      7  O   UNL     1       8.574   7.388  19.023  0.00  0.00    +0.000 OA
ATOM      8  C   UNL     1       7.876   6.290  18.529  0.00  0.00    +0.000 A 
ATOM      9  O   UNL     1       7.997   5.159  18.985  0.00  0.00    +0.000 OA
ATOM     10  H   UNL     1       6.684   4.264  17.828  0.00  0.00    +0.000 HD
ENDROOT
BRANCH   6  11
ATOM     11  C   UNL     1       8.633   9.779  18.403  0.00  0.00    +0.000 A 
ATOM     12  C   UNL     1       9.550  10.071  19.420  0.00  0.00    +0.000 A 
ATOM     13  C   UNL     1      10.017  11.372  19.596  0.00  0.00    +0.000 A 
ATOM     14  C   UNL     1       9.552  12.354  18.742  0.00  0.00    +0.000 A 
ATOM     15  N   UNL     1       8.672  12.124  17.746  0.00  0.00    +0.000 NA
ATOM     16  C   UNL     1       8.236  10.848  17.601  0.00  0.00    +0.000 A 
ENDBRANCH   6  11
BRANCH   3  17
ATOM     17  C   UNL     1       5.254   3.652  16.375  0.00  0.00    +0.000 C 
BRANCH  17  18
ATOM     18  C   UNL     1       4.224   2.968  17.271  0.00  0.00    +0.000 C 
BRANCH  18  19
ATOM     19  C   UNL     1       2.814   3.537  17.071  0.00  0.00    +0.000 C 
BRANCH  19  20
ATOM     20  C   UNL     1       2.066   3.661  18.399  0.00  0.00    +0.000 C 
BRANCH  20  21
ATOM     21  C   UNL     1       2.087   5.078  18.920  0.00  0.00    +0.000 A 
ATOM     22  C   UNL     1       1.706   5.353  20.240  0.00  0.00    +0.000 A 
ATOM     23  C   UNL     1       1.702   6.665  20.716  0.00  0.00    +0.000 A 
ATOM     24  C   UNL     1       2.076   7.715  19.879  0.00  0.00    +0.000 A 
ATOM     25  C   UNL     1       2.455   7.452  18.563  0.00  0.00    +0.000 A 
ATOM     26  C   UNL     1       2.458   6.140  18.085  0.00  0.00    +0.000 A 
ENDBRANCH  20  21
ENDBRANCH  19  20
ENDBRANCH  18  19
ENDBRANCH  17  18
ENDBRANCH   3  17
TORSDOF 6
ENDMDL
MODEL 8
REMARK VINA RESULT:      -7.5      4.471      6.642
REMARK  Name = 
REMARK  6 active torsions:
REMARK  status: ('A' for Active; 'I' for Inactive)
REMARK    1  A    between atoms: N_3  and  C_4
REMARK    2  A    between atoms: C_4  and  C_5
REMARK    3  A    between atoms: C_5  and  C_6
REMARK    4  A    between atoms: C_6  and  C_7
REMARK    5  A    between atoms: C_7  and  C_8
REMARK    6  A    between atoms: C_16  and  C_17
REMARK                            x       y       z     vdW  Elec       q    Type
REMARK                         _______ _______ _______ _____ _____    ______ ____
ROOT
ATOM      1  O   UNL     1       5.356   6.516  15.874  0.00  0.00    +0.000 OA
ATOM      2  C   UNL     1       5.986   6.047  16.823  0.00  0.00    +0.000 C 
ATOM      3  N   UNL     1       5.807   4.759  17.254  0.00  0.00    +0.000 N 
ATOM      4  N   UNL     1       6.911   6.789  17.546  0.00  0.00    +0.000 N 
ATOM      5  C   UNL     1       7.131   8.114  17.335  0.00  0.00    +0.000 A 
ATOM      6  C   UNL     1       8.079   8.493  18.183  0.00  0.00    +0.000 A 
ATOM      7  O   UNL     1       8.548   7.441  18.993  0.00  0.00    +0.000 OA
ATOM      8  C   UNL     1       7.778   6.370  18.551  0.00  0.00    +0.000 A 
ATOM      9  O   UNL     1       7.885   5.236  19.004  0.00  0.00    +0.000 OA
ATOM     10  H   UNL     1       6.465   4.390  17.939  0.00  0.00    +0.000 HD
ENDROOT
BRANCH   6  11
ATOM     11  C   UNL     1       8.658   9.826  18.360  0.00  0.00    +0.000 A 
ATOM     12  C   UNL     1       9.638  10.089  19.325  0.00  0.00    +0.000 A 
ATOM     13  C   UNL     1      10.166  11.371  19.463  0.00  0.00    +0.000 A 
ATOM     14  C   UNL     1       9.697  12.365  18.625  0.00  0.00    +0.000 A 
ATOM     15  N   UNL     1       8.757  12.163  17.679  0.00  0.00    +0.000 NA
ATOM     16  C   UNL     1       8.264  10.904  17.570  0.00  0.00    +0.000 A 
ENDBRANCH   6  11
BRANCH   3  17
ATOM     17  C   UNL     1       4.920   3.831  16.587  0.00  0.00    +0.000 C 
BRANCH  17  18
ATOM     18  C   UNL     1       4.396   2.752  17.532  0.00  0.00    +0.000 C 
BRANCH  18  19
ATOM     19  C   UNL     1       2.871   2.611  17.460  0.00  0.00    +0.000 C 
BRANCH  19  20
ATOM     20  C   UNL     1       2.197   3.950  17.153  0.00  0.00    +0.000 C 
BRANCH  20  21
ATOM     21  C   UNL     1       2.061   4.801  18.392  0.00  0.00    +0.000 A 
ATOM     22  C   UNL     1       2.463   6.143  18.377  0.00  0.00    +0.000 A 
ATOM     23  C   UNL     1       2.360   6.926  19.528  0.00  0.00    +0.000 A 
ATOM     24  C   UNL     1       1.857   6.376  20.705  0.00  0.00    +0.000 A 
ATOM     25  C   UNL     1       1.455   5.042  20.732  0.00  0.00    +0.000 A 
ATOM     26  C   UNL     1       1.558   4.256  19.582  0.00  0.00    +0.000 A 
ENDBRANCH  20  21
ENDBRANCH  19  20
ENDBRANCH  18  19
ENDBRANCH  17  18
ENDBRANCH   3  17
TORSDOF 6
ENDMDL
MODEL 9
REMARK VINA RESULT:      -7.5      4.467      6.852
REMARK  Name = 
REMARK  6 active torsions:
REMARK  status: ('A' for Active; 'I' for Inactive)
REMARK    1  A    between atoms: N_3  and  C_4
REMARK    2  A    between atoms: C_4  and  C_5
REMARK    3  A    between atoms: C_5  and  C_6
REMARK    4  A    between atoms: C_6  and  C_7
REMARK    5  A    between atoms: C_7  and  C_8
REMARK    6  A    between atoms: C_16  and  C_17
REMARK                            x       y       z     vdW  Elec       q    Type
REMARK                         _______ _______ _______ _____ _____    ______ ____
ROOT
ATOM      1  O   UNL     1       5.442   6.593  15.730  0.00  0.00    +0.000 OA
ATOM      2  C   UNL     1       6.049   6.091  16.678  0.00  0.00    +0.000 C 
ATOM      3  N   UNL     1       5.863   4.787  17.057  0.00  0.00    +0.000 N 
ATOM      4  N   UNL     1       6.953   6.808  17.451  0.00  0.00    +0.000 N 
ATOM      5  C   UNL     1       7.173   8.140  17.294  0.00  0.00    +0.000 A 
ATOM      6  C   UNL     1       8.098   8.491  18.180  0.00  0.00    +0.000 A 
ATOM      7  O   UNL     1       8.550   7.411  18.962  0.00  0.00    +0.000 OA
ATOM      8  C   UNL     1       7.794   6.355  18.462  0.00  0.00    +0.000 A 
ATOM      9  O   UNL     1       7.894   5.205  18.876  0.00  0.00    +0.000 OA
ATOM     10  H   UNL     1       6.504   4.395  17.745  0.00  0.00    +0.000 HD
ENDROOT
BRANCH   6  11
ATOM     11  C   UNL     1       8.667   9.818  18.420  0.00  0.00    +0.000 A 
ATOM     12  C   UNL     1       9.542  10.070  19.484  0.00  0.00    +0.000 A 
ATOM     13  C   UNL     1      10.064  11.347  19.680  0.00  0.00    +0.000 A 
ATOM     14  C   UNL     1       9.696  12.346  18.800  0.00  0.00    +0.000 A 
ATOM     15  N   UNL     1       8.860  12.154  17.759  0.00  0.00    +0.000 NA
ATOM     16  C   UNL     1       8.369  10.901  17.595  0.00  0.00    +0.000 A 
ENDBRANCH   6  11
BRANCH   3  17
ATOM     17  C   UNL     1       4.997   3.883  16.333  0.00  0.00    +0.000 C 
BRANCH  17  18
ATOM     18  C   UNL     1       3.886   3.318  17.217  0.00  0.00    +0.000 C 
BRANCH  18  19
ATOM     19  C   UNL     1       3.989   3.812  18.664  0.00  0.00    +0.000 C 
BRANCH  19  20
ATOM     20  C   UNL     1       2.614   4.155  19.240  0.00  0.00    +0.000 C 
BRANCH  20  21
ATOM     21  C   UNL     1       2.361   5.643  19.230  0.00  0.00    +0.000 A 
ATOM     22  C   UNL     1       2.568   6.389  18.062  0.00  0.00    +0.000 A 
ATOM     23  C   UNL     1       2.357   7.768  18.056  0.00  0.00    +0.000 A 
ATOM     24  C   UNL     1       1.940   8.417  19.217  0.00  0.00    +0.000 A 
ATOM     25  C   UNL     1       1.731   7.684  20.385  0.00  0.00    +0.000 A 
ATOM     26  C   UNL     1       1.943   6.304  20.393  0.00  0.00    +0.000 A 
ENDBRANCH  20  21
ENDBRANCH  19  20
ENDBRANCH  18  19
ENDBRANCH  17  18
ENDBRANCH   3  17
TORSDOF 6
ENDMDL
