MODEL 1
REMARK VINA RESULT:      -7.7      0.000      0.000
REMARK  Name = 
REMARK  8 active torsions:
REMARK  status: ('A' for Active; 'I' for Inactive)
REMARK    1  A    between atoms: C_5  and  C_6
REMARK    2  A    between atoms: C_6  and  N_7
REMARK    3  A    between atoms: N_7  and  C_8
REMARK    4  A    between atoms: N_7  and  C_19
REMARK    5  A    between atoms: C_8  and  C_9
REMARK    6  A    between atoms: C_9  and  N_10
REMARK    7  A    between atoms: C_19  and  C_20
REMARK    8  A    between atoms: C_20  and  N_21
REMARK                            x       y       z     vdW  Elec       q    Type
REMARK                         _______ _______ _______ _____ _____    ______ ____
ROOT
ATOM      1  N   UNL     1       5.178   5.454  16.633  0.00  0.00    +0.000 NA
ENDROOT
BRANCH   1   2
ATOM      2  C   UNL     1       6.267   5.719  15.643  0.00  0.00    +0.000 C 
BRANCH   2   7
ATOM      3 CL   UNL     1       6.091   1.893  11.018  0.00  0.00    +0.000 Cl
ATOM      4  C   UNL     1       6.077   3.123  12.220  0.00  0.00    +0.000 A 
ATOM      5  C   UNL     1       4.962   3.277  13.040  0.00  0.00    +0.000 A 
ATOM      6  C   UNL     1       5.001   4.190  14.094  0.00  0.00    +0.000 A 
ATOM      7  C   UNL     1       6.175   4.918  14.364  0.00  0.00    +0.000 A 
ATOM      8  C   UNL     1       7.240   4.836  13.449  0.00  0.00    +0.000 A 
ATOM      9 CL   UNL     1       8.654   5.822  13.588  0.00  0.00    +0.000 Cl
ATOM     10  C   UNL     1       7.194   3.935  12.386  0.00  0.00    +0.000 A 
ENDBRANCH   2   7
ENDBRANCH   1   2
BRANCH   1  11
ATOM     11  C   UNL     1       5.585   4.416  17.626  0.00  0.00    +0.000 C 
BRANCH  11  12
ATOM     12  C   UNL     1       4.818   3.081  17.502  0.00  0.00    +0.000 C 
BRANCH  12  13
ATOM     13  N   UNL     1       3.426   3.196  17.893  0.00  0.00    +0.000 N 
ATOM     14  C   UNL     1       2.383   3.516  17.074  0.00  0.00    +0.000 A 
ATOM     15  N   UNL     1       1.249   3.583  17.737  0.00  0.00    +0.000 NA
ATOM     16  C   UNL     1       1.573   3.288  19.039  0.00  0.00    +0.000 A 
ATOM     17  C   UNL     1       0.750   3.194  20.171  0.00  0.00    +0.000 A 
ATOM     18  C   UNL     1       1.330   2.854  21.401  0.00  0.00    +0.000 A 
ATOM     19  C   UNL     1       2.704   2.630  21.508  0.00  0.00    +0.000 A 
ATOM     20  C   UNL     1       3.542   2.736  20.394  0.00  0.00    +0.000 A 
ATOM     21  C   UNL     1       2.939   3.050  19.172  0.00  0.00    +0.000 A 
ENDBRANCH  12  13
ENDBRANCH  11  12
ENDBRANCH   1  11
BRANCH   1  22
ATOM     22  C   UNL     1       4.850   6.724  17.339  0.00  0.00    +0.000 C 
BRANCH  22  23
ATOM     23  C   UNL     1       3.743   6.587  18.388  0.00  0.00    +0.000 C 
BRANCH  23  24
ATOM     24  N   UNL     1       2.804   7.690  18.342  0.00  0.00    +0.000 N 
ATOM     25  C   UNL     1       2.670   8.575  17.313  0.00  0.00    +0.000 A 
ATOM     26  N   UNL     1       1.801   9.517  17.604  0.00  0.00    +0.000 NA
ATOM     27  C   UNL     1       1.364   9.230  18.872  0.00  0.00    +0.000 A 
ATOM     28  C   UNL     1       0.453   9.920  19.685  0.00  0.00    +0.000 A 
ATOM     29  C   UNL     1       0.176   9.416  20.961  0.00  0.00    +0.000 A 
ATOM     30  C   UNL     1       0.789   8.252  21.424  0.00  0.00    +0.000 A 
ATOM     31  C   UNL     1       1.700   7.549  20.632  0.00  0.00    +0.000 A 
ATOM     32  C   UNL     1       1.967   8.073  19.354  0.00  0.00    +0.000 A 
ENDBRANCH  23  24
ENDBRANCH  22  23
ENDBRANCH   1  22
TORSDOF 8
ENDMDL
MODEL 2
REMARK VINA RESULT:      -7.5      2.218      3.708
REMARK  Name = 
REMARK  8 active torsions:
REMARK  status: ('A' for Active; 'I' for Inactive)
REMARK    1  A    between atoms: C_5  and  C_6
REMARK    2  A    between atoms: C_6  and  N_7
REMARK    3  A    between atoms: N_7  and  C_8
REMARK    4  A    between atoms: N_7  and  C_19
REMARK    5  A    between atoms: C_8  and  C_9
REMARK    6  A    between atoms: C_9  and  N_10
REMARK    7  A    between atoms: C_19  and  C_20
REMARK    8  A    between atoms: C_20  and  N_21
REMARK                            x       y       z     vdW  Elec       q    Type
REMARK                         _______ _______ _______ _____ _____    ______ ____
ROOT
ATOM      1  N   UNL     1       2.509   6.181  19.578  0.00  0.00    +0.000 NA
ENDROOT
BRANCH   1   2
ATOM      2  C   UNL     1       3.988   5.989  19.681  0.00  0.00    +0.000 C 
BRANCH   2   7
ATOM      3 CL   UNL     1       6.406   3.502  14.779  0.00  0.00    +0.000 Cl
ATOM      4  C   UNL     1       5.771   4.384  16.112  0.00  0.00    +0.000 A 
ATOM      5  C   UNL     1       4.437   4.784  16.105  0.00  0.00    +0.000 A 
ATOM      6  C   UNL     1       3.892   5.388  17.238  0.00  0.00    +0.000 A 
ATOM      7  C   UNL     1       4.666   5.550  18.402  0.00  0.00    +0.000 A 
ATOM      8  C   UNL     1       6.039   5.253  18.342  0.00  0.00    +0.000 A 
ATOM      9 CL   UNL     1       7.113   5.583  19.656  0.00  0.00    +0.000 Cl
ATOM     10  C   UNL     1       6.587   4.664  17.203  0.00  0.00    +0.000 A 
ENDBRANCH   2   7
ENDBRANCH   1   2
BRANCH   1  11
ATOM     11  C   UNL     1       1.800   5.593  20.752  0.00  0.00    +0.000 C 
BRANCH  11  12
ATOM     12  C   UNL     1       0.924   4.365  20.418  0.00  0.00    +0.000 C 
BRANCH  12  13
ATOM     13  N   UNL     1       1.543   3.482  19.449  0.00  0.00    +0.000 N 
ATOM     14  C   UNL     1       1.087   3.220  18.190  0.00  0.00    +0.000 A 
ATOM     15  N   UNL     1       1.847   2.344  17.572  0.00  0.00    +0.000 NA
ATOM     16  C   UNL     1       2.840   2.029  18.468  0.00  0.00    +0.000 A 
ATOM     17  C   UNL     1       3.935   1.163  18.330  0.00  0.00    +0.000 A 
ATOM     18  C   UNL     1       4.829   1.029  19.401  0.00  0.00    +0.000 A 
ATOM     19  C   UNL     1       4.630   1.729  20.593  0.00  0.00    +0.000 A 
ATOM     20  C   UNL     1       3.535   2.584  20.754  0.00  0.00    +0.000 A 
ATOM     21  C   UNL     1       2.670   2.722  19.664  0.00  0.00    +0.000 A 
ENDBRANCH  12  13
ENDBRANCH  11  12
ENDBRANCH   1  11
BRANCH   1  22
ATOM     22  C   UNL     1       2.219   7.639  19.495  0.00  0.00    +0.000 C 
BRANCH  22  23
ATOM     23  C   UNL     1       1.463   8.195  20.706  0.00  0.00    +0.000 C 
BRANCH  23  24
ATOM     24  N   UNL     1       0.639   9.336  20.362  0.00  0.00    +0.000 N 
ATOM     25  C   UNL     1       0.572   9.924  19.133  0.00  0.00    +0.000 A 
ATOM     26  N   UNL     1      -0.193  10.993  19.157  0.00  0.00    +0.000 NA
ATOM     27  C   UNL     1      -0.630  11.099  20.454  0.00  0.00    +0.000 A 
ATOM     28  C   UNL     1      -1.449  12.070  21.047  0.00  0.00    +0.000 A 
ATOM     29  C   UNL     1      -1.748  11.954  22.410  0.00  0.00    +0.000 A 
ATOM     30  C   UNL     1      -1.244  10.899  23.170  0.00  0.00    +0.000 A 
ATOM     31  C   UNL     1      -0.425   9.921  22.600  0.00  0.00    +0.000 A 
ATOM     32  C   UNL     1      -0.134  10.057  21.230  0.00  0.00    +0.000 A 
ENDBRANCH  23  24
ENDBRANCH  22  23
ENDBRANCH   1  22
TORSDOF 8
ENDMDL
MODEL 3
REMARK VINA RESULT:      -7.5      3.865      7.688
REMARK  Name = 
REMARK  8 active torsions:
REMARK  status: ('A' for Active; 'I' for Inactive)
REMARK    1  A    between atoms: C_5  and  C_6
REMARK    2  A    between atoms: C_6  and  N_7
REMARK    3  A    between atoms: N_7  and  C_8
REMARK    4  A    between atoms: N_7  and  C_19
REMARK    5  A    between atoms: C_8  and  C_9
REMARK    6  A    between atoms: C_9  and  N_10
REMARK    7  A    between atoms: C_19  and  C_20
REMARK    8  A    between atoms: C_20  and  N_21
REMARK                            x       y       z     vdW  Elec       q    Type
REMARK                         _______ _______ _______ _____ _____    ______ ____
ROOT
ATOM      1  N   UNL     1       2.102   8.048  19.715  0.00  0.00    +0.000 NA
ENDROOT
BRANCH   1   2
ATOM      2  C   UNL     1       0.854   8.850  19.533  0.00  0.00    +0.000 C 
BRANCH   2   7
ATOM      3 CL   UNL     1       2.390  14.641  19.937  0.00  0.00    +0.000 Cl
ATOM      4  C   UNL     1       1.772  13.044  19.778  0.00  0.00    +0.000 A 
ATOM      5  C   UNL     1       1.881  12.377  18.561  0.00  0.00    +0.000 A 
ATOM      6  C   UNL     1       1.493  11.040  18.469  0.00  0.00    +0.000 A 
ATOM      7  C   UNL     1       1.042  10.349  19.608  0.00  0.00    +0.000 A 
ATOM      8  C   UNL     1       0.824  11.076  20.792  0.00  0.00    +0.000 A 
ATOM      9 CL   UNL     1       0.105  10.364  22.193  0.00  0.00    +0.000 Cl
ATOM     10  C   UNL     1       1.197  12.417  20.878  0.00  0.00    +0.000 A 
ENDBRANCH   2   7
ENDBRANCH   1   2
BRANCH   1  11
ATOM     11  C   UNL     1       1.941   7.027  20.792  0.00  0.00    +0.000 C 
BRANCH  11  12
ATOM     12  C   UNL     1       1.055   5.823  20.402  0.00  0.00    +0.000 C 
BRANCH  12  13
ATOM     13  N   UNL     1       1.770   4.562  20.449  0.00  0.00    +0.000 N 
ATOM     14  C   UNL     1       2.194   3.918  21.574  0.00  0.00    +0.000 A 
ATOM     15  N   UNL     1       2.851   2.817  21.283  0.00  0.00    +0.000 NA
ATOM     16  C   UNL     1       2.847   2.744  19.911  0.00  0.00    +0.000 A 
ATOM     17  C   UNL     1       3.384   1.767  19.061  0.00  0.00    +0.000 A 
ATOM     18  C   UNL     1       3.227   1.916  17.675  0.00  0.00    +0.000 A 
ATOM     19  C   UNL     1       2.564   3.025  17.145  0.00  0.00    +0.000 A 
ATOM     20  C   UNL     1       2.036   4.017  17.977  0.00  0.00    +0.000 A 
ATOM     21  C   UNL     1       2.183   3.835  19.356  0.00  0.00    +0.000 A 
ENDBRANCH  12  13
ENDBRANCH  11  12
ENDBRANCH   1  11
BRANCH   1  22
ATOM     22  C   UNL     1       2.432   7.373  18.429  0.00  0.00    +0.000 C 
BRANCH  22  23
ATOM     23  C   UNL     1       3.871   7.601  17.956  0.00  0.00    +0.000 C 
BRANCH  23  24
ATOM     24  N   UNL     1       4.642   6.374  17.934  0.00  0.00    +0.000 N 
ATOM     25  C   UNL     1       5.056   5.678  19.032  0.00  0.00    +0.000 A 
ATOM     26  N   UNL     1       5.814   4.659  18.693  0.00  0.00    +0.000 NA
ATOM     27  C   UNL     1       5.896   4.706  17.324  0.00  0.00    +0.000 A 
ATOM     28  C   UNL     1       6.598   3.876  16.439  0.00  0.00    +0.000 A 
ATOM     29  C   UNL     1       6.522   4.142  15.066  0.00  0.00    +0.000 A 
ATOM     30  C   UNL     1       5.767   5.209  14.580  0.00  0.00    +0.000 A 
ATOM     31  C   UNL     1       5.060   6.049  15.444  0.00  0.00    +0.000 A 
ATOM     32  C   UNL     1       5.151   5.767  16.819  0.00  0.00    +0.000 A 
ENDBRANCH  23  24
ENDBRANCH  22  23
ENDBRANCH   1  22
TORSDOF 8
ENDMDL
MODEL 4
REMARK VINA RESULT:      -7.4      2.876      7.234
REMARK  Name = 
REMARK  8 active torsions:
REMARK  status: ('A' for Active; 'I' for Inactive)
REMARK    1  A    between atoms: C_5  and  C_6
REMARK    2  A    between atoms: C_6  and  N_7
REMARK    3  A    between atoms: N_7  and  C_8
REMARK    4  A    between atoms: N_7  and  C_19
REMARK    5  A    between atoms: C_8  and  C_9
REMARK    6  A    between atoms: C_9  and  N_10
REMARK    7  A    between atoms: C_19  and  C_20
REMARK    8  A    between atoms: C_20  and  N_21
REMARK                            x       y       z     vdW  Elec       q    Type
REMARK                         _______ _______ _______ _____ _____    ______ ____
ROOT
ATOM      1  N   UNL     1       3.590   5.775  17.654  0.00  0.00    +0.000 NA
ENDROOT
BRANCH   1   2
ATOM      2  C   UNL     1       2.774   4.563  17.334  0.00  0.00    +0.000 C 
BRANCH   2   7
ATOM      3 CL   UNL     1       1.030   2.137  22.543  0.00  0.00    +0.000 Cl
ATOM      4  C   UNL     1       1.384   2.735  20.970  0.00  0.00    +0.000 A 
ATOM      5  C   UNL     1       0.858   3.957  20.559  0.00  0.00    +0.000 A 
ATOM      6  C   UNL     1       1.246   4.499  19.334  0.00  0.00    +0.000 A 
ATOM      7  C   UNL     1       2.201   3.844  18.535  0.00  0.00    +0.000 A 
ATOM      8  C   UNL     1       2.621   2.556  18.911  0.00  0.00    +0.000 A 
ATOM      9 CL   UNL     1       3.652   1.593  17.912  0.00  0.00    +0.000 Cl
ATOM     10  C   UNL     1       2.220   2.008  20.129  0.00  0.00    +0.000 A 
ENDBRANCH   2   7
ENDBRANCH   1   2
BRANCH   1  11
ATOM     11  C   UNL     1       2.734   6.993  17.770  0.00  0.00    +0.000 C 
BRANCH  11  12
ATOM     12  C   UNL     1       2.608   7.549  19.206  0.00  0.00    +0.000 C 
BRANCH  12  13
ATOM     13  N   UNL     1       1.670   8.651  19.299  0.00  0.00    +0.000 N 
ATOM     14  C   UNL     1       1.281   9.467  18.276  0.00  0.00    +0.000 A 
ATOM     15  N   UNL     1       0.453  10.399  18.690  0.00  0.00    +0.000 NA
ATOM     16  C   UNL     1       0.295  10.175  20.036  0.00  0.00    +0.000 A 
ATOM     17  C   UNL     1      -0.494  10.855  20.975  0.00  0.00    +0.000 A 
ATOM     18  C   UNL     1      -0.495  10.410  22.305  0.00  0.00    +0.000 A 
ATOM     19  C   UNL     1       0.287   9.321  22.697  0.00  0.00    +0.000 A 
ATOM     20  C   UNL     1       1.092   8.642  21.778  0.00  0.00    +0.000 A 
ATOM     21  C   UNL     1       1.058   9.087  20.453  0.00  0.00    +0.000 A 
ENDBRANCH  12  13
ENDBRANCH  11  12
ENDBRANCH   1  11
BRANCH   1  22
ATOM     22  C   UNL     1       4.311   5.544  18.937  0.00  0.00    +0.000 C 
BRANCH  22  23
ATOM     23  C   UNL     1       5.648   4.814  18.778  0.00  0.00    +0.000 C 
BRANCH  23  24
ATOM     24  N   UNL     1       6.400   5.289  17.635  0.00  0.00    +0.000 N 
ATOM     25  C   UNL     1       7.183   6.406  17.608  0.00  0.00    +0.000 A 
ATOM     26  N   UNL     1       7.662   6.625  16.404  0.00  0.00    +0.000 NA
ATOM     27  C   UNL     1       7.161   5.614  15.624  0.00  0.00    +0.000 A 
ATOM     28  C   UNL     1       7.328   5.373  14.252  0.00  0.00    +0.000 A 
ATOM     29  C   UNL     1       6.698   4.258  13.686  0.00  0.00    +0.000 A 
ATOM     30  C   UNL     1       5.919   3.399  14.460  0.00  0.00    +0.000 A 
ATOM     31  C   UNL     1       5.739   3.620  15.828  0.00  0.00    +0.000 A 
ATOM     32  C   UNL     1       6.377   4.747  16.379  0.00  0.00    +0.000 A 
ENDBRANCH  23  24
ENDBRANCH  22  23
ENDBRANCH   1  22
TORSDOF 8
ENDMDL
MODEL 5
REMARK VINA RESULT:      -7.4      3.772      8.357
REMARK  Name = 
REMARK  8 active torsions:
REMARK  status: ('A' for Active; 'I' for Inactive)
REMARK    1  A    between atoms: C_5  and  C_6
REMARK    2  A    between atoms: C_6  and  N_7
REMARK    3  A    between atoms: N_7  and  C_8
REMARK    4  A    between atoms: N_7  and  C_19
REMARK    5  A    between atoms: C_8  and  C_9
REMARK    6  A    between atoms: C_9  and  N_10
REMARK    7  A    between atoms: C_19  and  C_20
REMARK    8  A    between atoms: C_20  and  N_21
REMARK                            x       y       z     vdW  Elec       q    Type
REMARK                         _______ _______ _______ _____ _____    ______ ____
ROOT
ATOM      1  N   UNL     1       1.433   7.631  19.565  0.00  0.00    +0.000 NA
ENDROOT
BRANCH   1   2
ATOM      2  C   UNL     1       1.948   8.971  19.983  0.00  0.00    +0.000 C 
BRANCH   2   7
ATOM      3 CL   UNL     1      -2.288  11.581  23.345  0.00  0.00    +0.000 Cl
ATOM      4  C   UNL     1      -0.948  10.946  22.475  0.00  0.00    +0.000 A 
ATOM      5  C   UNL     1      -0.319   9.787  22.923  0.00  0.00    +0.000 A 
ATOM      6  C   UNL     1       0.686   9.204  22.149  0.00  0.00    +0.000 A 
ATOM      7  C   UNL     1       1.030   9.750  20.899  0.00  0.00    +0.000 A 
ATOM      8  C   UNL     1       0.470  10.986  20.529  0.00  0.00    +0.000 A 
ATOM      9 CL   UNL     1       0.958  11.830  19.102  0.00  0.00    +0.000 Cl
ATOM     10  C   UNL     1      -0.522  11.576  21.311  0.00  0.00    +0.000 A 
ENDBRANCH   2   7
ENDBRANCH   1   2
BRANCH   1  11
ATOM     11  C   UNL     1       2.013   7.209  18.256  0.00  0.00    +0.000 C 
BRANCH  11  12
ATOM     12  C   UNL     1       3.490   7.614  18.053  0.00  0.00    +0.000 C 
BRANCH  12  13
ATOM     13  N   UNL     1       4.394   6.481  18.114  0.00  0.00    +0.000 N 
ATOM     14  C   UNL     1       4.787   5.824  19.243  0.00  0.00    +0.000 A 
ATOM     15  N   UNL     1       5.646   4.867  18.972  0.00  0.00    +0.000 NA
ATOM     16  C   UNL     1       5.813   4.904  17.609  0.00  0.00    +0.000 A 
ATOM     17  C   UNL     1       6.599   4.095  16.776  0.00  0.00    +0.000 A 
ATOM     18  C   UNL     1       6.581   4.328  15.394  0.00  0.00    +0.000 A 
ATOM     19  C   UNL     1       5.808   5.357  14.852  0.00  0.00    +0.000 A 
ATOM     20  C   UNL     1       5.031   6.185  15.668  0.00  0.00    +0.000 A 
ATOM     21  C   UNL     1       5.045   5.918  17.040  0.00  0.00    +0.000 A 
ENDBRANCH  12  13
ENDBRANCH  11  12
ENDBRANCH   1  11
BRANCH   1  22
ATOM     22  C   UNL     1       1.783   6.633  20.614  0.00  0.00    +0.000 C 
BRANCH  22  23
ATOM     23  C   UNL     1       0.927   5.364  20.578  0.00  0.00    +0.000 C 
BRANCH  23  24
ATOM     24  N   UNL     1       1.731   4.160  20.526  0.00  0.00    +0.000 N 
ATOM     25  C   UNL     1       2.232   3.494  21.606  0.00  0.00    +0.000 A 
ATOM     26  N   UNL     1       2.998   2.492  21.235  0.00  0.00    +0.000 NA
ATOM     27  C   UNL     1       2.995   2.520  19.864  0.00  0.00    +0.000 A 
ATOM     28  C   UNL     1       3.667   1.696  18.949  0.00  0.00    +0.000 A 
ATOM     29  C   UNL     1       3.499   1.939  17.580  0.00  0.00    +0.000 A 
ATOM     30  C   UNL     1       2.684   2.975  17.126  0.00  0.00    +0.000 A 
ATOM     31  C   UNL     1       2.007   3.808  18.019  0.00  0.00    +0.000 A 
ATOM     32  C   UNL     1       2.189   3.551  19.391  0.00  0.00    +0.000 A 
ENDBRANCH  23  24
ENDBRANCH  22  23
ENDBRANCH   1  22
TORSDOF 8
ENDMDL
MODEL 6
REMARK VINA RESULT:      -7.3      5.057      8.651
REMARK  Name = 
REMARK  8 active torsions:
REMARK  status: ('A' for Active; 'I' for Inactive)
REMARK    1  A    between atoms: C_5  and  C_6
REMARK    2  A    between atoms: C_6  and  N_7
REMARK    3  A    between atoms: N_7  and  C_8
REMARK    4  A    between atoms: N_7  and  C_19
REMARK    5  A    between atoms: C_8  and  C_9
REMARK    6  A    between atoms: C_9  and  N_10
REMARK    7  A    between atoms: C_19  and  C_20
REMARK    8  A    between atoms: C_20  and  N_21
REMARK                            x       y       z     vdW  Elec       q    Type
REMARK                         _______ _______ _______ _____ _____    ______ ____
ROOT
ATOM      1  N   UNL     1       1.065  10.000  19.121  0.00  0.00    +0.000 NA
ENDROOT
BRANCH   1   2
ATOM      2  C   UNL     1       1.288  10.103  20.596  0.00  0.00    +0.000 C 
BRANCH   2   7
ATOM      3 CL   UNL     1      -1.708  14.101  23.930  0.00  0.00    +0.000 Cl
ATOM      4  C   UNL     1      -1.006  12.950  22.861  0.00  0.00    +0.000 A 
ATOM      5  C   UNL     1      -0.200  13.383  21.811  0.00  0.00    +0.000 A 
ATOM      6  C   UNL     1       0.469  12.446  21.023  0.00  0.00    +0.000 A 
ATOM      7  C   UNL     1       0.374  11.072  21.313  0.00  0.00    +0.000 A 
ATOM      8  C   UNL     1      -0.541  10.656  22.296  0.00  0.00    +0.000 A 
ATOM      9 CL   UNL     1      -0.867   8.987  22.607  0.00  0.00    +0.000 Cl
ATOM     10  C   UNL     1      -1.222  11.593  23.073  0.00  0.00    +0.000 A 
ENDBRANCH   2   7
ENDBRANCH   1   2
BRANCH   1  11
ATOM     11  C   UNL     1       1.673   8.755  18.565  0.00  0.00    +0.000 C 
BRANCH  11  12
ATOM     12  C   UNL     1       2.128   7.736  19.632  0.00  0.00    +0.000 C 
BRANCH  12  13
ATOM     13  N   UNL     1       2.536   6.468  19.058  0.00  0.00    +0.000 N 
ATOM     14  C   UNL     1       3.345   6.299  17.972  0.00  0.00    +0.000 A 
ATOM     15  N   UNL     1       3.494   5.028  17.673  0.00  0.00    +0.000 NA
ATOM     16  C   UNL     1       2.753   4.346  18.608  0.00  0.00    +0.000 A 
ATOM     17  C   UNL     1       2.570   2.966  18.778  0.00  0.00    +0.000 A 
ATOM     18  C   UNL     1       1.769   2.516  19.837  0.00  0.00    +0.000 A 
ATOM     19  C   UNL     1       1.148   3.422  20.700  0.00  0.00    +0.000 A 
ATOM     20  C   UNL     1       1.305   4.801  20.535  0.00  0.00    +0.000 A 
ATOM     21  C   UNL     1       2.129   5.226  19.488  0.00  0.00    +0.000 A 
ENDBRANCH  12  13
ENDBRANCH  11  12
ENDBRANCH   1  11
BRANCH   1  22
ATOM     22  C   UNL     1      -0.400  10.007  18.855  0.00  0.00    +0.000 C 
BRANCH  22  23
ATOM     23  C   UNL     1      -0.854  11.105  17.889  0.00  0.00    +0.000 C 
BRANCH  23  24
ATOM     24  N   UNL     1      -2.291  11.118  17.708  0.00  0.00    +0.000 N 
ATOM     25  C   UNL     1      -2.959  10.624  16.626  0.00  0.00    +0.000 A 
ATOM     26  N   UNL     1      -4.248  10.864  16.710  0.00  0.00    +0.000 NA
ATOM     27  C   UNL     1      -4.415  11.546  17.889  0.00  0.00    +0.000 A 
ATOM     28  C   UNL     1      -5.582  12.072  18.463  0.00  0.00    +0.000 A 
ATOM     29  C   UNL     1      -5.483  12.739  19.690  0.00  0.00    +0.000 A 
ATOM     30  C   UNL     1      -4.255  12.884  20.335  0.00  0.00    +0.000 A 
ATOM     31  C   UNL     1      -3.081  12.368  19.781  0.00  0.00    +0.000 A 
ATOM     32  C   UNL     1      -3.200  11.703  18.547  0.00  0.00    +0.000 A 
ENDBRANCH  23  24
ENDBRANCH  22  23
ENDBRANCH   1  22
TORSDOF 8
ENDMDL
MODEL 7
REMARK VINA RESULT:      -7.2      5.197      9.759
REMARK  Name = 
REMARK  8 active torsions:
REMARK  status: ('A' for Active; 'I' for Inactive)
REMARK    1  A    between atoms: C_5  and  C_6
REMARK    2  A    between atoms: C_6  and  N_7
REMARK    3  A    between atoms: N_7  and  C_8
REMARK    4  A    between atoms: N_7  and  C_19
REMARK    5  A    between atoms: C_8  and  C_9
REMARK    6  A    between atoms: C_9  and  N_10
REMARK    7  A    between atoms: C_19  and  C_20
REMARK    8  A    between atoms: C_20  and  N_21
REMARK                            x       y       z     vdW  Elec       q    Type
REMARK                         _______ _______ _______ _____ _____    ______ ____
ROOT
ATOM      1  N   UNL     1       1.482  10.107  17.847  0.00  0.00    +0.000 NA
ENDROOT
BRANCH   1   2
ATOM      2  C   UNL     1       0.464   9.967  18.933  0.00  0.00    +0.000 C 
BRANCH   2   7
ATOM      3 CL   UNL     1      -4.814  11.888  16.808  0.00  0.00    +0.000 Cl
ATOM      4  C   UNL     1      -3.403  11.208  17.518  0.00  0.00    +0.000 A 
ATOM      5  C   UNL     1      -2.705  10.207  16.849  0.00  0.00    +0.000 A 
ATOM      6  C   UNL     1      -1.494   9.745  17.366  0.00  0.00    +0.000 A 
ATOM      7  C   UNL     1      -0.951  10.320  18.529  0.00  0.00    +0.000 A 
ATOM      8  C   UNL     1      -1.732  11.239  19.252  0.00  0.00    +0.000 A 
ATOM      9 CL   UNL     1      -1.237  11.868  20.784  0.00  0.00    +0.000 Cl
ATOM     10  C   UNL     1      -2.950  11.687  18.743  0.00  0.00    +0.000 A 
ENDBRANCH   2   7
ENDBRANCH   1   2
BRANCH   1  11
ATOM     11  C   UNL     1       2.387  11.268  18.096  0.00  0.00    +0.000 C 
BRANCH  11  12
ATOM     12  C   UNL     1       1.660  12.565  18.513  0.00  0.00    +0.000 C 
BRANCH  12  13
ATOM     13  N   UNL     1       2.374  13.304  19.536  0.00  0.00    +0.000 N 
ATOM     14  C   UNL     1       2.142  13.248  20.880  0.00  0.00    +0.000 A 
ATOM     15  N   UNL     1       2.929  14.068  21.541  0.00  0.00    +0.000 NA
ATOM     16  C   UNL     1       3.706  14.676  20.585  0.00  0.00    +0.000 A 
ATOM     17  C   UNL     1       4.729  15.624  20.726  0.00  0.00    +0.000 A 
ATOM     18  C   UNL     1       5.391  16.081  19.578  0.00  0.00    +0.000 A 
ATOM     19  C   UNL     1       5.031  15.616  18.311  0.00  0.00    +0.000 A 
ATOM     20  C   UNL     1       4.002  14.684  18.149  0.00  0.00    +0.000 A 
ATOM     21  C   UNL     1       3.372  14.224  19.310  0.00  0.00    +0.000 A 
ENDBRANCH  12  13
ENDBRANCH  11  12
ENDBRANCH   1  11
BRANCH   1  22
ATOM     22  C   UNL     1       2.282   8.852  17.775  0.00  0.00    +0.000 C 
BRANCH  22  23
ATOM     23  C   UNL     1       2.102   7.927  18.983  0.00  0.00    +0.000 C 
BRANCH  23  24
ATOM     24  N   UNL     1       2.672   6.615  18.758  0.00  0.00    +0.000 N 
ATOM     25  C   UNL     1       3.574   6.297  17.785  0.00  0.00    +0.000 A 
ATOM     26  N   UNL     1       3.833   5.009  17.776  0.00  0.00    +0.000 NA
ATOM     27  C   UNL     1       3.063   4.476  18.778  0.00  0.00    +0.000 A 
ATOM     28  C   UNL     1       2.927   3.143  19.192  0.00  0.00    +0.000 A 
ATOM     29  C   UNL     1       2.059   2.855  20.252  0.00  0.00    +0.000 A 
ATOM     30  C   UNL     1       1.341   3.866  20.891  0.00  0.00    +0.000 A 
ATOM     31  C   UNL     1       1.461   5.200  20.495  0.00  0.00    +0.000 A 
ATOM     32  C   UNL     1       2.335   5.469  19.426  0.00  0.00    +0.000 A 
ENDBRANCH  23  24
ENDBRANCH  22  23
ENDBRANCH   1  22
TORSDOF 8
ENDMDL
MODEL 8
REMARK VINA RESULT:      -7.2      3.622      7.885
REMARK  Name = 
REMARK  8 active torsions:
REMARK  status: ('A' for Active; 'I' for Inactive)
REMARK    1  A    between atoms: C_5  and  C_6
REMARK    2  A    between atoms: C_6  and  N_7
REMARK    3  A    between atoms: N_7  and  C_8
REMARK    4  A    between atoms: N_7  and  C_19
REMARK    5  A    between atoms: C_8  and  C_9
REMARK    6  A    between atoms: C_9  and  N_10
REMARK    7  A    between atoms: C_19  and  C_20
REMARK    8  A    between atoms: C_20  and  N_21
REMARK                            x       y       z     vdW  Elec       q    Type
REMARK                         _______ _______ _______ _____ _____    ______ ____
ROOT
ATOM      1  N   UNL     1       2.258   7.610  18.650  0.00  0.00    +0.000 NA
ENDROOT
BRANCH   1   2
ATOM      2  C   UNL     1       2.133   9.049  19.039  0.00  0.00    +0.000 C 
BRANCH   2   7
ATOM      3 CL   UNL     1      -3.155  11.874  18.697  0.00  0.00    +0.000 Cl
ATOM      4  C   UNL     1      -1.740  10.909  18.851  0.00  0.00    +0.000 A 
ATOM      5  C   UNL     1      -1.234  10.241  17.739  0.00  0.00    +0.000 A 
ATOM      6  C   UNL     1      -0.019   9.562  17.835  0.00  0.00    +0.000 A 
ATOM      7  C   UNL     1       0.720   9.590  19.032  0.00  0.00    +0.000 A 
ATOM      8  C   UNL     1       0.130  10.164  20.172  0.00  0.00    +0.000 A 
ATOM      9 CL   UNL     1       0.873  10.093  21.732  0.00  0.00    +0.000 Cl
ATOM     10  C   UNL     1      -1.092  10.829  20.078  0.00  0.00    +0.000 A 
ENDBRANCH   2   7
ENDBRANCH   1   2
BRANCH   1  11
ATOM     11  C   UNL     1       3.417   7.393  17.734  0.00  0.00    +0.000 C 
BRANCH  11  12
ATOM     12  C   UNL     1       4.541   6.515  18.325  0.00  0.00    +0.000 C 
BRANCH  12  13
ATOM     13  N   UNL     1       5.658   6.347  17.415  0.00  0.00    +0.000 N 
ATOM     14  C   UNL     1       6.822   7.059  17.429  0.00  0.00    +0.000 A 
ATOM     15  N   UNL     1       7.621   6.700  16.449  0.00  0.00    +0.000 NA
ATOM     16  C   UNL     1       6.946   5.709  15.776  0.00  0.00    +0.000 A 
ATOM     17  C   UNL     1       7.336   4.954  14.660  0.00  0.00    +0.000 A 
ATOM     18  C   UNL     1       6.461   3.975  14.168  0.00  0.00    +0.000 A 
ATOM     19  C   UNL     1       5.215   3.765  14.762  0.00  0.00    +0.000 A 
ATOM     20  C   UNL     1       4.803   4.520  15.864  0.00  0.00    +0.000 A 
ATOM     21  C   UNL     1       5.702   5.472  16.354  0.00  0.00    +0.000 A 
ENDBRANCH  12  13
ENDBRANCH  11  12
ENDBRANCH   1  11
BRANCH   1  22
ATOM     22  C   UNL     1       2.433   6.793  19.883  0.00  0.00    +0.000 C 
BRANCH  22  23
ATOM     23  C   UNL     1       1.496   5.584  19.967  0.00  0.00    +0.000 C 
BRANCH  23  24
ATOM     24  N   UNL     1       1.863   4.539  19.033  0.00  0.00    +0.000 N 
ATOM     25  C   UNL     1       1.303   4.341  17.805  0.00  0.00    +0.000 A 
ATOM     26  N   UNL     1       1.781   3.260  17.231  0.00  0.00    +0.000 NA
ATOM     27  C   UNL     1       2.678   2.738  18.128  0.00  0.00    +0.000 A 
ATOM     28  C   UNL     1       3.457   1.575  18.044  0.00  0.00    +0.000 A 
ATOM     29  C   UNL     1       4.303   1.255  19.113  0.00  0.00    +0.000 A 
ATOM     30  C   UNL     1       4.375   2.069  20.243  0.00  0.00    +0.000 A 
ATOM     31  C   UNL     1       3.608   3.232  20.348  0.00  0.00    +0.000 A 
ATOM     32  C   UNL     1       2.762   3.535  19.265  0.00  0.00    +0.000 A 
ENDBRANCH  23  24
ENDBRANCH  22  23
ENDBRANCH   1  22
TORSDOF 8
ENDMDL
MODEL 9
REMARK VINA RESULT:      -7.2      6.015     10.575
REMARK  Name = 
REMARK  8 active torsions:
REMARK  status: ('A' for Active; 'I' for Inactive)
REMARK    1  A    between atoms: C_5  and  C_6
REMARK    2  A    between atoms: C_6  and  N_7
REMARK    3  A    between atoms: N_7  and  C_8
REMARK    4  A    between atoms: N_7  and  C_19
REMARK    5  A    between atoms: C_8  and  C_9
REMARK    6  A    between atoms: C_9  and  N_10
REMARK    7  A    between atoms: C_19  and  C_20
REMARK    8  A    between atoms: C_20  and  N_21
REMARK                            x       y       z     vdW  Elec       q    Type
REMARK                         _______ _______ _______ _____ _____    ______ ____
ROOT
ATOM      1  N   UNL     1       0.702  12.264  20.095  0.00  0.00    +0.000 NA
ENDROOT
BRANCH   1   2
ATOM      2  C   UNL     1       0.117  11.107  19.350  0.00  0.00    +0.000 C 
BRANCH   2   7
ATOM      3 CL   UNL     1       3.102   5.971  18.474  0.00  0.00    +0.000 Cl
ATOM      4  C   UNL     1       2.412   7.512  18.797  0.00  0.00    +0.000 A 
ATOM      5  C   UNL     1       2.383   8.481  17.797  0.00  0.00    +0.000 A 
ATOM      6  C   UNL     1       1.712   9.684  18.020  0.00  0.00    +0.000 A 
ATOM      7  C   UNL     1       1.024   9.903  19.228  0.00  0.00    +0.000 A 
ATOM      8  C   UNL     1       1.173   8.965  20.265  0.00  0.00    +0.000 A 
ATOM      9 CL   UNL     1       0.519   9.224  21.844  0.00  0.00    +0.000 Cl
ATOM     10  C   UNL     1       1.857   7.770  20.046  0.00  0.00    +0.000 A 
ENDBRANCH   2   7
ENDBRANCH   1   2
BRANCH   1  11
ATOM     11  C   UNL     1       1.543  13.116  19.204  0.00  0.00    +0.000 C 
BRANCH  11  12
ATOM     12  C   UNL     1       2.130  14.370  19.889  0.00  0.00    +0.000 C 
BRANCH  12  13
ATOM     13  N   UNL     1       2.333  15.470  18.966  0.00  0.00    +0.000 N 
ATOM     14  C   UNL     1       3.532  15.900  18.477  0.00  0.00    +0.000 A 
ATOM     15  N   UNL     1       3.389  16.946  17.693  0.00  0.00    +0.000 NA
ATOM     16  C   UNL     1       2.039  17.200  17.671  0.00  0.00    +0.000 A 
ATOM     17  C   UNL     1       1.320  18.186  16.980  0.00  0.00    +0.000 A 
ATOM     18  C   UNL     1      -0.075  18.222  17.112  0.00  0.00    +0.000 A 
ATOM     19  C   UNL     1      -0.742  17.307  17.929  0.00  0.00    +0.000 A 
ATOM     20  C   UNL     1      -0.040  16.327  18.638  0.00  0.00    +0.000 A 
ATOM     21  C   UNL     1       1.347  16.294  18.472  0.00  0.00    +0.000 A 
ENDBRANCH  12  13
ENDBRANCH  11  12
ENDBRANCH   1  11
BRANCH   1  22
ATOM     22  C   UNL     1      -0.407  13.078  20.667  0.00  0.00    +0.000 C 
BRANCH  22  23
ATOM     23  C   UNL     1      -1.227  12.350  21.737  0.00  0.00    +0.000 C 
BRANCH  23  24
ATOM     24  N   UNL     1      -2.653  12.518  21.545  0.00  0.00    +0.000 N 
ATOM     25  C   UNL     1      -3.269  12.765  20.354  0.00  0.00    +0.000 A 
ATOM     26  N   UNL     1      -4.559  12.960  20.514  0.00  0.00    +0.000 NA
ATOM     27  C   UNL     1      -4.779  12.840  21.863  0.00  0.00    +0.000 A 
ATOM     28  C   UNL     1      -5.968  12.981  22.593  0.00  0.00    +0.000 A 
ATOM     29  C   UNL     1      -5.927  12.812  23.982  0.00  0.00    +0.000 A 
ATOM     30  C   UNL     1      -4.732  12.512  24.636  0.00  0.00    +0.000 A 
ATOM     31  C   UNL     1      -3.535  12.369  23.929  0.00  0.00    +0.000 A 
ATOM     32  C   UNL     1      -3.597  12.544  22.534  0.00  0.00    +0.000 A 
ENDBRANCH  23  24
ENDBRANCH  22  23
ENDBRANCH   1  22
TORSDOF 8
ENDMDL
