MODEL 1
REMARK VINA RESULT:      -7.4      0.000      0.000
REMARK  Name = 
REMARK  6 active torsions:
REMARK  status: ('A' for Active; 'I' for Inactive)
REMARK    1  A    between atoms: C_1  and  O_2
REMARK    2  A    between atoms: O_2  and  C_3
REMARK    3  A    between atoms: C_5  and  O_6
REMARK    4  A    between atoms: O_6  and  C_7
REMARK    5  A    between atoms: C_8  and  C_9
REMARK    6  A    between atoms: C_18  and  N_19
REMARK                            x       y       z     vdW  Elec       q    Type
REMARK                         _______ _______ _______ _____ _____    ______ ____
ROOT
ATOM      1  C   UNL     1       2.520   7.519  18.637  0.00  0.00    +0.000 A 
ATOM      2  C   UNL     1       2.083   7.512  19.957  0.00  0.00    +0.000 A 
ATOM      3  N   UNL     1       1.314   8.591  20.120  0.00  0.00    +0.000 N 
ATOM      4  C   UNL     1       0.663   9.028  21.216  0.00  0.00    +0.000 A 
ATOM      5  C   UNL     1      -0.040  10.225  21.116  0.00  0.00    +0.000 A 
ATOM      6  C   UNL     1      -0.049  10.932  19.883  0.00  0.00    +0.000 A 
ATOM      7  N   UNL     1      -0.697  12.209  19.800  0.00  0.00    +0.000 N 
ATOM      8  C   UNL     1      -0.693  13.052  18.624  0.00  0.00    +0.000 C 
ATOM      9  C   UNL     1      -0.405  14.437  19.195  0.00  0.00    +0.000 C 
ATOM     10  C   UNL     1      -1.163  14.424  20.527  0.00  0.00    +0.000 C 
ATOM     11  C   UNL     1      -0.940  12.988  21.003  0.00  0.00    +0.000 C 
ATOM     12  N   UNL     1       0.610  10.404  18.799  0.00  0.00    +0.000 NA
ATOM     13  C   UNL     1       1.287   9.232  18.948  0.00  0.00    +0.000 A 
ATOM     14  N   UNL     1       2.001   8.604  17.994  0.00  0.00    +0.000 NA
ENDROOT
BRANCH   1  18
ATOM     15  C   UNL     1       5.226   4.718  16.800  0.00  0.00    +0.000 A 
ATOM     16  C   UNL     1       3.901   4.336  17.059  0.00  0.00    +0.000 A 
ATOM     17  C   UNL     1       2.987   5.217  17.647  0.00  0.00    +0.000 A 
ATOM     18  C   UNL     1       3.416   6.527  17.990  0.00  0.00    +0.000 A 
ATOM     19  C   UNL     1       4.742   6.906  17.718  0.00  0.00    +0.000 A 
ATOM     20  C   UNL     1       5.636   6.018  17.121  0.00  0.00    +0.000 A 
ATOM     21 CL   UNL     1       7.278   6.546  16.782  0.00  0.00    +0.000 Cl
BRANCH  15  23
ATOM     22  C   UNL     1       6.375   3.716  14.918  0.00  0.00    +0.000 C 
ATOM     23  O   UNL     1       6.119   3.846  16.270  0.00  0.00    +0.000 OA
ENDBRANCH  15  23
BRANCH  17  24
ATOM     24  O   UNL     1       1.716   4.811  17.921  0.00  0.00    +0.000 OA
ATOM     25  C   UNL     1       1.361   3.637  18.561  0.00  0.00    +0.000 C 
ENDBRANCH  17  24
ENDBRANCH   1  18
BRANCH  10  26
ATOM     26  N   UNL     1      -2.590  14.701  20.354  0.00  0.00    +0.000 NA
ATOM     27  H   UNL     1      -3.079  13.979  19.781  0.00  0.00    +0.000 HD
ATOM     28  H   UNL     1      -2.703  15.641  19.907  0.00  0.00    +0.000 HD
ENDBRANCH  10  26
TORSDOF 4
ENDMDL
MODEL 2
REMARK VINA RESULT:      -7.2      2.520      3.439
REMARK  Name = 
REMARK  6 active torsions:
REMARK  status: ('A' for Active; 'I' for Inactive)
REMARK    1  A    between atoms: C_1  and  O_2
REMARK    2  A    between atoms: O_2  and  C_3
REMARK    3  A    between atoms: C_5  and  O_6
REMARK    4  A    between atoms: O_6  and  C_7
REMARK    5  A    between atoms: C_8  and  C_9
REMARK    6  A    between atoms: C_18  and  N_19
REMARK                            x       y       z     vdW  Elec       q    Type
REMARK                         _______ _______ _______ _____ _____    ______ ____
ROOT
ATOM      1  C   UNL     1       1.923   7.551  19.820  0.00  0.00    +0.000 A 
ATOM      2  C   UNL     1       1.819   8.514  18.822  0.00  0.00    +0.000 A 
ATOM      3  N   UNL     1       1.189   9.563  19.354  0.00  0.00    +0.000 N 
ATOM      4  C   UNL     1       0.848  10.739  18.793  0.00  0.00    +0.000 A 
ATOM      5  C   UNL     1       0.145  11.651  19.577  0.00  0.00    +0.000 A 
ATOM      6  C   UNL     1      -0.180  11.316  20.919  0.00  0.00    +0.000 A 
ATOM      7  N   UNL     1      -0.979  12.213  21.702  0.00  0.00    +0.000 N 
ATOM      8  C   UNL     1      -1.441  11.936  23.045  0.00  0.00    +0.000 C 
ATOM      9  C   UNL     1      -2.900  12.381  23.005  0.00  0.00    +0.000 C 
ATOM     10  C   UNL     1      -2.859  13.615  22.098  0.00  0.00    +0.000 C 
ATOM     11  C   UNL     1      -1.823  13.202  21.051  0.00  0.00    +0.000 C 
ATOM     12  N   UNL     1       0.234  10.110  21.432  0.00  0.00    +0.000 NA
ATOM     13  C   UNL     1       0.915   9.251  20.624  0.00  0.00    +0.000 A 
ATOM     14  N   UNL     1       1.361   8.028  20.968  0.00  0.00    +0.000 NA
ENDROOT
BRANCH   1  18
ATOM     15  C   UNL     1       3.588   3.590  19.537  0.00  0.00    +0.000 A 
ATOM     16  C   UNL     1       4.046   4.599  18.676  0.00  0.00    +0.000 A 
ATOM     17  C   UNL     1       3.537   5.901  18.740  0.00  0.00    +0.000 A 
ATOM     18  C   UNL     1       2.533   6.204  19.698  0.00  0.00    +0.000 A 
ATOM     19  C   UNL     1       2.087   5.189  20.564  0.00  0.00    +0.000 A 
ATOM     20  C   UNL     1       2.613   3.900  20.494  0.00  0.00    +0.000 A 
ATOM     21 CL   UNL     1       2.037   2.672  21.613  0.00  0.00    +0.000 Cl
BRANCH  15  23
ATOM     22  C   UNL     1       3.645   1.409  18.485  0.00  0.00    +0.000 C 
ATOM     23  O   UNL     1       4.052   2.320  19.442  0.00  0.00    +0.000 OA
ENDBRANCH  15  23
BRANCH  17  24
ATOM     24  O   UNL     1       3.972   6.854  17.870  0.00  0.00    +0.000 OA
ATOM     25  C   UNL     1       4.861   6.655  16.828  0.00  0.00    +0.000 C 
ENDBRANCH  17  24
ENDBRANCH   1  18
BRANCH  10  26
ATOM     26  N   UNL     1      -2.425  14.815  22.816  0.00  0.00    +0.000 NA
ATOM     27  H   UNL     1      -2.270  14.648  23.834  0.00  0.00    +0.000 HD
ATOM     28  H   UNL     1      -3.142  15.567  22.688  0.00  0.00    +0.000 HD
ENDBRANCH  10  26
TORSDOF 4
ENDMDL
MODEL 3
REMARK VINA RESULT:      -7.0      3.954      8.890
REMARK  Name = 
REMARK  6 active torsions:
REMARK  status: ('A' for Active; 'I' for Inactive)
REMARK    1  A    between atoms: C_1  and  O_2
REMARK    2  A    between atoms: O_2  and  C_3
REMARK    3  A    between atoms: C_5  and  O_6
REMARK    4  A    between atoms: O_6  and  C_7
REMARK    5  A    between atoms: C_8  and  C_9
REMARK    6  A    between atoms: C_18  and  N_19
REMARK                            x       y       z     vdW  Elec       q    Type
REMARK                         _______ _______ _______ _____ _____    ______ ____
ROOT
ATOM      1  C   UNL     1       0.885   9.216  19.466  0.00  0.00    +0.000 A 
ATOM      2  C   UNL     1       1.140   8.100  20.256  0.00  0.00    +0.000 A 
ATOM      3  N   UNL     1       2.136   7.428  19.674  0.00  0.00    +0.000 N 
ATOM      4  C   UNL     1       2.737   6.283  20.050  0.00  0.00    +0.000 A 
ATOM      5  C   UNL     1       3.733   5.774  19.221  0.00  0.00    +0.000 A 
ATOM      6  C   UNL     1       4.076   6.469  18.029  0.00  0.00    +0.000 A 
ATOM      7  N   UNL     1       5.039   5.902  17.128  0.00  0.00    +0.000 N 
ATOM      8  C   UNL     1       5.398   6.478  15.850  0.00  0.00    +0.000 C 
ATOM      9  C   UNL     1       5.410   5.268  14.920  0.00  0.00    +0.000 C 
ATOM     10  C   UNL     1       5.969   4.154  15.812  0.00  0.00    +0.000 C 
ATOM     11  C   UNL     1       5.325   4.477  17.161  0.00  0.00    +0.000 C 
ATOM     12  N   UNL     1       3.442   7.650  17.731  0.00  0.00    +0.000 NA
ATOM     13  C   UNL     1       2.472   8.105  18.572  0.00  0.00    +0.000 A 
ATOM     14  N   UNL     1       1.743   9.225  18.406  0.00  0.00    +0.000 NA
ENDROOT
BRANCH   1  18
ATOM     15  C   UNL     1      -2.040  12.279  20.244  0.00  0.00    +0.000 A 
ATOM     16  C   UNL     1      -2.067  11.587  19.024  0.00  0.00    +0.000 A 
ATOM     17  C   UNL     1      -1.140  10.579  18.734  0.00  0.00    +0.000 A 
ATOM     18  C   UNL     1      -0.150  10.255  19.699  0.00  0.00    +0.000 A 
ATOM     19  C   UNL     1      -0.136  10.946  20.923  0.00  0.00    +0.000 A 
ATOM     20  C   UNL     1      -1.075  11.939  21.200  0.00  0.00    +0.000 A 
ATOM     21 CL   UNL     1      -1.029  12.760  22.754  0.00  0.00    +0.000 Cl
BRANCH  15  23
ATOM     22  C   UNL     1      -4.283  13.123  20.596  0.00  0.00    +0.000 C 
ATOM     23  O   UNL     1      -2.914  13.284  20.502  0.00  0.00    +0.000 OA
ENDBRANCH  15  23
BRANCH  17  24
ATOM     24  O   UNL     1      -1.164   9.947  17.528  0.00  0.00    +0.000 OA
ATOM     25  C   UNL     1      -2.243   9.893  16.662  0.00  0.00    +0.000 C 
ENDBRANCH  17  24
ENDBRANCH   1  18
BRANCH  10  26
ATOM     26  N   UNL     1       7.429   4.202  15.906  0.00  0.00    +0.000 NA
ATOM     27  H   UNL     1       7.841   3.326  16.294  0.00  0.00    +0.000 HD
ATOM     28  H   UNL     1       7.705   5.016  16.504  0.00  0.00    +0.000 HD
ENDBRANCH  10  26
TORSDOF 4
ENDMDL
MODEL 4
REMARK VINA RESULT:      -7.0      2.422      3.042
REMARK  Name = 
REMARK  6 active torsions:
REMARK  status: ('A' for Active; 'I' for Inactive)
REMARK    1  A    between atoms: C_1  and  O_2
REMARK    2  A    between atoms: O_2  and  C_3
REMARK    3  A    between atoms: C_5  and  O_6
REMARK    4  A    between atoms: O_6  and  C_7
REMARK    5  A    between atoms: C_8  and  C_9
REMARK    6  A    between atoms: C_18  and  N_19
REMARK                            x       y       z     vdW  Elec       q    Type
REMARK                         _______ _______ _______ _____ _____    ______ ____
ROOT
ATOM      1  C   UNL     1       1.673   7.569  20.207  0.00  0.00    +0.000 A 
ATOM      2  C   UNL     1       1.054   7.998  21.377  0.00  0.00    +0.000 A 
ATOM      3  N   UNL     1       0.633   9.247  21.162  0.00  0.00    +0.000 N 
ATOM      4  C   UNL     1      -0.017  10.090  21.986  0.00  0.00    +0.000 A 
ATOM      5  C   UNL     1      -0.300  11.369  21.512  0.00  0.00    +0.000 A 
ATOM      6  C   UNL     1       0.098  11.731  20.196  0.00  0.00    +0.000 A 
ATOM      7  N   UNL     1      -0.112  13.073  19.735  0.00  0.00    +0.000 N 
ATOM      8  C   UNL     1       0.330  13.574  18.451  0.00  0.00    +0.000 C 
ATOM      9  C   UNL     1       0.932  14.932  18.801  0.00  0.00    +0.000 C 
ATOM     10  C   UNL     1       0.009  15.441  19.912  0.00  0.00    +0.000 C 
ATOM     11  C   UNL     1      -0.291  14.157  20.687  0.00  0.00    +0.000 C 
ATOM     12  N   UNL     1       0.726  10.803  19.402  0.00  0.00    +0.000 NA
ATOM     13  C   UNL     1       0.983   9.567  19.913  0.00  0.00    +0.000 A 
ATOM     14  N   UNL     1       1.613   8.563  19.274  0.00  0.00    +0.000 NA
ENDROOT
BRANCH   1  18
ATOM     15  C   UNL     1       3.435   3.689  19.594  0.00  0.00    +0.000 A 
ATOM     16  C   UNL     1       3.809   4.759  18.768  0.00  0.00    +0.000 A 
ATOM     17  C   UNL     1       3.266   6.038  18.938  0.00  0.00    +0.000 A 
ATOM     18  C   UNL     1       2.314   6.252  19.970  0.00  0.00    +0.000 A 
ATOM     19  C   UNL     1       1.953   5.176  20.801  0.00  0.00    +0.000 A 
ATOM     20  C   UNL     1       2.512   3.911  20.624  0.00  0.00    +0.000 A 
ATOM     21 CL   UNL     1       2.043   2.604  21.701  0.00  0.00    +0.000 Cl
BRANCH  15  23
ATOM     22  C   UNL     1       3.497   1.576  18.412  0.00  0.00    +0.000 C 
ATOM     23  O   UNL     1       3.931   2.442  19.398  0.00  0.00    +0.000 OA
ENDBRANCH  15  23
BRANCH  17  24
ATOM     24  O   UNL     1       3.618   7.053  18.101  0.00  0.00    +0.000 OA
ATOM     25  C   UNL     1       4.518   6.965  17.053  0.00  0.00    +0.000 C 
ENDBRANCH  17  24
ENDBRANCH   1  18
BRANCH  10  26
ATOM     26  N   UNL     1      -1.223  16.030  19.382  0.00  0.00    +0.000 NA
ATOM     27  H   UNL     1      -2.065  15.441  19.559  0.00  0.00    +0.000 HD
ATOM     28  H   UNL     1      -1.110  16.184  18.352  0.00  0.00    +0.000 HD
ENDBRANCH  10  26
TORSDOF 4
ENDMDL
MODEL 5
REMARK VINA RESULT:      -6.9      4.021      8.932
REMARK  Name = 
REMARK  6 active torsions:
REMARK  status: ('A' for Active; 'I' for Inactive)
REMARK    1  A    between atoms: C_1  and  O_2
REMARK    2  A    between atoms: O_2  and  C_3
REMARK    3  A    between atoms: C_5  and  O_6
REMARK    4  A    between atoms: O_6  and  C_7
REMARK    5  A    between atoms: C_8  and  C_9
REMARK    6  A    between atoms: C_18  and  N_19
REMARK                            x       y       z     vdW  Elec       q    Type
REMARK                         _______ _______ _______ _____ _____    ______ ____
ROOT
ATOM      1  C   UNL     1       0.876   9.066  19.493  0.00  0.00    +0.000 A 
ATOM      2  C   UNL     1       1.102   7.950  20.292  0.00  0.00    +0.000 A 
ATOM      3  N   UNL     1       2.115   7.275  19.743  0.00  0.00    +0.000 N 
ATOM      4  C   UNL     1       2.702   6.130  20.140  0.00  0.00    +0.000 A 
ATOM      5  C   UNL     1       3.723   5.617  19.343  0.00  0.00    +0.000 A 
ATOM      6  C   UNL     1       4.105   6.309  18.162  0.00  0.00    +0.000 A 
ATOM      7  N   UNL     1       5.094   5.739  17.293  0.00  0.00    +0.000 N 
ATOM      8  C   UNL     1       5.495   6.311  16.026  0.00  0.00    +0.000 C 
ATOM      9  C   UNL     1       5.534   5.100  15.099  0.00  0.00    +0.000 C 
ATOM     10  C   UNL     1       6.062   3.987  16.010  0.00  0.00    +0.000 C 
ATOM     11  C   UNL     1       5.376   4.313  17.338  0.00  0.00    +0.000 C 
ATOM     12  N   UNL     1       3.483   7.491  17.843  0.00  0.00    +0.000 NA
ATOM     13  C   UNL     1       2.488   7.950  18.651  0.00  0.00    +0.000 A 
ATOM     14  N   UNL     1       1.767   9.071  18.460  0.00  0.00    +0.000 NA
ENDROOT
BRANCH   1  18
ATOM     15  C   UNL     1      -2.207  12.036  19.958  0.00  0.00    +0.000 A 
ATOM     16  C   UNL     1      -1.335  11.768  21.023  0.00  0.00    +0.000 A 
ATOM     17  C   UNL     1      -0.315  10.816  20.912  0.00  0.00    +0.000 A 
ATOM     18  C   UNL     1      -0.164  10.107  19.690  0.00  0.00    +0.000 A 
ATOM     19  C   UNL     1      -1.035  10.390  18.624  0.00  0.00    +0.000 A 
ATOM     20  C   UNL     1      -2.039  11.349  18.748  0.00  0.00    +0.000 A 
ATOM     21 CL   UNL     1      -3.090  11.681  17.379  0.00  0.00    +0.000 Cl
BRANCH  15  23
ATOM     22  C   UNL     1      -4.433  12.650  20.689  0.00  0.00    +0.000 C 
ATOM     23  O   UNL     1      -3.221  12.928  20.085  0.00  0.00    +0.000 OA
ENDBRANCH  15  23
BRANCH  17  24
ATOM     24  O   UNL     1       0.496  10.547  21.973  0.00  0.00    +0.000 OA
ATOM     25  C   UNL     1       0.144   9.825  23.099  0.00  0.00    +0.000 C 
ENDBRANCH  17  24
ENDBRANCH   1  18
BRANCH  10  26
ATOM     26  N   UNL     1       7.519   4.031  16.151  0.00  0.00    +0.000 NA
ATOM     27  H   UNL     1       8.021   3.754  15.280  0.00  0.00    +0.000 HD
ATOM     28  H   UNL     1       7.804   3.402  16.938  0.00  0.00    +0.000 HD
ENDBRANCH  10  26
TORSDOF 4
ENDMDL
MODEL 6
REMARK VINA RESULT:      -6.8      3.883      8.648
REMARK  Name = 
REMARK  6 active torsions:
REMARK  status: ('A' for Active; 'I' for Inactive)
REMARK    1  A    between atoms: C_1  and  O_2
REMARK    2  A    between atoms: O_2  and  C_3
REMARK    3  A    between atoms: C_5  and  O_6
REMARK    4  A    between atoms: O_6  and  C_7
REMARK    5  A    between atoms: C_8  and  C_9
REMARK    6  A    between atoms: C_18  and  N_19
REMARK                            x       y       z     vdW  Elec       q    Type
REMARK                         _______ _______ _______ _____ _____    ______ ____
ROOT
ATOM      1  C   UNL     1       1.160   9.960  19.388  0.00  0.00    +0.000 A 
ATOM      2  C   UNL     1       0.940   9.224  20.547  0.00  0.00    +0.000 A 
ATOM      3  N   UNL     1       1.433   8.002  20.334  0.00  0.00    +0.000 N 
ATOM      4  C   UNL     1       1.459   6.929  21.149  0.00  0.00    +0.000 A 
ATOM      5  C   UNL     1       2.001   5.749  20.647  0.00  0.00    +0.000 A 
ATOM      6  C   UNL     1       2.502   5.718  19.317  0.00  0.00    +0.000 A 
ATOM      7  N   UNL     1       2.981   4.483  18.767  0.00  0.00    +0.000 N 
ATOM      8  C   UNL     1       3.430   4.317  17.401  0.00  0.00    +0.000 C 
ATOM      9  C   UNL     1       2.770   3.008  16.979  0.00  0.00    +0.000 C 
ATOM     10  C   UNL     1       2.829   2.165  18.257  0.00  0.00    +0.000 C 
ATOM     11  C   UNL     1       2.562   3.213  19.339  0.00  0.00    +0.000 C 
ATOM     12  N   UNL     1       2.473   6.863  18.559  0.00  0.00    +0.000 NA
ATOM     13  C   UNL     1       1.929   7.992  19.094  0.00  0.00    +0.000 A 
ATOM     14  N   UNL     1       1.802   9.179  18.472  0.00  0.00    +0.000 NA
ENDROOT
BRANCH   1  18
ATOM     15  C   UNL     1       0.160  14.083  18.649  0.00  0.00    +0.000 A 
ATOM     16  C   UNL     1      -0.845  13.105  18.604  0.00  0.00    +0.000 A 
ATOM     17  C   UNL     1      -0.565  11.755  18.845  0.00  0.00    +0.000 A 
ATOM     18  C   UNL     1       0.770  11.371  19.141  0.00  0.00    +0.000 A 
ATOM     19  C   UNL     1       1.770  12.358  19.195  0.00  0.00    +0.000 A 
ATOM     20  C   UNL     1       1.470  13.700  18.963  0.00  0.00    +0.000 A 
ATOM     21 CL   UNL     1       2.752  14.899  19.062  0.00  0.00    +0.000 Cl
BRANCH  15  23
ATOM     22  C   UNL     1      -0.658  16.275  19.273  0.00  0.00    +0.000 C 
ATOM     23  O   UNL     1      -0.109  15.382  18.372  0.00  0.00    +0.000 OA
ENDBRANCH  15  23
BRANCH  17  24
ATOM     24  O   UNL     1      -1.552  10.821  18.760  0.00  0.00    +0.000 OA
ATOM     25  C   UNL     1      -2.068  10.291  17.590  0.00  0.00    +0.000 C 
ENDBRANCH  17  24
ENDBRANCH   1  18
BRANCH  10  26
ATOM     26  N   UNL     1       4.139   1.541  18.449  0.00  0.00    +0.000 NA
ATOM     27  H   UNL     1       4.472   1.585  19.436  0.00  0.00    +0.000 HD
ATOM     28  H   UNL     1       4.834   2.009  17.821  0.00  0.00    +0.000 HD
ENDBRANCH  10  26
TORSDOF 4
ENDMDL
MODEL 7
REMARK VINA RESULT:      -6.7      2.353      3.296
REMARK  Name = 
REMARK  6 active torsions:
REMARK  status: ('A' for Active; 'I' for Inactive)
REMARK    1  A    between atoms: C_1  and  O_2
REMARK    2  A    between atoms: O_2  and  C_3
REMARK    3  A    between atoms: C_5  and  O_6
REMARK    4  A    between atoms: O_6  and  C_7
REMARK    5  A    between atoms: C_8  and  C_9
REMARK    6  A    between atoms: C_18  and  N_19
REMARK                            x       y       z     vdW  Elec       q    Type
REMARK                         _______ _______ _______ _____ _____    ______ ____
ROOT
ATOM      1  C   UNL     1       2.138   7.325  18.904  0.00  0.00    +0.000 A 
ATOM      2  C   UNL     1       2.186   8.439  18.072  0.00  0.00    +0.000 A 
ATOM      3  N   UNL     1       1.670   9.462  18.757  0.00  0.00    +0.000 N 
ATOM      4  C   UNL     1       1.495  10.745  18.387  0.00  0.00    +0.000 A 
ATOM      5  C   UNL     1       0.883  11.603  19.298  0.00  0.00    +0.000 A 
ATOM      6  C   UNL     1       0.474  11.104  20.564  0.00  0.00    +0.000 A 
ATOM      7  N   UNL     1      -0.236  11.960  21.470  0.00  0.00    +0.000 N 
ATOM      8  C   UNL     1      -0.773  11.535  22.745  0.00  0.00    +0.000 C 
ATOM      9  C   UNL     1      -2.165  12.161  22.756  0.00  0.00    +0.000 C 
ATOM     10  C   UNL     1      -1.942  13.507  22.060  0.00  0.00    +0.000 C 
ATOM     11  C   UNL     1      -0.930  13.138  20.975  0.00  0.00    +0.000 C 
ATOM     12  N   UNL     1       0.720   9.790  20.883  0.00  0.00    +0.000 NA
ATOM     13  C   UNL     1       1.318   8.990  19.957  0.00  0.00    +0.000 A 
ATOM     14  N   UNL     1       1.600   7.682  20.106  0.00  0.00    +0.000 NA
ENDROOT
BRANCH   1  18
ATOM     15  C   UNL     1       3.297   3.290  17.949  0.00  0.00    +0.000 A 
ATOM     16  C   UNL     1       4.215   4.336  17.775  0.00  0.00    +0.000 A 
ATOM     17  C   UNL     1       3.882   5.660  18.081  0.00  0.00    +0.000 A 
ATOM     18  C   UNL     1       2.582   5.948  18.576  0.00  0.00    +0.000 A 
ATOM     19  C   UNL     1       1.671   4.892  18.757  0.00  0.00    +0.000 A 
ATOM     20  C   UNL     1       2.023   3.577  18.458  0.00  0.00    +0.000 A 
ATOM     21 CL   UNL     1       0.855   2.290  18.721  0.00  0.00    +0.000 Cl
BRANCH  15  23
ATOM     22  C   UNL     1       4.040   1.053  18.505  0.00  0.00    +0.000 C 
ATOM     23  O   UNL     1       3.610   2.015  17.610  0.00  0.00    +0.000 OA
ENDBRANCH  15  23
BRANCH  17  24
ATOM     24  O   UNL     1       4.780   6.663  17.870  0.00  0.00    +0.000 OA
ATOM     25  C   UNL     1       5.778   6.669  16.912  0.00  0.00    +0.000 C 
ENDBRANCH  17  24
ENDBRANCH   1  18
BRANCH  10  26
ATOM     26  N   UNL     1      -1.390  14.515  22.968  0.00  0.00    +0.000 NA
ATOM     27  H   UNL     1      -0.543  14.184  23.478  0.00  0.00    +0.000 HD
ATOM     28  H   UNL     1      -2.128  14.795  23.655  0.00  0.00    +0.000 HD
ENDBRANCH  10  26
TORSDOF 4
ENDMDL
MODEL 8
REMARK VINA RESULT:      -6.7      4.068      9.035
REMARK  Name = 
REMARK  6 active torsions:
REMARK  status: ('A' for Active; 'I' for Inactive)
REMARK    1  A    between atoms: C_1  and  O_2
REMARK    2  A    between atoms: O_2  and  C_3
REMARK    3  A    between atoms: C_5  and  O_6
REMARK    4  A    between atoms: O_6  and  C_7
REMARK    5  A    between atoms: C_8  and  C_9
REMARK    6  A    between atoms: C_18  and  N_19
REMARK                            x       y       z     vdW  Elec       q    Type
REMARK                         _______ _______ _______ _____ _____    ______ ____
ROOT
ATOM      1  C   UNL     1       0.783   9.322  19.069  0.00  0.00    +0.000 A 
ATOM      2  C   UNL     1       1.084   8.300  19.963  0.00  0.00    +0.000 A 
ATOM      3  N   UNL     1       2.112   7.621  19.449  0.00  0.00    +0.000 N 
ATOM      4  C   UNL     1       2.763   6.546  19.934  0.00  0.00    +0.000 A 
ATOM      5  C   UNL     1       3.785   6.005  19.158  0.00  0.00    +0.000 A 
ATOM      6  C   UNL     1       4.102   6.596  17.905  0.00  0.00    +0.000 A 
ATOM      7  N   UNL     1       5.092   5.990  17.063  0.00  0.00    +0.000 N 
ATOM      8  C   UNL     1       5.431   6.455  15.735  0.00  0.00    +0.000 C 
ATOM      9  C   UNL     1       5.502   5.162  14.926  0.00  0.00    +0.000 C 
ATOM     10  C   UNL     1       6.106   4.167  15.922  0.00  0.00    +0.000 C 
ATOM     11  C   UNL     1       5.442   4.589  17.233  0.00  0.00    +0.000 C 
ATOM     12  N   UNL     1       3.416   7.713  17.494  0.00  0.00    +0.000 NA
ATOM     13  C   UNL     1       2.423   8.203  18.287  0.00  0.00    +0.000 A 
ATOM     14  N   UNL     1       1.644   9.268  18.013  0.00  0.00    +0.000 NA
ENDROOT
BRANCH   1  18
ATOM     15  C   UNL     1      -2.444  12.155  19.399  0.00  0.00    +0.000 A 
ATOM     16  C   UNL     1      -1.253  12.372  20.109  0.00  0.00    +0.000 A 
ATOM     17  C   UNL     1      -0.177  11.481  20.024  0.00  0.00    +0.000 A 
ATOM     18  C   UNL     1      -0.299  10.330  19.201  0.00  0.00    +0.000 A 
ATOM     19  C   UNL     1      -1.491  10.125  18.484  0.00  0.00    +0.000 A 
ATOM     20  C   UNL     1      -2.549  11.029  18.572  0.00  0.00    +0.000 A 
ATOM     21 CL   UNL     1      -4.011  10.738  17.641  0.00  0.00    +0.000 Cl
BRANCH  15  23
ATOM     22  C   UNL     1      -4.417  12.957  20.551  0.00  0.00    +0.000 C 
ATOM     23  O   UNL     1      -3.499  12.998  19.519  0.00  0.00    +0.000 OA
ENDBRANCH  15  23
BRANCH  17  24
ATOM     24  O   UNL     1       0.954  11.696  20.751  0.00  0.00    +0.000 OA
ATOM     25  C   UNL     1       1.792  12.791  20.641  0.00  0.00    +0.000 C 
ENDBRANCH  17  24
ENDBRANCH   1  18
BRANCH  10  26
ATOM     26  N   UNL     1       7.563   4.289  16.011  0.00  0.00    +0.000 NA
ATOM     27  H   UNL     1       7.959   3.831  16.860  0.00  0.00    +0.000 HD
ATOM     28  H   UNL     1       7.819   5.304  16.006  0.00  0.00    +0.000 HD
ENDBRANCH  10  26
TORSDOF 4
ENDMDL
MODEL 9
REMARK VINA RESULT:      -6.7      1.886      2.612
REMARK  Name = 
REMARK  6 active torsions:
REMARK  status: ('A' for Active; 'I' for Inactive)
REMARK    1  A    between atoms: C_1  and  O_2
REMARK    2  A    between atoms: O_2  and  C_3
REMARK    3  A    between atoms: C_5  and  O_6
REMARK    4  A    between atoms: O_6  and  C_7
REMARK    5  A    between atoms: C_8  and  C_9
REMARK    6  A    between atoms: C_18  and  N_19
REMARK                            x       y       z     vdW  Elec       q    Type
REMARK                         _______ _______ _______ _____ _____    ______ ____
ROOT
ATOM      1  C   UNL     1       1.731   8.448  18.826  0.00  0.00    +0.000 A 
ATOM      2  C   UNL     1       0.945   9.159  17.925  0.00  0.00    +0.000 A 
ATOM      3  N   UNL     1       0.228  10.032  18.635  0.00  0.00    +0.000 N 
ATOM      4  C   UNL     1      -0.679  10.939  18.224  0.00  0.00    +0.000 A 
ATOM      5  C   UNL     1      -1.319  11.701  19.198  0.00  0.00    +0.000 A 
ATOM      6  C   UNL     1      -0.997  11.501  20.568  0.00  0.00    +0.000 A 
ATOM      7  N   UNL     1      -1.716  12.220  21.579  0.00  0.00    +0.000 N 
ATOM      8  C   UNL     1      -1.533  12.032  23.002  0.00  0.00    +0.000 C 
ATOM      9  C   UNL     1      -2.963  11.991  23.531  0.00  0.00    +0.000 C 
ATOM     10  C   UNL     1      -3.685  13.016  22.649  0.00  0.00    +0.000 C 
ATOM     11  C   UNL     1      -3.026  12.782  21.289  0.00  0.00    +0.000 C 
ATOM     12  N   UNL     1      -0.034  10.581  20.907  0.00  0.00    +0.000 NA
ATOM     13  C   UNL     1       0.561   9.858  19.918  0.00  0.00    +0.000 A 
ATOM     14  N   UNL     1       1.496   8.904  20.089  0.00  0.00    +0.000 NA
ENDROOT
BRANCH   1  18
ATOM     15  C   UNL     1       4.563   5.362  17.824  0.00  0.00    +0.000 A 
ATOM     16  C   UNL     1       3.714   5.194  18.928  0.00  0.00    +0.000 A 
ATOM     17  C   UNL     1       2.774   6.168  19.284  0.00  0.00    +0.000 A 
ATOM     18  C   UNL     1       2.683   7.354  18.507  0.00  0.00    +0.000 A 
ATOM     19  C   UNL     1       3.531   7.511  17.396  0.00  0.00    +0.000 A 
ATOM     20  C   UNL     1       4.453   6.525  17.050  0.00  0.00    +0.000 A 
ATOM     21 CL   UNL     1       5.476   6.759  15.639  0.00  0.00    +0.000 Cl
BRANCH  15  23
ATOM     22  C   UNL     1       6.840   4.537  17.838  0.00  0.00    +0.000 C 
ATOM     23  O   UNL     1       5.501   4.435  17.510  0.00  0.00    +0.000 OA
ENDBRANCH  15  23
BRANCH  17  24
ATOM     24  O   UNL     1       1.986   5.997  20.381  0.00  0.00    +0.000 OA
ATOM     25  C   UNL     1       1.392   4.811  20.775  0.00  0.00    +0.000 C 
ENDBRANCH  17  24
ENDBRANCH   1  18
BRANCH  10  26
ATOM     26  N   UNL     1      -3.467  14.390  23.106  0.00  0.00    +0.000 NA
ATOM     27  H   UNL     1      -2.761  14.902  22.535  0.00  0.00    +0.000 HD
ATOM     28  H   UNL     1      -3.163  14.371  24.108  0.00  0.00    +0.000 HD
ENDBRANCH  10  26
TORSDOF 4
ENDMDL
