MODEL 1
REMARK VINA RESULT:      -7.2      0.000      0.000
REMARK  Name = 
REMARK  5 active torsions:
REMARK  status: ('A' for Active; 'I' for Inactive)
REMARK    1  A    between atoms: C_1  and  C_2
REMARK    2  A    between atoms: C_2  and  C_3
REMARK    3  A    between atoms: C_7  and  S_8
REMARK    4  A    between atoms: S_8  and  C_9
REMARK    5  A    between atoms: C_15  and  O_16
REMARK                            x       y       z     vdW  Elec       q    Type
REMARK                         _______ _______ _______ _____ _____    ______ ____
ROOT
ATOM      1  C   UNL     1       1.550   2.663  21.878  0.00  0.00    +0.000 C 
ATOM      2  C   UNL     1       1.893   3.297  20.516  0.00  0.00    +0.000 C 
ATOM      3  C   UNL     1       0.625   3.239  19.638  0.00  0.00    +0.000 C 
ATOM      4  C   UNL     1       3.043   2.510  19.864  0.00  0.00    +0.000 C 
ATOM      5  C   UNL     1       3.641   3.186  18.639  0.00  0.00    +0.000 C 
ATOM      6  O   UNL     1       4.189   2.504  17.771  0.00  0.00    +0.000 OA
ATOM      7  C   UNL     1       3.582   4.683  18.549  0.00  0.00    +0.000 C 
ATOM      8  C   UNL     1       2.952   5.381  19.512  0.00  0.00    +0.000 C 
ATOM      9  C   UNL     1       2.337   4.756  20.735  0.00  0.00    +0.000 C 
ENDROOT
BRANCH   8  10
ATOM     10  O   UNL     1       2.764   6.752  19.436  0.00  0.00    +0.000 OA
ATOM     11  H   UNL     1       2.348   6.945  18.573  0.00  0.00    +0.000 HD
ENDBRANCH   8  10
BRANCH   7  12
ATOM     12  S   UNL     1       4.207   5.442  17.119  0.00  0.00    +0.000 S 
BRANCH  12  13
ATOM     13  C   UNL     1       5.835   5.946  17.661  0.00  0.00    +0.000 A 
ATOM     14  C   UNL     1       6.395   7.123  17.146  0.00  0.00    +0.000 A 
ATOM     15  C   UNL     1       7.592   7.633  17.663  0.00  0.00    +0.000 A 
ATOM     16  C   UNL     1       8.243   6.964  18.699  0.00  0.00    +0.000 A 
ATOM     17  C   UNL     1       7.703   5.784  19.209  0.00  0.00    +0.000 A 
ATOM     18  C   UNL     1       6.504   5.278  18.693  0.00  0.00    +0.000 A 
ENDBRANCH  12  13
ENDBRANCH   7  12
TORSDOF 3
ENDMDL
MODEL 2
REMARK VINA RESULT:      -6.9      1.692      3.113
REMARK  Name = 
REMARK  5 active torsions:
REMARK  status: ('A' for Active; 'I' for Inactive)
REMARK    1  A    between atoms: C_1  and  C_2
REMARK    2  A    between atoms: C_2  and  C_3
REMARK    3  A    between atoms: C_7  and  S_8
REMARK    4  A    between atoms: S_8  and  C_9
REMARK    5  A    between atoms: C_15  and  O_16
REMARK                            x       y       z     vdW  Elec       q    Type
REMARK                         _______ _______ _______ _____ _____    ______ ____
ROOT
ATOM      1  C   UNL     1       0.387   2.625  20.069  0.00  0.00    +0.000 C 
ATOM      2  C   UNL     1       1.738   3.353  20.214  0.00  0.00    +0.000 C 
ATOM      3  C   UNL     1       1.998   3.564  21.721  0.00  0.00    +0.000 C 
ATOM      4  C   UNL     1       1.669   4.702  19.479  0.00  0.00    +0.000 C 
ATOM      5  C   UNL     1       3.015   5.398  19.333  0.00  0.00    +0.000 C 
ATOM      6  O   UNL     1       3.059   6.625  19.224  0.00  0.00    +0.000 OA
ATOM      7  C   UNL     1       4.254   4.554  19.281  0.00  0.00    +0.000 C 
ATOM      8  C   UNL     1       4.154   3.220  19.428  0.00  0.00    +0.000 C 
ATOM      9  C   UNL     1       2.848   2.489  19.585  0.00  0.00    +0.000 C 
ENDROOT
BRANCH   8  10
ATOM     10  O   UNL     1       5.264   2.393  19.502  0.00  0.00    +0.000 OA
ATOM     11  H   UNL     1       5.577   2.402  20.428  0.00  0.00    +0.000 HD
ENDBRANCH   8  10
BRANCH   7  12
ATOM     12  S   UNL     1       5.788   5.358  19.181  0.00  0.00    +0.000 S 
BRANCH  12  13
ATOM     13  C   UNL     1       6.072   5.375  17.416  0.00  0.00    +0.000 A 
ATOM     14  C   UNL     1       7.094   4.580  16.878  0.00  0.00    +0.000 A 
ATOM     15  C   UNL     1       7.242   4.444  15.493  0.00  0.00    +0.000 A 
ATOM     16  C   UNL     1       6.367   5.106  14.631  0.00  0.00    +0.000 A 
ATOM     17  C   UNL     1       5.356   5.909  15.155  0.00  0.00    +0.000 A 
ATOM     18  C   UNL     1       5.208   6.042  16.540  0.00  0.00    +0.000 A 
ENDBRANCH  12  13
ENDBRANCH   7  12
TORSDOF 3
ENDMDL
MODEL 3
REMARK VINA RESULT:      -6.8      2.111      3.334
REMARK  Name = 
REMARK  5 active torsions:
REMARK  status: ('A' for Active; 'I' for Inactive)
REMARK    1  A    between atoms: C_1  and  C_2
REMARK    2  A    between atoms: C_2  and  C_3
REMARK    3  A    between atoms: C_7  and  S_8
REMARK    4  A    between atoms: S_8  and  C_9
REMARK    5  A    between atoms: C_15  and  O_16
REMARK                            x       y       z     vdW  Elec       q    Type
REMARK                         _______ _______ _______ _____ _____    ______ ____
ROOT
ATOM      1  C   UNL     1       0.412   2.848  19.810  0.00  0.00    +0.000 C 
ATOM      2  C   UNL     1       1.791   3.535  19.815  0.00  0.00    +0.000 C 
ATOM      3  C   UNL     1       1.980   4.200  21.196  0.00  0.00    +0.000 C 
ATOM      4  C   UNL     1       1.840   4.586  18.693  0.00  0.00    +0.000 C 
ATOM      5  C   UNL     1       3.229   5.151  18.433  0.00  0.00    +0.000 C 
ATOM      6  O   UNL     1       3.349   6.279  17.950  0.00  0.00    +0.000 OA
ATOM      7  C   UNL     1       4.419   4.289  18.734  0.00  0.00    +0.000 C 
ATOM      8  C   UNL     1       4.236   3.073  19.281  0.00  0.00    +0.000 C 
ATOM      9  C   UNL     1       2.884   2.477  19.567  0.00  0.00    +0.000 C 
ENDROOT
BRANCH   8  10
ATOM     10  O   UNL     1       5.291   2.271  19.687  0.00  0.00    +0.000 OA
ATOM     11  H   UNL     1       4.913   1.507  20.167  0.00  0.00    +0.000 HD
ENDBRANCH   8  10
BRANCH   7  12
ATOM     12  S   UNL     1       6.000   4.963  18.496  0.00  0.00    +0.000 S 
BRANCH  12  13
ATOM     13  C   UNL     1       6.266   4.653  16.755  0.00  0.00    +0.000 A 
ATOM     14  C   UNL     1       5.303   3.936  16.032  0.00  0.00    +0.000 A 
ATOM     15  C   UNL     1       5.398   3.813  14.641  0.00  0.00    +0.000 A 
ATOM     16  C   UNL     1       6.462   4.403  13.960  0.00  0.00    +0.000 A 
ATOM     17  C   UNL     1       7.433   5.106  14.671  0.00  0.00    +0.000 A 
ATOM     18  C   UNL     1       7.336   5.232  16.062  0.00  0.00    +0.000 A 
ENDBRANCH  12  13
ENDBRANCH   7  12
TORSDOF 3
ENDMDL
MODEL 4
REMARK VINA RESULT:      -6.7      1.648      2.475
REMARK  Name = 
REMARK  5 active torsions:
REMARK  status: ('A' for Active; 'I' for Inactive)
REMARK    1  A    between atoms: C_1  and  C_2
REMARK    2  A    between atoms: C_2  and  C_3
REMARK    3  A    between atoms: C_7  and  S_8
REMARK    4  A    between atoms: S_8  and  C_9
REMARK    5  A    between atoms: C_15  and  O_16
REMARK                            x       y       z     vdW  Elec       q    Type
REMARK                         _______ _______ _______ _____ _____    ______ ____
ROOT
ATOM      1  C   UNL     1       1.123   2.885  21.988  0.00  0.00    +0.000 C 
ATOM      2  C   UNL     1       1.948   3.352  20.773  0.00  0.00    +0.000 C 
ATOM      3  C   UNL     1       2.295   4.841  20.985  0.00  0.00    +0.000 C 
ATOM      4  C   UNL     1       1.119   3.162  19.492  0.00  0.00    +0.000 C 
ATOM      5  C   UNL     1       1.913   3.347  18.207  0.00  0.00    +0.000 C 
ATOM      6  O   UNL     1       1.334   3.699  17.177  0.00  0.00    +0.000 OA
ATOM      7  C   UNL     1       3.383   3.047  18.225  0.00  0.00    +0.000 C 
ATOM      8  C   UNL     1       3.972   2.687  19.381  0.00  0.00    +0.000 C 
ATOM      9  C   UNL     1       3.231   2.503  20.677  0.00  0.00    +0.000 C 
ENDROOT
BRANCH   8  10
ATOM     10  O   UNL     1       5.341   2.505  19.494  0.00  0.00    +0.000 OA
ATOM     11  H   UNL     1       5.622   1.917  18.764  0.00  0.00    +0.000 HD
ENDBRANCH   8  10
BRANCH   7  12
ATOM     12  S   UNL     1       4.293   3.323  16.774  0.00  0.00    +0.000 S 
BRANCH  12  13
ATOM     13  C   UNL     1       5.134   4.853  17.162  0.00  0.00    +0.000 A 
ATOM     14  C   UNL     1       6.536   4.882  17.167  0.00  0.00    +0.000 A 
ATOM     15  C   UNL     1       7.226   6.092  17.307  0.00  0.00    +0.000 A 
ATOM     16  C   UNL     1       6.518   7.285  17.449  0.00  0.00    +0.000 A 
ATOM     17  C   UNL     1       5.124   7.266  17.460  0.00  0.00    +0.000 A 
ATOM     18  C   UNL     1       4.435   6.056  17.316  0.00  0.00    +0.000 A 
ENDBRANCH  12  13
ENDBRANCH   7  12
TORSDOF 3
ENDMDL
MODEL 5
REMARK VINA RESULT:      -6.7      1.987      5.906
REMARK  Name = 
REMARK  5 active torsions:
REMARK  status: ('A' for Active; 'I' for Inactive)
REMARK    1  A    between atoms: C_1  and  C_2
REMARK    2  A    between atoms: C_2  and  C_3
REMARK    3  A    between atoms: C_7  and  S_8
REMARK    4  A    between atoms: S_8  and  C_9
REMARK    5  A    between atoms: C_15  and  O_16
REMARK                            x       y       z     vdW  Elec       q    Type
REMARK                         _______ _______ _______ _____ _____    ______ ____
ROOT
ATOM      1  C   UNL     1       7.053   4.953  14.586  0.00  0.00    +0.000 C 
ATOM      2  C   UNL     1       5.972   4.966  15.684  0.00  0.00    +0.000 C 
ATOM      3  C   UNL     1       4.844   4.008  15.244  0.00  0.00    +0.000 C 
ATOM      4  C   UNL     1       5.435   6.398  15.852  0.00  0.00    +0.000 C 
ATOM      5  C   UNL     1       4.550   6.588  17.075  0.00  0.00    +0.000 C 
ATOM      6  O   UNL     1       3.698   7.478  17.080  0.00  0.00    +0.000 OA
ATOM      7  C   UNL     1       4.778   5.705  18.267  0.00  0.00    +0.000 C 
ATOM      8  C   UNL     1       5.706   4.732  18.203  0.00  0.00    +0.000 C 
ATOM      9  C   UNL     1       6.596   4.499  17.013  0.00  0.00    +0.000 C 
ENDROOT
BRANCH   8  10
ATOM     10  O   UNL     1       5.892   3.811  19.222  0.00  0.00    +0.000 OA
ATOM     11  H   UNL     1       6.508   4.208  19.870  0.00  0.00    +0.000 HD
ENDBRANCH   8  10
BRANCH   7  12
ATOM     12  S   UNL     1       3.722   5.884  19.632  0.00  0.00    +0.000 S 
BRANCH  12  13
ATOM     13  C   UNL     1       2.644   4.469  19.441  0.00  0.00    +0.000 A 
ATOM     14  C   UNL     1       2.091   3.870  20.581  0.00  0.00    +0.000 A 
ATOM     15  C   UNL     1       1.121   2.867  20.464  0.00  0.00    +0.000 A 
ATOM     16  C   UNL     1       0.698   2.452  19.202  0.00  0.00    +0.000 A 
ATOM     17  C   UNL     1       1.252   3.031  18.061  0.00  0.00    +0.000 A 
ATOM     18  C   UNL     1       2.219   4.035  18.180  0.00  0.00    +0.000 A 
ENDBRANCH  12  13
ENDBRANCH   7  12
TORSDOF 3
ENDMDL
MODEL 6
REMARK VINA RESULT:      -6.7      1.780      5.724
REMARK  Name = 
REMARK  5 active torsions:
REMARK  status: ('A' for Active; 'I' for Inactive)
REMARK    1  A    between atoms: C_1  and  C_2
REMARK    2  A    between atoms: C_2  and  C_3
REMARK    3  A    between atoms: C_7  and  S_8
REMARK    4  A    between atoms: S_8  and  C_9
REMARK    5  A    between atoms: C_15  and  O_16
REMARK                            x       y       z     vdW  Elec       q    Type
REMARK                         _______ _______ _______ _____ _____    ______ ____
ROOT
ATOM      1  C   UNL     1       7.152   5.133  15.071  0.00  0.00    +0.000 C 
ATOM      2  C   UNL     1       6.464   5.575  16.377  0.00  0.00    +0.000 C 
ATOM      3  C   UNL     1       7.416   6.550  17.104  0.00  0.00    +0.000 C 
ATOM      4  C   UNL     1       6.183   4.338  17.248  0.00  0.00    +0.000 C 
ATOM      5  C   UNL     1       5.282   4.613  18.443  0.00  0.00    +0.000 C 
ATOM      6  O   UNL     1       5.360   3.899  19.444  0.00  0.00    +0.000 OA
ATOM      7  C   UNL     1       4.284   5.729  18.344  0.00  0.00    +0.000 C 
ATOM      8  C   UNL     1       4.253   6.495  17.237  0.00  0.00    +0.000 C 
ATOM      9  C   UNL     1       5.131   6.269  16.036  0.00  0.00    +0.000 C 
ENDROOT
BRANCH   8  10
ATOM     10  O   UNL     1       3.436   7.609  17.124  0.00  0.00    +0.000 OA
ATOM     11  H   UNL     1       2.749   7.542  17.817  0.00  0.00    +0.000 HD
ENDBRANCH   8  10
BRANCH   7  12
ATOM     12  S   UNL     1       3.306   6.079  19.734  0.00  0.00    +0.000 S 
BRANCH  12  13
ATOM     13  C   UNL     1       2.210   4.665  19.768  0.00  0.00    +0.000 A 
ATOM     14  C   UNL     1       1.709   4.158  18.561  0.00  0.00    +0.000 A 
ATOM     15  C   UNL     1       0.982   2.962  18.534  0.00  0.00    +0.000 A 
ATOM     16  C   UNL     1       0.747   2.264  19.718  0.00  0.00    +0.000 A 
ATOM     17  C   UNL     1       1.229   2.767  20.926  0.00  0.00    +0.000 A 
ATOM     18  C   UNL     1       1.958   3.961  20.950  0.00  0.00    +0.000 A 
ENDBRANCH  12  13
ENDBRANCH   7  12
TORSDOF 3
ENDMDL
MODEL 7
REMARK VINA RESULT:      -6.7      2.562      5.234
REMARK  Name = 
REMARK  5 active torsions:
REMARK  status: ('A' for Active; 'I' for Inactive)
REMARK    1  A    between atoms: C_1  and  C_2
REMARK    2  A    between atoms: C_2  and  C_3
REMARK    3  A    between atoms: C_7  and  S_8
REMARK    4  A    between atoms: S_8  and  C_9
REMARK    5  A    between atoms: C_15  and  O_16
REMARK                            x       y       z     vdW  Elec       q    Type
REMARK                         _______ _______ _______ _____ _____    ______ ____
ROOT
ATOM      1  C   UNL     1       6.893   4.428  15.046  0.00  0.00    +0.000 C 
ATOM      2  C   UNL     1       5.869   4.830  16.125  0.00  0.00    +0.000 C 
ATOM      3  C   UNL     1       5.331   6.231  15.764  0.00  0.00    +0.000 C 
ATOM      4  C   UNL     1       6.561   4.850  17.499  0.00  0.00    +0.000 C 
ATOM      5  C   UNL     1       5.602   4.983  18.674  0.00  0.00    +0.000 C 
ATOM      6  O   UNL     1       5.996   5.482  19.730  0.00  0.00    +0.000 OA
ATOM      7  C   UNL     1       4.206   4.455  18.521  0.00  0.00    +0.000 C 
ATOM      8  C   UNL     1       3.819   3.939  17.339  0.00  0.00    +0.000 C 
ATOM      9  C   UNL     1       4.726   3.797  16.148  0.00  0.00    +0.000 C 
ENDROOT
BRANCH   8  10
ATOM     10  O   UNL     1       2.515   3.537  17.094  0.00  0.00    +0.000 OA
ATOM     11  H   UNL     1       2.548   2.620  16.756  0.00  0.00    +0.000 HD
ENDBRANCH   8  10
BRANCH   7  12
ATOM     12  S   UNL     1       3.100   4.669  19.840  0.00  0.00    +0.000 S 
BRANCH  12  13
ATOM     13  C   UNL     1       2.419   6.283  19.480  0.00  0.00    +0.000 A 
ATOM     14  C   UNL     1       1.830   7.025  20.513  0.00  0.00    +0.000 A 
ATOM     15  C   UNL     1       1.432   8.351  20.306  0.00  0.00    +0.000 A 
ATOM     16  C   UNL     1       1.616   8.946  19.058  0.00  0.00    +0.000 A 
ATOM     17  C   UNL     1       2.188   8.213  18.020  0.00  0.00    +0.000 A 
ATOM     18  C   UNL     1       2.589   6.889  18.229  0.00  0.00    +0.000 A 
ENDBRANCH  12  13
ENDBRANCH   7  12
TORSDOF 3
ENDMDL
MODEL 8
REMARK VINA RESULT:      -6.6      2.010      5.774
REMARK  Name = 
REMARK  5 active torsions:
REMARK  status: ('A' for Active; 'I' for Inactive)
REMARK    1  A    between atoms: C_1  and  C_2
REMARK    2  A    between atoms: C_2  and  C_3
REMARK    3  A    between atoms: C_7  and  S_8
REMARK    4  A    between atoms: S_8  and  C_9
REMARK    5  A    between atoms: C_15  and  O_16
REMARK                            x       y       z     vdW  Elec       q    Type
REMARK                         _______ _______ _______ _____ _____    ______ ____
ROOT
ATOM      1  C   UNL     1       7.042   4.846  14.709  0.00  0.00    +0.000 C 
ATOM      2  C   UNL     1       5.947   4.901  15.792  0.00  0.00    +0.000 C 
ATOM      3  C   UNL     1       4.792   3.982  15.339  0.00  0.00    +0.000 C 
ATOM      4  C   UNL     1       5.460   6.351  15.951  0.00  0.00    +0.000 C 
ATOM      5  C   UNL     1       4.566   6.576  17.161  0.00  0.00    +0.000 C 
ATOM      6  O   UNL     1       3.747   7.496  17.153  0.00  0.00    +0.000 OA
ATOM      7  C   UNL     1       4.746   5.688  18.357  0.00  0.00    +0.000 C 
ATOM      8  C   UNL     1       5.640   4.683  18.308  0.00  0.00    +0.000 C 
ATOM      9  C   UNL     1       6.537   4.415  17.130  0.00  0.00    +0.000 C 
ENDROOT
BRANCH   8  10
ATOM     10  O   UNL     1       5.778   3.758  19.331  0.00  0.00    +0.000 OA
ATOM     11  H   UNL     1       5.852   2.873  18.921  0.00  0.00    +0.000 HD
ENDBRANCH   8  10
BRANCH   7  12
ATOM     12  S   UNL     1       3.679   5.908  19.708  0.00  0.00    +0.000 S 
BRANCH  12  13
ATOM     13  C   UNL     1       2.465   4.626  19.420  0.00  0.00    +0.000 A 
ATOM     14  C   UNL     1       2.243   4.174  18.111  0.00  0.00    +0.000 A 
ATOM     15  C   UNL     1       1.422   3.067  17.866  0.00  0.00    +0.000 A 
ATOM     16  C   UNL     1       0.812   2.404  18.930  0.00  0.00    +0.000 A 
ATOM     17  C   UNL     1       1.015   2.853  20.234  0.00  0.00    +0.000 A 
ATOM     18  C   UNL     1       1.839   3.958  20.478  0.00  0.00    +0.000 A 
ENDBRANCH  12  13
ENDBRANCH   7  12
TORSDOF 3
ENDMDL
MODEL 9
REMARK VINA RESULT:      -6.6      2.650      5.187
REMARK  Name = 
REMARK  5 active torsions:
REMARK  status: ('A' for Active; 'I' for Inactive)
REMARK    1  A    between atoms: C_1  and  C_2
REMARK    2  A    between atoms: C_2  and  C_3
REMARK    3  A    between atoms: C_7  and  S_8
REMARK    4  A    between atoms: S_8  and  C_9
REMARK    5  A    between atoms: C_15  and  O_16
REMARK                            x       y       z     vdW  Elec       q    Type
REMARK                         _______ _______ _______ _____ _____    ______ ____
ROOT
ATOM      1  C   UNL     1       6.742   4.474  14.845  0.00  0.00    +0.000 C 
ATOM      2  C   UNL     1       5.765   4.900  15.958  0.00  0.00    +0.000 C 
ATOM      3  C   UNL     1       5.248   6.313  15.614  0.00  0.00    +0.000 C 
ATOM      4  C   UNL     1       6.501   4.903  17.308  0.00  0.00    +0.000 C 
ATOM      5  C   UNL     1       5.586   5.059  18.514  0.00  0.00    +0.000 C 
ATOM      6  O   UNL     1       6.026   5.548  19.556  0.00  0.00    +0.000 OA
ATOM      7  C   UNL     1       4.173   4.563  18.407  0.00  0.00    +0.000 C 
ATOM      8  C   UNL     1       3.735   4.057  17.240  0.00  0.00    +0.000 C 
ATOM      9  C   UNL     1       4.599   3.894  16.019  0.00  0.00    +0.000 C 
ENDROOT
BRANCH   8  10
ATOM     10  O   UNL     1       2.414   3.686  17.038  0.00  0.00    +0.000 OA
ATOM     11  H   UNL     1       2.328   2.749  17.303  0.00  0.00    +0.000 HD
ENDBRANCH   8  10
BRANCH   7  12
ATOM     12  S   UNL     1       3.117   4.804  19.763  0.00  0.00    +0.000 S 
BRANCH  12  13
ATOM     13  C   UNL     1       2.589   6.495  19.512  0.00  0.00    +0.000 A 
ATOM     14  C   UNL     1       2.735   7.077  18.245  0.00  0.00    +0.000 A 
ATOM     15  C   UNL     1       2.189   8.336  17.969  0.00  0.00    +0.000 A 
ATOM     16  C   UNL     1       1.496   9.027  18.962  0.00  0.00    +0.000 A 
ATOM     17  C   UNL     1       1.357   8.464  20.229  0.00  0.00    +0.000 A 
ATOM     18  C   UNL     1       1.900   7.203  20.503  0.00  0.00    +0.000 A 
ENDBRANCH  12  13
ENDBRANCH   7  12
TORSDOF 3
ENDMDL
