MODEL 1
REMARK VINA RESULT:      -7.0      0.000      0.000
REMARK  Name = 
REMARK  4 active torsions:
REMARK  status: ('A' for Active; 'I' for Inactive)
REMARK    1  A    between atoms: N_1  and  C_2
REMARK    2  A    between atoms: C_5  and  C_7
REMARK    3  A    between atoms: C_7  and  N_8
REMARK    4  A    between atoms: C_15  and  C_16
REMARK                            x       y       z     vdW  Elec       q    Type
REMARK                         _______ _______ _______ _____ _____    ______ ____
ROOT
ATOM      1  C   UNL     1       2.635   2.356  18.469  0.00  0.00    +0.000 C 
ATOM      2  C   UNL     1       3.925   2.912  17.814  0.00  0.00    +0.000 C 
ATOM      3  N   UNL     1       3.763   4.360  17.773  0.00  0.00    +0.000 N 
ATOM      4  C   UNL     1       4.744   5.308  17.572  0.00  0.00    +0.000 C 
ATOM      5  O   UNL     1       4.501   6.516  17.633  0.00  0.00    +0.000 OA
ATOM      6  C   UNL     1       2.421   4.737  18.179  0.00  0.00    +0.000 C 
ATOM      7  C   UNL     1       1.980   3.604  19.109  0.00  0.00    +0.000 C 
ENDROOT
BRANCH   1   8
ATOM      8  N   UNL     1       1.734   1.722  17.495  0.00  0.00    +0.000 NA
ATOM      9  H   UNL     1       0.990   1.227  17.986  0.00  0.00    +0.000 HD
ATOM     10  H   UNL     1       2.233   1.021  16.950  0.00  0.00    +0.000 HD
ENDBRANCH   1   8
BRANCH   7  11
ATOM     11  C   UNL     1       2.479   3.832  20.525  0.00  0.00    +0.000 C 
ATOM     12  C   UNL     1       1.661   3.355  21.701  0.00  0.00    +0.000 C 
ATOM     13  C   UNL     1       2.949   2.663  21.358  0.00  0.00    +0.000 C 
ENDBRANCH   7  11
BRANCH   4  14
ATOM     14  C   UNL     1       6.149   4.834  17.280  0.00  0.00    +0.000 C 
BRANCH  14  15
ATOM     15  N   UNL     1       6.394   4.727  15.852  0.00  0.00    +0.000 N 
ATOM     16  C   UNL     1       5.784   3.879  14.972  0.00  0.00    +0.000 A 
ATOM     17  C   UNL     1       6.402   4.079  13.764  0.00  0.00    +0.000 A 
ATOM     18 CL   UNL     1       6.089   3.321  12.285  0.00  0.00    +0.000 Cl
ATOM     19  C   UNL     1       7.375   5.060  14.011  0.00  0.00    +0.000 A 
ATOM     20  N   UNL     1       7.382   5.460  15.289  0.00  0.00    +0.000 NA
ENDBRANCH  14  15
ENDBRANCH   4  14
TORSDOF 4
ENDMDL
MODEL 2
REMARK VINA RESULT:      -6.7      2.164      2.730
REMARK  Name = 
REMARK  4 active torsions:
REMARK  status: ('A' for Active; 'I' for Inactive)
REMARK    1  A    between atoms: N_1  and  C_2
REMARK    2  A    between atoms: C_5  and  C_7
REMARK    3  A    between atoms: C_7  and  N_8
REMARK    4  A    between atoms: C_15  and  C_16
REMARK                            x       y       z     vdW  Elec       q    Type
REMARK                         _______ _______ _______ _____ _____    ______ ____
ROOT
ATOM      1  C   UNL     1       3.470   5.198  18.721  0.00  0.00    +0.000 C 
ATOM      2  C   UNL     1       4.532   5.866  17.810  0.00  0.00    +0.000 C 
ATOM      3  N   UNL     1       5.760   5.102  17.997  0.00  0.00    +0.000 N 
ATOM      4  C   UNL     1       6.880   5.105  17.194  0.00  0.00    +0.000 C 
ATOM      5  O   UNL     1       7.837   4.356  17.411  0.00  0.00    +0.000 OA
ATOM      6  C   UNL     1       5.602   4.136  19.070  0.00  0.00    +0.000 C 
ATOM      7  C   UNL     1       4.103   3.833  19.084  0.00  0.00    +0.000 C 
ENDROOT
BRANCH   1   8
ATOM      8  N   UNL     1       3.182   5.990  19.926  0.00  0.00    +0.000 NA
ATOM      9  H   UNL     1       2.488   5.507  20.496  0.00  0.00    +0.000 HD
ATOM     10  H   UNL     1       2.772   6.888  19.675  0.00  0.00    +0.000 HD
ENDBRANCH   1   8
BRANCH   7  11
ATOM     11  C   UNL     1       3.749   2.766  18.063  0.00  0.00    +0.000 C 
ATOM     12  C   UNL     1       3.177   1.444  18.517  0.00  0.00    +0.000 C 
ATOM     13  C   UNL     1       2.303   2.427  17.792  0.00  0.00    +0.000 C 
ENDBRANCH   7  11
BRANCH   4  14
ATOM     14  C   UNL     1       6.914   6.052  16.016  0.00  0.00    +0.000 C 
BRANCH  14  15
ATOM     15  N   UNL     1       6.847   5.340  14.752  0.00  0.00    +0.000 N 
ATOM     16  C   UNL     1       5.926   4.401  14.381  0.00  0.00    +0.000 A 
ATOM     17  C   UNL     1       6.321   3.952  13.146  0.00  0.00    +0.000 A 
ATOM     18 CL   UNL     1       5.584   2.785  12.169  0.00  0.00    +0.000 Cl
ATOM     19  C   UNL     1       7.490   4.671  12.853  0.00  0.00    +0.000 A 
ATOM     20  N   UNL     1       7.825   5.521  13.833  0.00  0.00    +0.000 NA
ENDBRANCH  14  15
ENDBRANCH   4  14
TORSDOF 4
ENDMDL
MODEL 3
REMARK VINA RESULT:      -6.7      1.859      2.513
REMARK  Name = 
REMARK  4 active torsions:
REMARK  status: ('A' for Active; 'I' for Inactive)
REMARK    1  A    between atoms: N_1  and  C_2
REMARK    2  A    between atoms: C_5  and  C_7
REMARK    3  A    between atoms: C_7  and  N_8
REMARK    4  A    between atoms: C_15  and  C_16
REMARK                            x       y       z     vdW  Elec       q    Type
REMARK                         _______ _______ _______ _____ _____    ______ ____
ROOT
ATOM      1  C   UNL     1       2.616   5.593  19.418  0.00  0.00    +0.000 C 
ATOM      2  C   UNL     1       3.801   6.170  18.603  0.00  0.00    +0.000 C 
ATOM      3  N   UNL     1       4.908   5.238  18.787  0.00  0.00    +0.000 N 
ATOM      4  C   UNL     1       6.059   5.144  18.034  0.00  0.00    +0.000 C 
ATOM      5  O   UNL     1       6.897   4.262  18.237  0.00  0.00    +0.000 OA
ATOM      6  C   UNL     1       4.571   4.234  19.780  0.00  0.00    +0.000 C 
ATOM      7  C   UNL     1       3.046   4.134  19.708  0.00  0.00    +0.000 C 
ENDROOT
BRANCH   1   8
ATOM      8  N   UNL     1       2.372   6.335  20.664  0.00  0.00    +0.000 NA
ATOM      9  H   UNL     1       2.167   7.310  20.447  0.00  0.00    +0.000 HD
ATOM     10  H   UNL     1       3.207   6.339  21.247  0.00  0.00    +0.000 HD
ENDBRANCH   1   8
BRANCH   7  11
ATOM     11  C   UNL     1       2.609   3.193  18.599  0.00  0.00    +0.000 C 
ATOM     12  C   UNL     1       1.393   2.318  18.785  0.00  0.00    +0.000 C 
ATOM     13  C   UNL     1       1.343   3.472  17.825  0.00  0.00    +0.000 C 
ENDBRANCH   7  11
BRANCH   4  14
ATOM     14  C   UNL     1       6.277   6.154  16.930  0.00  0.00    +0.000 C 
BRANCH  14  15
ATOM     15  N   UNL     1       6.424   5.512  15.636  0.00  0.00    +0.000 N 
ATOM     16  C   UNL     1       5.483   4.782  14.965  0.00  0.00    +0.000 A 
ATOM     17  C   UNL     1       6.106   4.307  13.839  0.00  0.00    +0.000 A 
ATOM     18 CL   UNL     1       5.461   3.338  12.612  0.00  0.00    +0.000 Cl
ATOM     19  C   UNL     1       7.420   4.795  13.915  0.00  0.00    +0.000 A 
ATOM     20  N   UNL     1       7.627   5.530  15.016  0.00  0.00    +0.000 NA
ENDBRANCH  14  15
ENDBRANCH   4  14
TORSDOF 4
ENDMDL
MODEL 4
REMARK VINA RESULT:      -6.6      0.982      1.035
REMARK  Name = 
REMARK  4 active torsions:
REMARK  status: ('A' for Active; 'I' for Inactive)
REMARK    1  A    between atoms: N_1  and  C_2
REMARK    2  A    between atoms: C_5  and  C_7
REMARK    3  A    between atoms: C_7  and  N_8
REMARK    4  A    between atoms: C_15  and  C_16
REMARK                            x       y       z     vdW  Elec       q    Type
REMARK                         _______ _______ _______ _____ _____    ______ ____
ROOT
ATOM      1  C   UNL     1       2.262   3.757  18.169  0.00  0.00    +0.000 C 
ATOM      2  C   UNL     1       3.674   3.744  17.528  0.00  0.00    +0.000 C 
ATOM      3  N   UNL     1       4.309   4.994  17.930  0.00  0.00    +0.000 N 
ATOM      4  C   UNL     1       5.650   5.308  17.876  0.00  0.00    +0.000 C 
ATOM      5  O   UNL     1       6.085   6.375  18.317  0.00  0.00    +0.000 OA
ATOM      6  C   UNL     1       3.358   5.855  18.612  0.00  0.00    +0.000 C 
ATOM      7  C   UNL     1       2.349   4.883  19.227  0.00  0.00    +0.000 C 
ENDROOT
BRANCH   1   8
ATOM      8  N   UNL     1       1.199   4.026  17.189  0.00  0.00    +0.000 NA
ATOM      9  H   UNL     1       0.646   3.182  17.042  0.00  0.00    +0.000 HD
ATOM     10  H   UNL     1       1.600   4.268  16.284  0.00  0.00    +0.000 HD
ENDBRANCH   1   8
BRANCH   7  11
ATOM     11  C   UNL     1       2.840   4.356  20.564  0.00  0.00    +0.000 C 
ATOM     12  C   UNL     1       1.876   3.680  21.510  0.00  0.00    +0.000 C 
ATOM     13  C   UNL     1       2.924   2.868  20.804  0.00  0.00    +0.000 C 
ENDBRANCH   7  11
BRANCH   4  14
ATOM     14  C   UNL     1       6.598   4.300  17.265  0.00  0.00    +0.000 C 
BRANCH  14  15
ATOM     15  N   UNL     1       6.626   4.399  15.816  0.00  0.00    +0.000 N 
ATOM     16  C   UNL     1       5.943   3.622  14.923  0.00  0.00    +0.000 A 
ATOM     17  C   UNL     1       6.354   4.028  13.679  0.00  0.00    +0.000 A 
ATOM     18 CL   UNL     1       5.866   3.442  12.169  0.00  0.00    +0.000 Cl
ATOM     19  C   UNL     1       7.286   5.049  13.917  0.00  0.00    +0.000 A 
ATOM     20  N   UNL     1       7.465   5.281  15.225  0.00  0.00    +0.000 NA
ENDBRANCH  14  15
ENDBRANCH   4  14
TORSDOF 4
ENDMDL
MODEL 5
REMARK VINA RESULT:      -6.5      3.365      6.427
REMARK  Name = 
REMARK  4 active torsions:
REMARK  status: ('A' for Active; 'I' for Inactive)
REMARK    1  A    between atoms: N_1  and  C_2
REMARK    2  A    between atoms: C_5  and  C_7
REMARK    3  A    between atoms: C_7  and  N_8
REMARK    4  A    between atoms: C_15  and  C_16
REMARK                            x       y       z     vdW  Elec       q    Type
REMARK                         _______ _______ _______ _____ _____    ______ ____
ROOT
ATOM      1  C   UNL     1       6.555   5.758  15.676  0.00  0.00    +0.000 C 
ATOM      2  C   UNL     1       5.301   4.979  16.150  0.00  0.00    +0.000 C 
ATOM      3  N   UNL     1       5.678   4.335  17.403  0.00  0.00    +0.000 N 
ATOM      4  C   UNL     1       4.838   3.795  18.354  0.00  0.00    +0.000 C 
ATOM      5  O   UNL     1       5.269   3.339  19.417  0.00  0.00    +0.000 OA
ATOM      6  C   UNL     1       7.099   4.498  17.655  0.00  0.00    +0.000 C 
ATOM      7  C   UNL     1       7.460   5.797  16.932  0.00  0.00    +0.000 C 
ENDROOT
BRANCH   1   8
ATOM      8  N   UNL     1       7.234   5.102  14.549  0.00  0.00    +0.000 NA
ATOM      9  H   UNL     1       7.997   5.692  14.218  0.00  0.00    +0.000 HD
ATOM     10  H   UNL     1       6.597   4.989  13.763  0.00  0.00    +0.000 HD
ENDBRANCH   1   8
BRANCH   7  11
ATOM     11  C   UNL     1       7.160   7.008  17.797  0.00  0.00    +0.000 C 
ATOM     12  C   UNL     1       8.241   7.598  18.672  0.00  0.00    +0.000 C 
ATOM     13  C   UNL     1       7.768   8.348  17.460  0.00  0.00    +0.000 C 
ENDBRANCH   7  11
BRANCH   4  14
ATOM     14  C   UNL     1       3.353   3.778  18.071  0.00  0.00    +0.000 C 
BRANCH  14  15
ATOM     15  N   UNL     1       2.610   4.550  19.052  0.00  0.00    +0.000 N 
ATOM     16  C   UNL     1       2.621   5.907  19.213  0.00  0.00    +0.000 A 
ATOM     17  C   UNL     1       1.842   6.163  20.313  0.00  0.00    +0.000 A 
ATOM     18 CL   UNL     1       1.472   7.656  21.014  0.00  0.00    +0.000 Cl
ATOM     19  C   UNL     1       1.406   4.902  20.752  0.00  0.00    +0.000 A 
ATOM     20  N   UNL     1       1.877   3.907  19.990  0.00  0.00    +0.000 NA
ENDBRANCH  14  15
ENDBRANCH   4  14
TORSDOF 4
ENDMDL
MODEL 6
REMARK VINA RESULT:      -6.4      1.982      2.688
REMARK  Name = 
REMARK  4 active torsions:
REMARK  status: ('A' for Active; 'I' for Inactive)
REMARK    1  A    between atoms: N_1  and  C_2
REMARK    2  A    between atoms: C_5  and  C_7
REMARK    3  A    between atoms: C_7  and  N_8
REMARK    4  A    between atoms: C_15  and  C_16
REMARK                            x       y       z     vdW  Elec       q    Type
REMARK                         _______ _______ _______ _____ _____    ______ ____
ROOT
ATOM      1  C   UNL     1       2.983   5.616  19.009  0.00  0.00    +0.000 C 
ATOM      2  C   UNL     1       4.167   6.107  18.137  0.00  0.00    +0.000 C 
ATOM      3  N   UNL     1       5.314   5.292  18.519  0.00  0.00    +0.000 N 
ATOM      4  C   UNL     1       6.497   5.133  17.830  0.00  0.00    +0.000 C 
ATOM      5  O   UNL     1       7.373   4.354  18.215  0.00  0.00    +0.000 OA
ATOM      6  C   UNL     1       4.993   4.465  19.669  0.00  0.00    +0.000 C 
ATOM      7  C   UNL     1       3.479   4.262  19.573  0.00  0.00    +0.000 C 
ENDROOT
BRANCH   1   8
ATOM      8  N   UNL     1       2.651   6.555  20.091  0.00  0.00    +0.000 NA
ATOM      9  H   UNL     1       1.640   6.686  20.133  0.00  0.00    +0.000 HD
ATOM     10  H   UNL     1       3.052   7.472  19.904  0.00  0.00    +0.000 HD
ENDBRANCH   1   8
BRANCH   7  11
ATOM     11  C   UNL     1       3.138   3.112  18.642  0.00  0.00    +0.000 C 
ATOM     12  C   UNL     1       2.018   2.162  18.993  0.00  0.00    +0.000 C 
ATOM     13  C   UNL     1       1.848   3.131  17.858  0.00  0.00    +0.000 C 
ENDBRANCH   7  11
BRANCH   4  14
ATOM     14  C   UNL     1       6.703   5.938  16.567  0.00  0.00    +0.000 C 
BRANCH  14  15
ATOM     15  N   UNL     1       6.466   5.140  15.376  0.00  0.00    +0.000 N 
ATOM     16  C   UNL     1       7.275   5.033  14.280  0.00  0.00    +0.000 A 
ATOM     17  C   UNL     1       6.596   4.246  13.385  0.00  0.00    +0.000 A 
ATOM     18 CL   UNL     1       7.080   3.753  11.842  0.00  0.00    +0.000 Cl
ATOM     19  C   UNL     1       5.387   3.928  14.023  0.00  0.00    +0.000 A 
ATOM     20  N   UNL     1       5.295   4.476  15.242  0.00  0.00    +0.000 NA
ENDBRANCH  14  15
ENDBRANCH   4  14
TORSDOF 4
ENDMDL
MODEL 7
REMARK VINA RESULT:      -6.3      1.157      1.264
REMARK  Name = 
REMARK  4 active torsions:
REMARK  status: ('A' for Active; 'I' for Inactive)
REMARK    1  A    between atoms: N_1  and  C_2
REMARK    2  A    between atoms: C_5  and  C_7
REMARK    3  A    between atoms: C_7  and  N_8
REMARK    4  A    between atoms: C_15  and  C_16
REMARK                            x       y       z     vdW  Elec       q    Type
REMARK                         _______ _______ _______ _____ _____    ______ ____
ROOT
ATOM      1  C   UNL     1       2.980   2.438  18.792  0.00  0.00    +0.000 C 
ATOM      2  C   UNL     1       3.996   3.511  18.323  0.00  0.00    +0.000 C 
ATOM      3  N   UNL     1       3.219   4.720  18.077  0.00  0.00    +0.000 N 
ATOM      4  C   UNL     1       3.691   6.008  17.947  0.00  0.00    +0.000 C 
ATOM      5  O   UNL     1       2.929   6.969  17.815  0.00  0.00    +0.000 OA
ATOM      6  C   UNL     1       1.796   4.444  18.181  0.00  0.00    +0.000 C 
ATOM      7  C   UNL     1       1.715   3.258  19.144  0.00  0.00    +0.000 C 
ENDROOT
BRANCH   1   8
ATOM      8  N   UNL     1       2.695   1.437  17.753  0.00  0.00    +0.000 NA
ATOM      9  H   UNL     1       2.005   0.770  18.099  0.00  0.00    +0.000 HD
ATOM     10  H   UNL     1       3.531   0.898  17.536  0.00  0.00    +0.000 HD
ENDBRANCH   1   8
BRANCH   7  11
ATOM     11  C   UNL     1       1.736   3.723  20.589  0.00  0.00    +0.000 C 
ATOM     12  C   UNL     1       1.134   2.858  21.671  0.00  0.00    +0.000 C 
ATOM     13  C   UNL     1       2.624   3.029  21.594  0.00  0.00    +0.000 C 
ENDBRANCH   7  11
BRANCH   4  14
ATOM     14  C   UNL     1       5.187   6.229  17.979  0.00  0.00    +0.000 C 
BRANCH  14  15
ATOM     15  N   UNL     1       5.853   5.554  16.879  0.00  0.00    +0.000 N 
ATOM     16  C   UNL     1       5.404   5.428  15.594  0.00  0.00    +0.000 A 
ATOM     17  C   UNL     1       6.322   4.640  14.948  0.00  0.00    +0.000 A 
ATOM     18 CL   UNL     1       6.317   4.128  13.337  0.00  0.00    +0.000 Cl
ATOM     19  C   UNL     1       7.287   4.334  15.920  0.00  0.00    +0.000 A 
ATOM     20  N   UNL     1       7.006   4.884  17.108  0.00  0.00    +0.000 NA
ENDBRANCH  14  15
ENDBRANCH   4  14
TORSDOF 4
ENDMDL
MODEL 8
REMARK VINA RESULT:      -6.3      1.016      1.258
REMARK  Name = 
REMARK  4 active torsions:
REMARK  status: ('A' for Active; 'I' for Inactive)
REMARK    1  A    between atoms: N_1  and  C_2
REMARK    2  A    between atoms: C_5  and  C_7
REMARK    3  A    between atoms: C_7  and  N_8
REMARK    4  A    between atoms: C_15  and  C_16
REMARK                            x       y       z     vdW  Elec       q    Type
REMARK                         _______ _______ _______ _____ _____    ______ ____
ROOT
ATOM      1  C   UNL     1       2.137   2.285  18.780  0.00  0.00    +0.000 C 
ATOM      2  C   UNL     1       3.498   2.738  18.192  0.00  0.00    +0.000 C 
ATOM      3  N   UNL     1       3.453   4.195  18.150  0.00  0.00    +0.000 N 
ATOM      4  C   UNL     1       4.514   5.063  18.003  0.00  0.00    +0.000 C 
ATOM      5  O   UNL     1       4.364   6.287  18.058  0.00  0.00    +0.000 OA
ATOM      6  C   UNL     1       2.125   4.676  18.491  0.00  0.00    +0.000 C 
ATOM      7  C   UNL     1       1.551   3.581  19.392  0.00  0.00    +0.000 C 
ENDROOT
BRANCH   1   8
ATOM      8  N   UNL     1       1.239   1.725  17.758  0.00  0.00    +0.000 NA
ATOM      9  H   UNL     1       1.746   1.613  16.880  0.00  0.00    +0.000 HD
ATOM     10  H   UNL     1       0.472   2.366  17.566  0.00  0.00    +0.000 HD
ENDBRANCH   1   8
BRANCH   7  11
ATOM     11  C   UNL     1       1.996   3.766  20.832  0.00  0.00    +0.000 C 
ATOM     12  C   UNL     1       1.340   2.969  21.935  0.00  0.00    +0.000 C 
ATOM     13  C   UNL     1       2.756   2.668  21.536  0.00  0.00    +0.000 C 
ENDBRANCH   7  11
BRANCH   4  14
ATOM     14  C   UNL     1       5.890   4.479  17.779  0.00  0.00    +0.000 C 
BRANCH  14  15
ATOM     15  N   UNL     1       6.236   4.446  16.368  0.00  0.00    +0.000 N 
ATOM     16  C   UNL     1       7.199   5.184  15.738  0.00  0.00    +0.000 A 
ATOM     17  C   UNL     1       7.096   4.878  14.404  0.00  0.00    +0.000 A 
ATOM     18 CL   UNL     1       8.016   5.473  13.116  0.00  0.00    +0.000 Cl
ATOM     19  C   UNL     1       6.043   3.952  14.323  0.00  0.00    +0.000 A 
ATOM     20  N   UNL     1       5.506   3.685  15.520  0.00  0.00    +0.000 NA
ENDBRANCH  14  15
ENDBRANCH   4  14
TORSDOF 4
ENDMDL
MODEL 9
REMARK VINA RESULT:      -6.2      2.114      2.826
REMARK  Name = 
REMARK  4 active torsions:
REMARK  status: ('A' for Active; 'I' for Inactive)
REMARK    1  A    between atoms: N_1  and  C_2
REMARK    2  A    between atoms: C_5  and  C_7
REMARK    3  A    between atoms: C_7  and  N_8
REMARK    4  A    between atoms: C_15  and  C_16
REMARK                            x       y       z     vdW  Elec       q    Type
REMARK                         _______ _______ _______ _____ _____    ______ ____
ROOT
ATOM      1  C   UNL     1       2.564   6.802  18.290  0.00  0.00    +0.000 C 
ATOM      2  C   UNL     1       4.027   6.958  17.802  0.00  0.00    +0.000 C 
ATOM      3  N   UNL     1       4.768   5.849  18.390  0.00  0.00    +0.000 N 
ATOM      4  C   UNL     1       6.009   5.378  18.017  0.00  0.00    +0.000 C 
ATOM      5  O   UNL     1       6.509   4.379  18.541  0.00  0.00    +0.000 OA
ATOM      6  C   UNL     1       3.939   5.124  19.336  0.00  0.00    +0.000 C 
ATOM      7  C   UNL     1       2.511   5.353  18.835  0.00  0.00    +0.000 C 
ENDROOT
BRANCH   1   8
ATOM      8  N   UNL     1       2.208   7.776  19.332  0.00  0.00    +0.000 NA
ATOM      9  H   UNL     1       2.111   8.703  18.916  0.00  0.00    +0.000 HD
ATOM     10  H   UNL     1       2.953   7.849  20.023  0.00  0.00    +0.000 HD
ENDBRANCH   1   8
BRANCH   7  11
ATOM     11  C   UNL     1       2.147   4.361  17.745  0.00  0.00    +0.000 C 
ATOM     12  C   UNL     1       2.830   3.015  17.689  0.00  0.00    +0.000 C 
ATOM     13  C   UNL     1       1.386   3.104  18.090  0.00  0.00    +0.000 C 
ENDBRANCH   7  11
BRANCH   4  14
ATOM     14  C   UNL     1       6.758   6.116  16.930  0.00  0.00    +0.000 C 
BRANCH  14  15
ATOM     15  N   UNL     1       6.627   5.455  15.644  0.00  0.00    +0.000 N 
ATOM     16  C   UNL     1       5.518   4.830  15.147  0.00  0.00    +0.000 A 
ATOM     17  C   UNL     1       5.898   4.284  13.947  0.00  0.00    +0.000 A 
ATOM     18 CL   UNL     1       4.965   3.385  12.860  0.00  0.00    +0.000 Cl
ATOM     19  C   UNL     1       7.252   4.626  13.803  0.00  0.00    +0.000 A 
ATOM     20  N   UNL     1       7.710   5.339  14.841  0.00  0.00    +0.000 NA
ENDBRANCH  14  15
ENDBRANCH   4  14
TORSDOF 4
ENDMDL
