MODEL 1
REMARK VINA RESULT:      -8.0      0.000      0.000
REMARK  Name = 
REMARK  5 active torsions:
REMARK  status: ('A' for Active; 'I' for Inactive)
REMARK    1  A    between atoms: C_1  and  C_2
REMARK    2  A    between atoms: C_6  and  C_7
REMARK    3  A    between atoms: C_7  and  N_8
REMARK    4  A    between atoms: C_13  and  C_14
REMARK    5  A    between atoms: C_17  and  O_18
REMARK                            x       y       z     vdW  Elec       q    Type
REMARK                         _______ _______ _______ _____ _____    ______ ____
ROOT
ATOM      1  C   UNL     1      -0.533  10.862  19.716  0.00  0.00    +0.000 C 
ATOM      2  C   UNL     1       0.471   9.737  19.661  0.00  0.00    +0.000 A 
ATOM      3  C   UNL     1       0.567   8.890  20.884  0.00  0.00    +0.000 A 
ATOM      4  C   UNL     1       1.420   7.863  20.800  0.00  0.00    +0.000 A 
ATOM      5  N   UNL     1       2.131   7.643  19.624  0.00  0.00    +0.000 N 
ATOM      6  C   UNL     1       2.946   6.590  19.234  0.00  0.00    +0.000 A 
ATOM      7  C   UNL     1       3.559   7.058  18.081  0.00  0.00    +0.000 A 
ATOM      8  N   UNL     1       2.962   8.224  17.649  0.00  0.00    +0.000 NA
ATOM      9  C   UNL     1       2.069   8.544  18.564  0.00  0.00    +0.000 A 
ATOM     10  N   UNL     1       1.194   9.595  18.584  0.00  0.00    +0.000 NA
ENDROOT
BRANCH   7  11
ATOM     11  C   UNL     1       4.664   6.437  17.359  0.00  0.00    +0.000 A 
ATOM     12  C   UNL     1       5.962   6.956  17.480  0.00  0.00    +0.000 A 
ATOM     13  C   UNL     1       7.042   6.344  16.830  0.00  0.00    +0.000 A 
ATOM     14  C   UNL     1       6.824   5.208  16.059  0.00  0.00    +0.000 A 
ATOM     15  C   UNL     1       5.551   4.670  15.936  0.00  0.00    +0.000 A 
ATOM     16  C   UNL     1       4.478   5.277  16.594  0.00  0.00    +0.000 A 
BRANCH  14  17
ATOM     17  O   UNL     1       7.842   4.573  15.413  0.00  0.00    +0.000 OA
ATOM     18  H   UNL     1       8.402   5.242  14.988  0.00  0.00    +0.000 HD
ENDBRANCH  14  17
ENDBRANCH   7  11
BRANCH   6  19
ATOM     19  C   UNL     1       3.061   5.286  19.963  0.00  0.00    +0.000 C 
BRANCH  19  20
ATOM     20  N   UNL     1       2.419   4.205  19.241  0.00  0.00    +0.000 NA
ATOM     21  C   UNL     1       3.177   2.972  19.079  0.00  0.00    +0.000 C 
ATOM     22  C   UNL     1       2.171   2.184  18.257  0.00  0.00    +0.000 C 
ATOM     23  C   UNL     1       0.819   2.571  18.857  0.00  0.00    +0.000 C 
ATOM     24  C   UNL     1       1.093   3.821  19.694  0.00  0.00    +0.000 C 
ENDBRANCH  19  20
ENDBRANCH   6  19
TORSDOF 4
ENDMDL
MODEL 2
REMARK VINA RESULT:      -8.0      0.264      1.039
REMARK  Name = 
REMARK  5 active torsions:
REMARK  status: ('A' for Active; 'I' for Inactive)
REMARK    1  A    between atoms: C_1  and  C_2
REMARK    2  A    between atoms: C_6  and  C_7
REMARK    3  A    between atoms: C_7  and  N_8
REMARK    4  A    between atoms: C_13  and  C_14
REMARK    5  A    between atoms: C_17  and  O_18
REMARK                            x       y       z     vdW  Elec       q    Type
REMARK                         _______ _______ _______ _____ _____    ______ ____
ROOT
ATOM      1  C   UNL     1      -0.533  10.683  20.082  0.00  0.00    +0.000 C 
ATOM      2  C   UNL     1       0.468   9.560  19.974  0.00  0.00    +0.000 A 
ATOM      3  C   UNL     1       0.600   8.687  21.175  0.00  0.00    +0.000 A 
ATOM      4  C   UNL     1       1.450   7.662  21.044  0.00  0.00    +0.000 A 
ATOM      5  N   UNL     1       2.126   7.467  19.844  0.00  0.00    +0.000 N 
ATOM      6  C   UNL     1       2.929   6.423  19.408  0.00  0.00    +0.000 A 
ATOM      7  C   UNL     1       3.509   6.917  18.247  0.00  0.00    +0.000 A 
ATOM      8  N   UNL     1       2.899   8.092  17.858  0.00  0.00    +0.000 NA
ATOM      9  C   UNL     1       2.034   8.392  18.805  0.00  0.00    +0.000 A 
ATOM     10  N   UNL     1       1.159   9.441  18.874  0.00  0.00    +0.000 NA
ENDROOT
BRANCH   7  11
ATOM     11  C   UNL     1       4.592   6.312  17.480  0.00  0.00    +0.000 A 
ATOM     12  C   UNL     1       4.337   5.206  16.657  0.00  0.00    +0.000 A 
ATOM     13  C   UNL     1       5.357   4.641  15.879  0.00  0.00    +0.000 A 
ATOM     14  C   UNL     1       6.634   5.187  15.922  0.00  0.00    +0.000 A 
ATOM     15  C   UNL     1       6.906   6.289  16.719  0.00  0.00    +0.000 A 
ATOM     16  C   UNL     1       5.885   6.856  17.486  0.00  0.00    +0.000 A 
BRANCH  14  17
ATOM     17  O   UNL     1       7.658   4.678  15.179  0.00  0.00    +0.000 OA
ATOM     18  H   UNL     1       7.297   4.010  14.575  0.00  0.00    +0.000 HD
ENDBRANCH  14  17
ENDBRANCH   7  11
BRANCH   6  19
ATOM     19  C   UNL     1       3.066   5.104  20.105  0.00  0.00    +0.000 C 
BRANCH  19  20
ATOM     20  N   UNL     1       2.382   4.044  19.391  0.00  0.00    +0.000 NA
ATOM     21  C   UNL     1       3.092   2.781  19.237  0.00  0.00    +0.000 C 
ATOM     22  C   UNL     1       2.057   2.026  18.421  0.00  0.00    +0.000 C 
ATOM     23  C   UNL     1       0.721   2.469  19.020  0.00  0.00    +0.000 C 
ATOM     24  C   UNL     1       1.043   3.714  19.847  0.00  0.00    +0.000 C 
ENDBRANCH  19  20
ENDBRANCH   6  19
TORSDOF 4
ENDMDL
MODEL 3
REMARK VINA RESULT:      -7.8      1.841      3.954
REMARK  Name = 
REMARK  5 active torsions:
REMARK  status: ('A' for Active; 'I' for Inactive)
REMARK    1  A    between atoms: C_1  and  C_2
REMARK    2  A    between atoms: C_6  and  C_7
REMARK    3  A    between atoms: C_7  and  N_8
REMARK    4  A    between atoms: C_13  and  C_14
REMARK    5  A    between atoms: C_17  and  O_18
REMARK                            x       y       z     vdW  Elec       q    Type
REMARK                         _______ _______ _______ _____ _____    ______ ____
ROOT
ATOM      1  C   UNL     1       0.294  10.974  20.828  0.00  0.00    +0.000 C 
ATOM      2  C   UNL     1       0.977   9.901  20.018  0.00  0.00    +0.000 A 
ATOM      3  C   UNL     1       1.450  10.309  18.664  0.00  0.00    +0.000 A 
ATOM      4  C   UNL     1       2.103   9.363  17.980  0.00  0.00    +0.000 A 
ATOM      5  N   UNL     1       2.309   8.110  18.547  0.00  0.00    +0.000 N 
ATOM      6  C   UNL     1       3.067   7.029  18.121  0.00  0.00    +0.000 A 
ATOM      7  C   UNL     1       2.675   6.000  18.965  0.00  0.00    +0.000 A 
ATOM      8  N   UNL     1       1.916   6.487  20.010  0.00  0.00    +0.000 NA
ATOM      9  C   UNL     1       1.740   7.771  19.772  0.00  0.00    +0.000 A 
ATOM     10  N   UNL     1       1.086   8.705  20.528  0.00  0.00    +0.000 NA
ENDROOT
BRANCH   7  11
ATOM     11  C   UNL     1       3.009   4.585  18.840  0.00  0.00    +0.000 A 
ATOM     12  C   UNL     1       2.377   3.797  17.867  0.00  0.00    +0.000 A 
ATOM     13  C   UNL     1       2.719   2.448  17.703  0.00  0.00    +0.000 A 
ATOM     14  C   UNL     1       3.698   1.886  18.514  0.00  0.00    +0.000 A 
ATOM     15  C   UNL     1       4.345   2.650  19.475  0.00  0.00    +0.000 A 
ATOM     16  C   UNL     1       4.009   3.997  19.628  0.00  0.00    +0.000 A 
BRANCH  14  17
ATOM     17  O   UNL     1       4.071   0.581  18.389  0.00  0.00    +0.000 OA
ATOM     18  H   UNL     1       3.282   0.025  18.484  0.00  0.00    +0.000 HD
ENDBRANCH  14  17
ENDBRANCH   7  11
BRANCH   6  19
ATOM     19  C   UNL     1       4.055   7.071  16.996  0.00  0.00    +0.000 C 
BRANCH  19  20
ATOM     20  N   UNL     1       5.004   5.977  17.069  0.00  0.00    +0.000 NA
ATOM     21  C   UNL     1       5.256   5.233  15.842  0.00  0.00    +0.000 C 
ATOM     22  C   UNL     1       6.229   4.202  16.388  0.00  0.00    +0.000 C 
ATOM     23  C   UNL     1       7.076   4.987  17.391  0.00  0.00    +0.000 C 
ATOM     24  C   UNL     1       6.302   6.281  17.645  0.00  0.00    +0.000 C 
ENDBRANCH  19  20
ENDBRANCH   6  19
TORSDOF 4
ENDMDL
MODEL 4
REMARK VINA RESULT:      -7.7      1.848      3.957
REMARK  Name = 
REMARK  5 active torsions:
REMARK  status: ('A' for Active; 'I' for Inactive)
REMARK    1  A    between atoms: C_1  and  C_2
REMARK    2  A    between atoms: C_6  and  C_7
REMARK    3  A    between atoms: C_7  and  N_8
REMARK    4  A    between atoms: C_13  and  C_14
REMARK    5  A    between atoms: C_17  and  O_18
REMARK                            x       y       z     vdW  Elec       q    Type
REMARK                         _______ _______ _______ _____ _____    ______ ____
ROOT
ATOM      1  C   UNL     1       0.311  11.055  20.738  0.00  0.00    +0.000 C 
ATOM      2  C   UNL     1       0.990   9.989  19.916  0.00  0.00    +0.000 A 
ATOM      3  C   UNL     1       1.424  10.398  18.549  0.00  0.00    +0.000 A 
ATOM      4  C   UNL     1       2.075   9.459  17.854  0.00  0.00    +0.000 A 
ATOM      5  N   UNL     1       2.313   8.211  18.421  0.00  0.00    +0.000 N 
ATOM      6  C   UNL     1       3.076   7.139  17.981  0.00  0.00    +0.000 A 
ATOM      7  C   UNL     1       2.720   6.108  18.839  0.00  0.00    +0.000 A 
ATOM      8  N   UNL     1       1.980   6.589  19.900  0.00  0.00    +0.000 NA
ATOM      9  C   UNL     1       1.779   7.869  19.661  0.00  0.00    +0.000 A 
ATOM     10  N   UNL     1       1.130   8.797  20.428  0.00  0.00    +0.000 NA
ENDROOT
BRANCH   7  11
ATOM     11  C   UNL     1       3.072   4.699  18.712  0.00  0.00    +0.000 A 
ATOM     12  C   UNL     1       4.041   4.137  19.558  0.00  0.00    +0.000 A 
ATOM     13  C   UNL     1       4.358   2.774  19.479  0.00  0.00    +0.000 A 
ATOM     14  C   UNL     1       3.702   1.970  18.555  0.00  0.00    +0.000 A 
ATOM     15  C   UNL     1       2.732   2.501  17.717  0.00  0.00    +0.000 A 
ATOM     16  C   UNL     1       2.411   3.858  17.805  0.00  0.00    +0.000 A 
BRANCH  14  17
ATOM     17  O   UNL     1       3.970   0.638  18.445  0.00  0.00    +0.000 OA
ATOM     18  H   UNL     1       3.660   0.332  17.577  0.00  0.00    +0.000 HD
ENDBRANCH  14  17
ENDBRANCH   7  11
BRANCH   6  19
ATOM     19  C   UNL     1       4.037   7.191  16.832  0.00  0.00    +0.000 C 
BRANCH  19  20
ATOM     20  N   UNL     1       5.146   6.276  17.015  0.00  0.00    +0.000 NA
ATOM     21  C   UNL     1       5.405   5.324  15.943  0.00  0.00    +0.000 C 
ATOM     22  C   UNL     1       6.569   4.575  16.569  0.00  0.00    +0.000 C 
ATOM     23  C   UNL     1       7.367   5.665  17.286  0.00  0.00    +0.000 C 
ATOM     24  C   UNL     1       6.426   6.868  17.362  0.00  0.00    +0.000 C 
ENDBRANCH  19  20
ENDBRANCH   6  19
TORSDOF 4
ENDMDL
MODEL 5
REMARK VINA RESULT:      -7.6      2.801      5.774
REMARK  Name = 
REMARK  5 active torsions:
REMARK  status: ('A' for Active; 'I' for Inactive)
REMARK    1  A    between atoms: C_1  and  C_2
REMARK    2  A    between atoms: C_6  and  C_7
REMARK    3  A    between atoms: C_7  and  N_8
REMARK    4  A    between atoms: C_13  and  C_14
REMARK    5  A    between atoms: C_17  and  O_18
REMARK                            x       y       z     vdW  Elec       q    Type
REMARK                         _______ _______ _______ _____ _____    ______ ____
ROOT
ATOM      1  C   UNL     1       7.205   4.896  13.886  0.00  0.00    +0.000 C 
ATOM      2  C   UNL     1       6.230   5.058  15.025  0.00  0.00    +0.000 A 
ATOM      3  C   UNL     1       5.930   3.823  15.805  0.00  0.00    +0.000 A 
ATOM      4  C   UNL     1       5.107   3.993  16.846  0.00  0.00    +0.000 A 
ATOM      5  N   UNL     1       4.608   5.258  17.140  0.00  0.00    +0.000 N 
ATOM      6  C   UNL     1       3.876   5.721  18.224  0.00  0.00    +0.000 A 
ATOM      7  C   UNL     1       3.466   6.986  17.827  0.00  0.00    +0.000 A 
ATOM      8  N   UNL     1       4.124   7.375  16.678  0.00  0.00    +0.000 NA
ATOM      9  C   UNL     1       4.846   6.341  16.297  0.00  0.00    +0.000 A 
ATOM     10  N   UNL     1       5.702   6.232  15.235  0.00  0.00    +0.000 NA
ENDROOT
BRANCH   7  11
ATOM     11  C   UNL     1       2.503   7.849  18.501  0.00  0.00    +0.000 A 
ATOM     12  C   UNL     1       2.176   7.622  19.846  0.00  0.00    +0.000 A 
ATOM     13  C   UNL     1       1.287   8.468  20.522  0.00  0.00    +0.000 A 
ATOM     14  C   UNL     1       0.726   9.549  19.851  0.00  0.00    +0.000 A 
ATOM     15  C   UNL     1       1.044   9.801  18.524  0.00  0.00    +0.000 A 
ATOM     16  C   UNL     1       1.939   8.960  17.857  0.00  0.00    +0.000 A 
BRANCH  14  17
ATOM     17  O   UNL     1      -0.138  10.405  20.466  0.00  0.00    +0.000 OA
ATOM     18  H   UNL     1      -0.053  11.278  20.051  0.00  0.00    +0.000 HD
ENDBRANCH  14  17
ENDBRANCH   7  11
BRANCH   6  19
ATOM     19  C   UNL     1       3.643   4.950  19.487  0.00  0.00    +0.000 C 
BRANCH  19  20
ATOM     20  N   UNL     1       2.623   3.933  19.319  0.00  0.00    +0.000 NA
ATOM     21  C   UNL     1       3.005   2.557  19.606  0.00  0.00    +0.000 C 
ATOM     22  C   UNL     1       1.694   1.872  19.257  0.00  0.00    +0.000 C 
ATOM     23  C   UNL     1       0.625   2.843  19.759  0.00  0.00    +0.000 C 
ATOM     24  C   UNL     1       1.359   4.163  19.995  0.00  0.00    +0.000 C 
ENDBRANCH  19  20
ENDBRANCH   6  19
TORSDOF 4
ENDMDL
MODEL 6
REMARK VINA RESULT:      -7.6      2.812      5.780
REMARK  Name = 
REMARK  5 active torsions:
REMARK  status: ('A' for Active; 'I' for Inactive)
REMARK    1  A    between atoms: C_1  and  C_2
REMARK    2  A    between atoms: C_6  and  C_7
REMARK    3  A    between atoms: C_7  and  N_8
REMARK    4  A    between atoms: C_13  and  C_14
REMARK    5  A    between atoms: C_17  and  O_18
REMARK                            x       y       z     vdW  Elec       q    Type
REMARK                         _______ _______ _______ _____ _____    ______ ____
ROOT
ATOM      1  C   UNL     1       7.115   4.818  13.874  0.00  0.00    +0.000 C 
ATOM      2  C   UNL     1       6.171   5.010  15.034  0.00  0.00    +0.000 A 
ATOM      3  C   UNL     1       5.894   3.798  15.857  0.00  0.00    +0.000 A 
ATOM      4  C   UNL     1       5.101   3.996  16.915  0.00  0.00    +0.000 A 
ATOM      5  N   UNL     1       4.608   5.268  17.187  0.00  0.00    +0.000 N 
ATOM      6  C   UNL     1       3.905   5.761  18.277  0.00  0.00    +0.000 A 
ATOM      7  C   UNL     1       3.483   7.014  17.857  0.00  0.00    +0.000 A 
ATOM      8  N   UNL     1       4.108   7.372  16.680  0.00  0.00    +0.000 NA
ATOM      9  C   UNL     1       4.821   6.328  16.308  0.00  0.00    +0.000 A 
ATOM     10  N   UNL     1       5.647   6.190  15.227  0.00  0.00    +0.000 NA
ENDROOT
BRANCH   7  11
ATOM     11  C   UNL     1       2.537   7.895  18.533  0.00  0.00    +0.000 A 
ATOM     12  C   UNL     1       1.933   8.949  17.831  0.00  0.00    +0.000 A 
ATOM     13  C   UNL     1       0.989   9.777  18.453  0.00  0.00    +0.000 A 
ATOM     14  C   UNL     1       0.644   9.547  19.780  0.00  0.00    +0.000 A 
ATOM     15  C   UNL     1       1.219   8.502  20.490  0.00  0.00    +0.000 A 
ATOM     16  C   UNL     1       2.153   7.673  19.863  0.00  0.00    +0.000 A 
BRANCH  14  17
ATOM     17  O   UNL     1      -0.274  10.319  20.427  0.00  0.00    +0.000 OA
ATOM     18  H   UNL     1      -1.083  10.349  19.892  0.00  0.00    +0.000 HD
ENDBRANCH  14  17
ENDBRANCH   7  11
BRANCH   6  19
ATOM     19  C   UNL     1       3.708   5.025  19.567  0.00  0.00    +0.000 C 
BRANCH  19  20
ATOM     20  N   UNL     1       2.597   4.097  19.495  0.00  0.00    +0.000 NA
ATOM     21  C   UNL     1       2.920   2.676  19.472  0.00  0.00    +0.000 C 
ATOM     22  C   UNL     1       1.512   2.117  19.346  0.00  0.00    +0.000 C 
ATOM     23  C   UNL     1       0.669   3.038  20.229  0.00  0.00    +0.000 C 
ATOM     24  C   UNL     1       1.543   4.267  20.479  0.00  0.00    +0.000 C 
ENDBRANCH  19  20
ENDBRANCH   6  19
TORSDOF 4
ENDMDL
MODEL 7
REMARK VINA RESULT:      -7.2      2.848      5.931
REMARK  Name = 
REMARK  5 active torsions:
REMARK  status: ('A' for Active; 'I' for Inactive)
REMARK    1  A    between atoms: C_1  and  C_2
REMARK    2  A    between atoms: C_6  and  C_7
REMARK    3  A    between atoms: C_7  and  N_8
REMARK    4  A    between atoms: C_13  and  C_14
REMARK    5  A    between atoms: C_17  and  O_18
REMARK                            x       y       z     vdW  Elec       q    Type
REMARK                         _______ _______ _______ _____ _____    ______ ____
ROOT
ATOM      1  C   UNL     1       7.572   4.881  15.039  0.00  0.00    +0.000 C 
ATOM      2  C   UNL     1       6.244   5.064  15.731  0.00  0.00    +0.000 A 
ATOM      3  C   UNL     1       5.298   3.915  15.638  0.00  0.00    +0.000 A 
ATOM      4  C   UNL     1       4.147   4.069  16.303  0.00  0.00    +0.000 A 
ATOM      5  N   UNL     1       3.910   5.235  17.023  0.00  0.00    +0.000 N 
ATOM      6  C   UNL     1       2.889   5.575  17.899  0.00  0.00    +0.000 A 
ATOM      7  C   UNL     1       3.063   6.938  18.093  0.00  0.00    +0.000 A 
ATOM      8  N   UNL     1       4.270   7.356  17.573  0.00  0.00    +0.000 NA
ATOM      9  C   UNL     1       4.796   6.309  16.970  0.00  0.00    +0.000 A 
ATOM     10  N   UNL     1       5.999   6.197  16.329  0.00  0.00    +0.000 NA
ENDROOT
BRANCH   7  11
ATOM     11  C   UNL     1       2.150   7.853  18.770  0.00  0.00    +0.000 A 
ATOM     12  C   UNL     1       1.875   7.688  20.135  0.00  0.00    +0.000 A 
ATOM     13  C   UNL     1       1.036   8.584  20.811  0.00  0.00    +0.000 A 
ATOM     14  C   UNL     1       0.473   9.651  20.120  0.00  0.00    +0.000 A 
ATOM     15  C   UNL     1       0.742   9.841  18.772  0.00  0.00    +0.000 A 
ATOM     16  C   UNL     1       1.587   8.951  18.104  0.00  0.00    +0.000 A 
BRANCH  14  17
ATOM     17  O   UNL     1      -0.343  10.553  20.734  0.00  0.00    +0.000 OA
ATOM     18  H   UNL     1      -1.119  10.700  20.169  0.00  0.00    +0.000 HD
ENDBRANCH  14  17
ENDBRANCH   7  11
BRANCH   6  19
ATOM     19  C   UNL     1       1.882   4.612  18.450  0.00  0.00    +0.000 C 
BRANCH  19  20
ATOM     20  N   UNL     1       2.315   4.043  19.712  0.00  0.00    +0.000 NA
ATOM     21  C   UNL     1       1.312   3.913  20.760  0.00  0.00    +0.000 C 
ATOM     22  C   UNL     1       2.193   3.345  21.860  0.00  0.00    +0.000 C 
ATOM     23  C   UNL     1       3.140   2.397  21.122  0.00  0.00    +0.000 C 
ATOM     24  C   UNL     1       3.012   2.771  19.645  0.00  0.00    +0.000 C 
ENDBRANCH  19  20
ENDBRANCH   6  19
TORSDOF 4
ENDMDL
MODEL 8
REMARK VINA RESULT:      -7.2      2.871      5.922
REMARK  Name = 
REMARK  5 active torsions:
REMARK  status: ('A' for Active; 'I' for Inactive)
REMARK    1  A    between atoms: C_1  and  C_2
REMARK    2  A    between atoms: C_6  and  C_7
REMARK    3  A    between atoms: C_7  and  N_8
REMARK    4  A    between atoms: C_13  and  C_14
REMARK    5  A    between atoms: C_17  and  O_18
REMARK                            x       y       z     vdW  Elec       q    Type
REMARK                         _______ _______ _______ _____ _____    ______ ____
ROOT
ATOM      1  C   UNL     1       7.581   4.640  15.943  0.00  0.00    +0.000 C 
ATOM      2  C   UNL     1       6.186   4.950  16.426  0.00  0.00    +0.000 A 
ATOM      3  C   UNL     1       5.178   3.867  16.242  0.00  0.00    +0.000 A 
ATOM      4  C   UNL     1       3.960   4.135  16.726  0.00  0.00    +0.000 A 
ATOM      5  N   UNL     1       3.713   5.349  17.358  0.00  0.00    +0.000 N 
ATOM      6  C   UNL     1       2.607   5.803  18.062  0.00  0.00    +0.000 A 
ATOM      7  C   UNL     1       2.856   7.158  18.226  0.00  0.00    +0.000 A 
ATOM      8  N   UNL     1       4.154   7.463  17.872  0.00  0.00    +0.000 NA
ATOM      9  C   UNL     1       4.677   6.353  17.392  0.00  0.00    +0.000 A 
ATOM     10  N   UNL     1       5.947   6.125  16.938  0.00  0.00    +0.000 NA
ENDROOT
BRANCH   7  11
ATOM     11  C   UNL     1       1.929   8.167  18.727  0.00  0.00    +0.000 A 
ATOM     12  C   UNL     1       1.283   9.034  17.833  0.00  0.00    +0.000 A 
ATOM     13  C   UNL     1       0.356   9.978  18.294  0.00  0.00    +0.000 A 
ATOM     14  C   UNL     1       0.071  10.054  19.652  0.00  0.00    +0.000 A 
ATOM     15  C   UNL     1       0.688   9.198  20.553  0.00  0.00    +0.000 A 
ATOM     16  C   UNL     1       1.605   8.251  20.089  0.00  0.00    +0.000 A 
BRANCH  14  17
ATOM     17  O   UNL     1      -0.828  10.950  20.148  0.00  0.00    +0.000 OA
ATOM     18  H   UNL     1      -0.354  11.764  20.384  0.00  0.00    +0.000 HD
ENDBRANCH  14  17
ENDBRANCH   7  11
BRANCH   6  19
ATOM     19  C   UNL     1       1.461   4.941  18.498  0.00  0.00    +0.000 C 
BRANCH  19  20
ATOM     20  N   UNL     1       1.804   4.131  19.650  0.00  0.00    +0.000 NA
ATOM     21  C   UNL     1       2.082   4.832  20.896  0.00  0.00    +0.000 C 
ATOM     22  C   UNL     1       2.427   3.636  21.767  0.00  0.00    +0.000 C 
ATOM     23  C   UNL     1       1.448   2.553  21.312  0.00  0.00    +0.000 C 
ATOM     24  C   UNL     1       0.891   3.050  19.977  0.00  0.00    +0.000 C 
ENDBRANCH  19  20
ENDBRANCH   6  19
TORSDOF 4
ENDMDL
MODEL 9
REMARK VINA RESULT:      -7.0      0.832      1.041
REMARK  Name = 
REMARK  5 active torsions:
REMARK  status: ('A' for Active; 'I' for Inactive)
REMARK    1  A    between atoms: C_1  and  C_2
REMARK    2  A    between atoms: C_6  and  C_7
REMARK    3  A    between atoms: C_7  and  N_8
REMARK    4  A    between atoms: C_13  and  C_14
REMARK    5  A    between atoms: C_17  and  O_18
REMARK                            x       y       z     vdW  Elec       q    Type
REMARK                         _______ _______ _______ _____ _____    ______ ____
ROOT
ATOM      1  C   UNL     1      -0.777  10.834  18.860  0.00  0.00    +0.000 C 
ATOM      2  C   UNL     1       0.327   9.812  18.965  0.00  0.00    +0.000 A 
ATOM      3  C   UNL     1       0.530   9.208  20.313  0.00  0.00    +0.000 A 
ATOM      4  C   UNL     1       1.474   8.264  20.378  0.00  0.00    +0.000 A 
ATOM      5  N   UNL     1       2.177   7.901  19.234  0.00  0.00    +0.000 N 
ATOM      6  C   UNL     1       3.079   6.872  19.004  0.00  0.00    +0.000 A 
ATOM      7  C   UNL     1       3.620   7.180  17.764  0.00  0.00    +0.000 A 
ATOM      8  N   UNL     1       2.905   8.192  17.157  0.00  0.00    +0.000 NA
ATOM      9  C   UNL     1       2.007   8.589  18.035  0.00  0.00    +0.000 A 
ATOM     10  N   UNL     1       1.036   9.544  17.903  0.00  0.00    +0.000 NA
ENDROOT
BRANCH   7  11
ATOM     11  C   UNL     1       4.762   6.541  17.121  0.00  0.00    +0.000 A 
ATOM     12  C   UNL     1       5.945   6.323  17.844  0.00  0.00    +0.000 A 
ATOM     13  C   UNL     1       7.036   5.671  17.255  0.00  0.00    +0.000 A 
ATOM     14  C   UNL     1       6.943   5.231  15.939  0.00  0.00    +0.000 A 
ATOM     15  C   UNL     1       5.779   5.424  15.209  0.00  0.00    +0.000 A 
ATOM     16  C   UNL     1       4.690   6.066  15.803  0.00  0.00    +0.000 A 
BRANCH  14  17
ATOM     17  O   UNL     1       7.973   4.585  15.324  0.00  0.00    +0.000 OA
ATOM     18  H   UNL     1       8.797   4.811  15.784  0.00  0.00    +0.000 HD
ENDBRANCH  14  17
ENDBRANCH   7  11
BRANCH   6  19
ATOM     19  C   UNL     1       3.334   5.735  19.946  0.00  0.00    +0.000 C 
BRANCH  19  20
ATOM     20  N   UNL     1       2.491   4.593  19.653  0.00  0.00    +0.000 NA
ATOM     21  C   UNL     1       1.315   4.402  20.491  0.00  0.00    +0.000 C 
ATOM     22  C   UNL     1       0.792   3.116  19.875  0.00  0.00    +0.000 C 
ATOM     23  C   UNL     1       1.058   3.288  18.379  0.00  0.00    +0.000 C 
ATOM     24  C   UNL     1       2.048   4.450  18.278  0.00  0.00    +0.000 C 
ENDBRANCH  19  20
ENDBRANCH   6  19
TORSDOF 4
ENDMDL
