MODEL 1
REMARK VINA RESULT:      -7.6      0.000      0.000
REMARK  Name = 
REMARK  4 active torsions:
REMARK  status: ('A' for Active; 'I' for Inactive)
REMARK    1  A    between atoms: C_1  and  C_2
REMARK    2  A    between atoms: C_5  and  N_6
REMARK    3  A    between atoms: N_6  and  C_7
REMARK    4  A    between atoms: C_7  and  N_8
REMARK                            x       y       z     vdW  Elec       q    Type
REMARK                         _______ _______ _______ _____ _____    ______ ____
ROOT
ATOM      1  N   UNL     1       4.201   2.670  18.112  0.00  0.00    +0.000 N 
ATOM      2  C   UNL     1       4.260   2.306  19.441  0.00  0.00    +0.000 C 
ATOM      3  O   UNL     1       5.236   2.141  20.148  0.00  0.00    +0.000 OA
ATOM      4  C   UNL     1       2.912   2.415  19.977  0.00  0.00    +0.000 A 
ATOM      5  C   UNL     1       2.519   2.525  21.301  0.00  0.00    +0.000 A 
ATOM      6  C   UNL     1       1.272   3.106  21.541  0.00  0.00    +0.000 A 
ATOM      7  C   UNL     1       0.460   3.547  20.474  0.00  0.00    +0.000 A 
ATOM      8  C   UNL     1       0.855   3.372  19.144  0.00  0.00    +0.000 A 
ATOM      9  C   UNL     1       2.086   2.785  18.930  0.00  0.00    +0.000 A 
ATOM     10  C   UNL     1       2.890   2.778  17.715  0.00  0.00    +0.000 C 
ATOM     11  O   UNL     1       2.445   2.947  16.596  0.00  0.00    +0.000 OA
ENDROOT
BRANCH   1  12
ATOM     12  C   UNL     1       5.034   3.794  17.783  0.00  0.00    +0.000 C 
BRANCH  12  13
ATOM     13  N   UNL     1       5.111   4.773  18.848  0.00  0.00    +0.000 N 
ATOM     14  H   UNL     1       6.071   5.086  18.987  0.00  0.00    +0.000 HD
BRANCH  13  19
ATOM     15  C   UNL     1       1.458   9.161  18.149  0.00  0.00    +0.000 C 
ATOM     16  C   UNL     1       2.406   8.011  18.313  0.00  0.00    +0.000 A 
ATOM     17  C   UNL     1       3.380   7.751  17.351  0.00  0.00    +0.000 A 
ATOM     18  C   UNL     1       4.265   6.681  17.514  0.00  0.00    +0.000 A 
ATOM     19  C   UNL     1       4.234   5.869  18.660  0.00  0.00    +0.000 A 
ATOM     20  C   UNL     1       3.215   6.102  19.588  0.00  0.00    +0.000 A 
ATOM     21  C   UNL     1       2.320   7.169  19.426  0.00  0.00    +0.000 A 
ENDBRANCH  13  19
ENDBRANCH  12  13
ENDBRANCH   1  12
TORSDOF 3
ENDMDL
MODEL 2
REMARK VINA RESULT:      -7.6      0.091      1.077
REMARK  Name = 
REMARK  4 active torsions:
REMARK  status: ('A' for Active; 'I' for Inactive)
REMARK    1  A    between atoms: C_1  and  C_2
REMARK    2  A    between atoms: C_5  and  N_6
REMARK    3  A    between atoms: N_6  and  C_7
REMARK    4  A    between atoms: C_7  and  N_8
REMARK                            x       y       z     vdW  Elec       q    Type
REMARK                         _______ _______ _______ _____ _____    ______ ____
ROOT
ATOM      1  N   UNL     1       4.176   2.717  18.033  0.00  0.00    +0.000 N 
ATOM      2  C   UNL     1       4.269   2.364  19.362  0.00  0.00    +0.000 C 
ATOM      3  O   UNL     1       5.262   2.210  20.047  0.00  0.00    +0.000 OA
ATOM      4  C   UNL     1       2.933   2.470  19.930  0.00  0.00    +0.000 A 
ATOM      5  C   UNL     1       2.571   2.588  21.261  0.00  0.00    +0.000 A 
ATOM      6  C   UNL     1       1.327   3.163  21.527  0.00  0.00    +0.000 A 
ATOM      7  C   UNL     1       0.488   3.591  20.476  0.00  0.00    +0.000 A 
ATOM      8  C   UNL     1       0.851   3.407  19.139  0.00  0.00    +0.000 A 
ATOM      9  C   UNL     1       2.080   2.826  18.900  0.00  0.00    +0.000 A 
ATOM     10  C   UNL     1       2.856   2.814  17.666  0.00  0.00    +0.000 C 
ATOM     11  O   UNL     1       2.383   2.972  16.557  0.00  0.00    +0.000 OA
ENDROOT
BRANCH   1  12
ATOM     12  C   UNL     1       4.994   3.843  17.675  0.00  0.00    +0.000 C 
BRANCH  12  13
ATOM     13  N   UNL     1       5.086   4.834  18.728  0.00  0.00    +0.000 N 
ATOM     14  H   UNL     1       6.037   5.192  18.810  0.00  0.00    +0.000 HD
BRANCH  13  19
ATOM     15  C   UNL     1       1.374   9.180  18.079  0.00  0.00    +0.000 C 
ATOM     16  C   UNL     1       2.345   8.053  18.267  0.00  0.00    +0.000 A 
ATOM     17  C   UNL     1       2.273   7.232  19.390  0.00  0.00    +0.000 A 
ATOM     18  C   UNL     1       3.177   6.180  19.555  0.00  0.00    +0.000 A 
ATOM     19  C   UNL     1       4.150   5.887  18.584  0.00  0.00    +0.000 A 
ATOM     20  C   UNL     1       4.252   6.753  17.492  0.00  0.00    +0.000 A 
ATOM     21  C   UNL     1       3.352   7.816  17.326  0.00  0.00    +0.000 A 
ENDBRANCH  13  19
ENDBRANCH  12  13
ENDBRANCH   1  12
TORSDOF 3
ENDMDL
MODEL 3
REMARK VINA RESULT:      -7.4      1.404      2.203
REMARK  Name = 
REMARK  4 active torsions:
REMARK  status: ('A' for Active; 'I' for Inactive)
REMARK    1  A    between atoms: C_1  and  C_2
REMARK    2  A    between atoms: C_5  and  N_6
REMARK    3  A    between atoms: N_6  and  C_7
REMARK    4  A    between atoms: C_7  and  N_8
REMARK                            x       y       z     vdW  Elec       q    Type
REMARK                         _______ _______ _______ _____ _____    ______ ____
ROOT
ATOM      1  N   UNL     1       3.346   4.347  17.689  0.00  0.00    +0.000 N 
ATOM      2  C   UNL     1       4.134   3.698  18.616  0.00  0.00    +0.000 C 
ATOM      3  O   UNL     1       5.333   3.787  18.799  0.00  0.00    +0.000 OA
ATOM      4  C   UNL     1       3.240   3.059  19.569  0.00  0.00    +0.000 A 
ATOM      5  C   UNL     1       3.521   2.622  20.853  0.00  0.00    +0.000 A 
ATOM      6  C   UNL     1       2.441   2.512  21.731  0.00  0.00    +0.000 A 
ATOM      7  C   UNL     1       1.132   2.829  21.313  0.00  0.00    +0.000 A 
ATOM      8  C   UNL     1       0.866   3.213  19.995  0.00  0.00    +0.000 A 
ATOM      9  C   UNL     1       1.947   3.303  19.141  0.00  0.00    +0.000 A 
ATOM     10  C   UNL     1       2.033   3.978  17.852  0.00  0.00    +0.000 C 
ATOM     11  O   UNL     1       1.076   4.235  17.147  0.00  0.00    +0.000 OA
ENDROOT
BRANCH   1  12
ATOM     12  C   UNL     1       3.579   5.763  17.623  0.00  0.00    +0.000 C 
BRANCH  12  13
ATOM     13  N   UNL     1       3.528   6.407  18.919  0.00  0.00    +0.000 N 
ATOM     14  H   UNL     1       4.455   6.718  19.210  0.00  0.00    +0.000 HD
BRANCH  13  19
ATOM     15  C   UNL     1      -0.217  10.771  19.068  0.00  0.00    +0.000 C 
ATOM     16  C   UNL     1       0.767   9.640  19.045  0.00  0.00    +0.000 A 
ATOM     17  C   UNL     1       0.996   8.875  20.187  0.00  0.00    +0.000 A 
ATOM     18  C   UNL     1       1.911   7.818  20.157  0.00  0.00    +0.000 A 
ATOM     19  C   UNL     1       2.589   7.466  18.978  0.00  0.00    +0.000 A 
ATOM     20  C   UNL     1       2.397   8.277  17.856  0.00  0.00    +0.000 A 
ATOM     21  C   UNL     1       1.487   9.344  17.883  0.00  0.00    +0.000 A 
ENDBRANCH  13  19
ENDBRANCH  12  13
ENDBRANCH   1  12
TORSDOF 3
ENDMDL
MODEL 4
REMARK VINA RESULT:      -7.4      2.341      2.884
REMARK  Name = 
REMARK  4 active torsions:
REMARK  status: ('A' for Active; 'I' for Inactive)
REMARK    1  A    between atoms: C_1  and  C_2
REMARK    2  A    between atoms: C_5  and  N_6
REMARK    3  A    between atoms: N_6  and  C_7
REMARK    4  A    between atoms: C_7  and  N_8
REMARK                            x       y       z     vdW  Elec       q    Type
REMARK                         _______ _______ _______ _____ _____    ______ ____
ROOT
ATOM      1  N   UNL     1       4.099   2.847  17.923  0.00  0.00    +0.000 N 
ATOM      2  C   UNL     1       4.306   2.600  19.263  0.00  0.00    +0.000 C 
ATOM      3  O   UNL     1       5.341   2.639  19.899  0.00  0.00    +0.000 OA
ATOM      4  C   UNL     1       2.997   2.544  19.897  0.00  0.00    +0.000 A 
ATOM      5  C   UNL     1       2.684   2.696  21.238  0.00  0.00    +0.000 A 
ATOM      6  C   UNL     1       1.381   3.097  21.538  0.00  0.00    +0.000 A 
ATOM      7  C   UNL     1       0.439   3.327  20.513  0.00  0.00    +0.000 A 
ATOM      8  C   UNL     1       0.764   3.111  19.171  0.00  0.00    +0.000 A 
ATOM      9  C   UNL     1       2.054   2.703  18.898  0.00  0.00    +0.000 A 
ATOM     10  C   UNL     1       2.764   2.724  17.625  0.00  0.00    +0.000 C 
ATOM     11  O   UNL     1       2.221   2.736  16.537  0.00  0.00    +0.000 OA
ENDROOT
BRANCH   1  12
ATOM     12  C   UNL     1       4.720   4.054  17.455  0.00  0.00    +0.000 C 
BRANCH  12  13
ATOM     13  N   UNL     1       6.166   4.018  17.543  0.00  0.00    +0.000 N 
ATOM     14  H   UNL     1       6.567   3.513  16.753  0.00  0.00    +0.000 HD
BRANCH  13  19
ATOM     15  C   UNL     1       8.538   9.213  18.232  0.00  0.00    +0.000 C 
ATOM     16  C   UNL     1       7.902   7.867  18.052  0.00  0.00    +0.000 A 
ATOM     17  C   UNL     1       6.967   7.653  17.041  0.00  0.00    +0.000 A 
ATOM     18  C   UNL     1       6.383   6.394  16.875  0.00  0.00    +0.000 A 
ATOM     19  C   UNL     1       6.747   5.303  17.681  0.00  0.00    +0.000 A 
ATOM     20  C   UNL     1       7.640   5.543  18.729  0.00  0.00    +0.000 A 
ATOM     21  C   UNL     1       8.223   6.806  18.905  0.00  0.00    +0.000 A 
ENDBRANCH  13  19
ENDBRANCH  12  13
ENDBRANCH   1  12
TORSDOF 3
ENDMDL
MODEL 5
REMARK VINA RESULT:      -7.4      2.336      2.989
REMARK  Name = 
REMARK  4 active torsions:
REMARK  status: ('A' for Active; 'I' for Inactive)
REMARK    1  A    between atoms: C_1  and  C_2
REMARK    2  A    between atoms: C_5  and  N_6
REMARK    3  A    between atoms: N_6  and  C_7
REMARK    4  A    between atoms: C_7  and  N_8
REMARK                            x       y       z     vdW  Elec       q    Type
REMARK                         _______ _______ _______ _____ _____    ______ ____
ROOT
ATOM      1  N   UNL     1       4.129   2.874  18.008  0.00  0.00    +0.000 N 
ATOM      2  C   UNL     1       4.313   2.593  19.345  0.00  0.00    +0.000 C 
ATOM      3  O   UNL     1       5.338   2.608  19.998  0.00  0.00    +0.000 OA
ATOM      4  C   UNL     1       2.994   2.532  19.956  0.00  0.00    +0.000 A 
ATOM      5  C   UNL     1       2.660   2.652  21.295  0.00  0.00    +0.000 A 
ATOM      6  C   UNL     1       1.355   3.057  21.585  0.00  0.00    +0.000 A 
ATOM      7  C   UNL     1       0.432   3.319  20.550  0.00  0.00    +0.000 A 
ATOM      8  C   UNL     1       0.776   3.133  19.209  0.00  0.00    +0.000 A 
ATOM      9  C   UNL     1       2.067   2.722  18.946  0.00  0.00    +0.000 A 
ATOM     10  C   UNL     1       2.798   2.769  17.686  0.00  0.00    +0.000 C 
ATOM     11  O   UNL     1       2.273   2.812  16.590  0.00  0.00    +0.000 OA
ENDROOT
BRANCH   1  12
ATOM     12  C   UNL     1       4.767   4.088  17.580  0.00  0.00    +0.000 C 
BRANCH  12  13
ATOM     13  N   UNL     1       6.206   4.061  17.747  0.00  0.00    +0.000 N 
ATOM     14  H   UNL     1       6.652   3.539  16.992  0.00  0.00    +0.000 HD
BRANCH  13  19
ATOM     15  C   UNL     1       8.502   9.317  18.184  0.00  0.00    +0.000 C 
ATOM     16  C   UNL     1       7.922   7.939  18.071  0.00  0.00    +0.000 A 
ATOM     17  C   UNL     1       8.307   6.931  18.952  0.00  0.00    +0.000 A 
ATOM     18  C   UNL     1       7.757   5.651  18.845  0.00  0.00    +0.000 A 
ATOM     19  C   UNL     1       6.774   5.351  17.886  0.00  0.00    +0.000 A 
ATOM     20  C   UNL     1       6.440   6.352  16.970  0.00  0.00    +0.000 A 
ATOM     21  C   UNL     1       6.995   7.636  17.068  0.00  0.00    +0.000 A 
ENDBRANCH  13  19
ENDBRANCH  12  13
ENDBRANCH   1  12
TORSDOF 3
ENDMDL
MODEL 6
REMARK VINA RESULT:      -7.4      1.429      1.971
REMARK  Name = 
REMARK  4 active torsions:
REMARK  status: ('A' for Active; 'I' for Inactive)
REMARK    1  A    between atoms: C_1  and  C_2
REMARK    2  A    between atoms: C_5  and  N_6
REMARK    3  A    between atoms: N_6  and  C_7
REMARK    4  A    between atoms: C_7  and  N_8
REMARK                            x       y       z     vdW  Elec       q    Type
REMARK                         _______ _______ _______ _____ _____    ______ ____
ROOT
ATOM      1  N   UNL     1       3.349   4.392  17.694  0.00  0.00    +0.000 N 
ATOM      2  C   UNL     1       4.140   3.718  18.600  0.00  0.00    +0.000 C 
ATOM      3  O   UNL     1       5.341   3.790  18.772  0.00  0.00    +0.000 OA
ATOM      4  C   UNL     1       3.248   3.073  19.552  0.00  0.00    +0.000 A 
ATOM      5  C   UNL     1       3.538   2.610  20.825  0.00  0.00    +0.000 A 
ATOM      6  C   UNL     1       2.467   2.498  21.713  0.00  0.00    +0.000 A 
ATOM      7  C   UNL     1       1.157   2.837  21.315  0.00  0.00    +0.000 A 
ATOM      8  C   UNL     1       0.882   3.247  20.007  0.00  0.00    +0.000 A 
ATOM      9  C   UNL     1       1.954   3.340  19.143  0.00  0.00    +0.000 A 
ATOM     10  C   UNL     1       2.034   4.036  17.865  0.00  0.00    +0.000 C 
ATOM     11  O   UNL     1       1.073   4.316  17.175  0.00  0.00    +0.000 OA
ENDROOT
BRANCH   1  12
ATOM     12  C   UNL     1       3.599   5.806  17.650  0.00  0.00    +0.000 C 
BRANCH  12  13
ATOM     13  N   UNL     1       3.512   6.438  18.950  0.00  0.00    +0.000 N 
ATOM     14  H   UNL     1       4.434   6.719  19.282  0.00  0.00    +0.000 HD
BRANCH  13  19
ATOM     15  C   UNL     1      -0.253  10.782  19.171  0.00  0.00    +0.000 C 
ATOM     16  C   UNL     1       0.719   9.643  19.097  0.00  0.00    +0.000 A 
ATOM     17  C   UNL     1       1.360   9.332  17.900  0.00  0.00    +0.000 A 
ATOM     18  C   UNL     1       2.270   8.273  17.841  0.00  0.00    +0.000 A 
ATOM     19  C   UNL     1       2.601   7.523  18.982  0.00  0.00    +0.000 A 
ATOM     20  C   UNL     1       1.908   7.804  20.162  0.00  0.00    +0.000 A 
ATOM     21  C   UNL     1       0.988   8.861  20.225  0.00  0.00    +0.000 A 
ENDBRANCH  13  19
ENDBRANCH  12  13
ENDBRANCH   1  12
TORSDOF 3
ENDMDL
MODEL 7
REMARK VINA RESULT:      -7.4      2.194      2.853
REMARK  Name = 
REMARK  4 active torsions:
REMARK  status: ('A' for Active; 'I' for Inactive)
REMARK    1  A    between atoms: C_1  and  C_2
REMARK    2  A    between atoms: C_5  and  N_6
REMARK    3  A    between atoms: N_6  and  C_7
REMARK    4  A    between atoms: C_7  and  N_8
REMARK                            x       y       z     vdW  Elec       q    Type
REMARK                         _______ _______ _______ _____ _____    ______ ____
ROOT
ATOM      1  N   UNL     1       2.785   2.895  17.318  0.00  0.00    +0.000 N 
ATOM      2  C   UNL     1       3.082   1.941  18.267  0.00  0.00    +0.000 C 
ATOM      3  O   UNL     1       3.906   1.048  18.226  0.00  0.00    +0.000 OA
ATOM      4  C   UNL     1       2.419   2.340  19.499  0.00  0.00    +0.000 A 
ATOM      5  C   UNL     1       2.700   1.941  20.796  0.00  0.00    +0.000 A 
ATOM      6  C   UNL     1       2.294   2.799  21.820  0.00  0.00    +0.000 A 
ATOM      7  C   UNL     1       1.624   4.007  21.531  0.00  0.00    +0.000 A 
ATOM      8  C   UNL     1       1.301   4.358  20.217  0.00  0.00    +0.000 A 
ATOM      9  C   UNL     1       1.701   3.490  19.222  0.00  0.00    +0.000 A 
ATOM     10  C   UNL     1       1.807   3.736  17.789  0.00  0.00    +0.000 C 
ATOM     11  O   UNL     1       1.199   4.606  17.196  0.00  0.00    +0.000 OA
ENDROOT
BRANCH   1  12
ATOM     12  C   UNL     1       3.943   3.549  16.775  0.00  0.00    +0.000 C 
BRANCH  12  13
ATOM     13  N   UNL     1       5.069   3.557  17.686  0.00  0.00    +0.000 N 
ATOM     14  H   UNL     1       5.684   2.762  17.515  0.00  0.00    +0.000 HD
BRANCH  13  19
ATOM     15  C   UNL     1       8.040   8.482  17.737  0.00  0.00    +0.000 C 
ATOM     16  C   UNL     1       7.250   7.209  17.729  0.00  0.00    +0.000 A 
ATOM     17  C   UNL     1       6.041   7.127  17.040  0.00  0.00    +0.000 A 
ATOM     18  C   UNL     1       5.313   5.934  17.032  0.00  0.00    +0.000 A 
ATOM     19  C   UNL     1       5.790   4.777  17.669  0.00  0.00    +0.000 A 
ATOM     20  C   UNL     1       6.972   4.887  18.407  0.00  0.00    +0.000 A 
ATOM     21  C   UNL     1       7.702   6.084  18.426  0.00  0.00    +0.000 A 
ENDBRANCH  13  19
ENDBRANCH  12  13
ENDBRANCH   1  12
TORSDOF 3
ENDMDL
MODEL 8
REMARK VINA RESULT:      -7.2      2.206      2.979
REMARK  Name = 
REMARK  4 active torsions:
REMARK  status: ('A' for Active; 'I' for Inactive)
REMARK    1  A    between atoms: C_1  and  C_2
REMARK    2  A    between atoms: C_5  and  N_6
REMARK    3  A    between atoms: N_6  and  C_7
REMARK    4  A    between atoms: C_7  and  N_8
REMARK                            x       y       z     vdW  Elec       q    Type
REMARK                         _______ _______ _______ _____ _____    ______ ____
ROOT
ATOM      1  N   UNL     1       2.838   3.129  17.295  0.00  0.00    +0.000 N 
ATOM      2  C   UNL     1       3.035   2.100  18.192  0.00  0.00    +0.000 C 
ATOM      3  O   UNL     1       3.755   1.125  18.095  0.00  0.00    +0.000 OA
ATOM      4  C   UNL     1       2.430   2.507  19.451  0.00  0.00    +0.000 A 
ATOM      5  C   UNL     1       2.677   2.015  20.723  0.00  0.00    +0.000 A 
ATOM      6  C   UNL     1       2.377   2.859  21.794  0.00  0.00    +0.000 A 
ATOM      7  C   UNL     1       1.844   4.147  21.574  0.00  0.00    +0.000 A 
ATOM      8  C   UNL     1       1.550   4.598  20.284  0.00  0.00    +0.000 A 
ATOM      9  C   UNL     1       1.843   3.742  19.241  0.00  0.00    +0.000 A 
ATOM     10  C   UNL     1       1.963   4.048  17.821  0.00  0.00    +0.000 C 
ATOM     11  O   UNL     1       1.451   5.008  17.280  0.00  0.00    +0.000 OA
ENDROOT
BRANCH   1  12
ATOM     12  C   UNL     1       4.057   3.677  16.768  0.00  0.00    +0.000 C 
BRANCH  12  13
ATOM     13  N   UNL     1       5.152   3.636  17.715  0.00  0.00    +0.000 N 
ATOM     14  H   UNL     1       5.765   2.841  17.531  0.00  0.00    +0.000 HD
BRANCH  13  19
ATOM     15  C   UNL     1       8.084   8.584  17.827  0.00  0.00    +0.000 C 
ATOM     16  C   UNL     1       7.336   7.285  17.793  0.00  0.00    +0.000 A 
ATOM     17  C   UNL     1       7.814   6.172  18.482  0.00  0.00    +0.000 A 
ATOM     18  C   UNL     1       7.109   4.966  18.451  0.00  0.00    +0.000 A 
ATOM     19  C   UNL     1       5.885   4.847  17.772  0.00  0.00    +0.000 A 
ATOM     20  C   UNL     1       5.445   5.951  17.036  0.00  0.00    +0.000 A 
ATOM     21  C   UNL     1       6.154   7.161  17.056  0.00  0.00    +0.000 A 
ENDBRANCH  13  19
ENDBRANCH  12  13
ENDBRANCH   1  12
TORSDOF 3
ENDMDL
MODEL 9
REMARK VINA RESULT:      -7.2      3.101      5.215
REMARK  Name = 
REMARK  4 active torsions:
REMARK  status: ('A' for Active; 'I' for Inactive)
REMARK    1  A    between atoms: C_1  and  C_2
REMARK    2  A    between atoms: C_5  and  N_6
REMARK    3  A    between atoms: N_6  and  C_7
REMARK    4  A    between atoms: C_7  and  N_8
REMARK                            x       y       z     vdW  Elec       q    Type
REMARK                         _______ _______ _______ _____ _____    ______ ____
ROOT
ATOM      1  N   UNL     1       5.474   6.405  18.261  0.00  0.00    +0.000 N 
ATOM      2  C   UNL     1       4.138   6.525  17.942  0.00  0.00    +0.000 C 
ATOM      3  O   UNL     1       3.574   7.403  17.318  0.00  0.00    +0.000 OA
ATOM      4  C   UNL     1       3.509   5.247  18.242  0.00  0.00    +0.000 A 
ATOM      5  C   UNL     1       2.310   4.745  17.764  0.00  0.00    +0.000 A 
ATOM      6  C   UNL     1       2.157   3.357  17.780  0.00  0.00    +0.000 A 
ATOM      7  C   UNL     1       3.183   2.521  18.270  0.00  0.00    +0.000 A 
ATOM      8  C   UNL     1       4.360   3.056  18.801  0.00  0.00    +0.000 A 
ATOM      9  C   UNL     1       4.485   4.430  18.786  0.00  0.00    +0.000 A 
ATOM     10  C   UNL     1       5.688   5.236  18.949  0.00  0.00    +0.000 C 
ATOM     11  O   UNL     1       6.700   4.854  19.505  0.00  0.00    +0.000 OA
ENDROOT
BRANCH   1  12
ATOM     12  C   UNL     1       6.356   6.631  17.149  0.00  0.00    +0.000 C 
BRANCH  12  13
ATOM     13  N   UNL     1       7.146   5.466  16.807  0.00  0.00    +0.000 N 
ATOM     14  H   UNL     1       7.146   4.788  17.569  0.00  0.00    +0.000 HD
BRANCH  13  19
ATOM     15  C   UNL     1       5.601   3.133  11.781  0.00  0.00    +0.000 C 
ATOM     16  C   UNL     1       5.986   3.748  13.093  0.00  0.00    +0.000 A 
ATOM     17  C   UNL     1       5.212   3.533  14.232  0.00  0.00    +0.000 A 
ATOM     18  C   UNL     1       5.580   4.105  15.453  0.00  0.00    +0.000 A 
ATOM     19  C   UNL     1       6.752   4.867  15.585  0.00  0.00    +0.000 A 
ATOM     20  C   UNL     1       7.488   5.125  14.425  0.00  0.00    +0.000 A 
ATOM     21  C   UNL     1       7.119   4.561  13.195  0.00  0.00    +0.000 A 
ENDBRANCH  13  19
ENDBRANCH  12  13
ENDBRANCH   1  12
TORSDOF 3
ENDMDL
