MODEL 1
REMARK VINA RESULT:      -8.2      0.000      0.000
REMARK  Name = 
REMARK  9 active torsions:
REMARK  status: ('A' for Active; 'I' for Inactive)
REMARK    1  A    between atoms: C_1  and  O_2
REMARK    2  A    between atoms: O_2  and  C_3
REMARK    3  A    between atoms: C_6  and  C_7
REMARK    4  A    between atoms: N_9  and  C_10
REMARK    5  A    between atoms: C_16  and  C_17
REMARK    6  A    between atoms: C_17  and  O_18
REMARK    7  A    between atoms: C_17  and  C_19
REMARK    8  A    between atoms: C_17  and  C_24
REMARK    9  A    between atoms: C_20  and  C_21
REMARK                            x       y       z     vdW  Elec       q    Type
REMARK                         _______ _______ _______ _____ _____    ______ ____
ROOT
ATOM      1  C   UNL     1       1.407   8.566  19.988  0.00  0.00    +0.000 A 
ATOM      2  C   UNL     1       1.218   7.896  21.212  0.00  0.00    +0.000 A 
ATOM      3  C   UNL     1       0.484   8.473  22.246  0.00  0.00    +0.000 A 
ATOM      4  C   UNL     1      -0.070   9.731  22.064  0.00  0.00    +0.000 A 
ATOM      5 CL   UNL     1      -1.017  10.434  23.316  0.00  0.00    +0.000 Cl
ATOM      6  C   UNL     1       0.108  10.414  20.857  0.00  0.00    +0.000 A 
ATOM      7  C   UNL     1       0.850   9.852  19.782  0.00  0.00    +0.000 A 
ENDROOT
BRANCH   1  10
ATOM      8  C   UNL     1       2.454   6.544  19.088  0.00  0.00    +0.000 C 
ATOM      9  O   UNL     1       1.935   5.790  19.906  0.00  0.00    +0.000 OA
ATOM     10  N   UNL     1       2.195   7.909  19.007  0.00  0.00    +0.000 N 
ATOM     11  H   UNL     1       2.146   8.289  18.064  0.00  0.00    +0.000 HD
BRANCH   8  15
ATOM     12  C   UNL     1       5.155   4.765  16.248  0.00  0.00    +0.000 A 
ATOM     13  C   UNL     1       4.229   3.987  16.942  0.00  0.00    +0.000 A 
ATOM     14  C   UNL     1       3.330   4.581  17.834  0.00  0.00    +0.000 A 
ATOM     15  C   UNL     1       3.360   5.965  18.053  0.00  0.00    +0.000 A 
ATOM     16  C   UNL     1       4.309   6.743  17.380  0.00  0.00    +0.000 A 
ATOM     17  C   UNL     1       5.207   6.141  16.483  0.00  0.00    +0.000 A 
BRANCH  12  19
ATOM     18  C   UNL     1       6.802   4.860  14.551  0.00  0.00    +0.000 C 
ATOM     19  O   UNL     1       5.988   4.071  15.413  0.00  0.00    +0.000 OA
ENDBRANCH  12  19
ENDBRANCH   8  15
ENDBRANCH   1  10
BRANCH   7  20
ATOM     20  C   UNL     1       0.813  10.584  18.419  0.00  0.00    +0.000 C 
BRANCH  20  21
ATOM     21  C   UNL     1       1.010  12.153  18.510  0.00  0.00    +0.000 C 
ATOM     22  F   UNL     1       1.440  12.570  19.726  0.00  0.00    +0.000 F 
ATOM     23  F   UNL     1       1.927  12.597  17.607  0.00  0.00    +0.000 F 
ATOM     24  F   UNL     1      -0.133  12.840  18.251  0.00  0.00    +0.000 F 
ENDBRANCH  20  21
BRANCH  20  25
ATOM     25  O   UNL     1       1.844  10.026  17.559  0.00  0.00    +0.000 OA
ATOM     26  H   UNL     1       1.399   9.349  17.015  0.00  0.00    +0.000 HD
ENDBRANCH  20  25
BRANCH  20  27
ATOM     27  C   UNL     1      -0.499  10.292  17.770  0.00  0.00    +0.000 C 
ATOM     28  C   UNL     1      -1.578  10.097  17.270  0.00  0.00    +0.000 C 
BRANCH  28  29
ATOM     29  C   UNL     1      -2.866   9.889  16.676  0.00  0.00    +0.000 C 
ATOM     30  C   UNL     1      -3.704  11.093  16.335  0.00  0.00    +0.000 C 
ATOM     31  C   UNL     1      -3.091  10.271  15.236  0.00  0.00    +0.000 C 
ENDBRANCH  28  29
ENDBRANCH  20  27
ENDBRANCH   7  20
TORSDOF 8
ENDMDL
MODEL 2
REMARK VINA RESULT:      -8.1      0.933      1.249
REMARK  Name = 
REMARK  9 active torsions:
REMARK  status: ('A' for Active; 'I' for Inactive)
REMARK    1  A    between atoms: C_1  and  O_2
REMARK    2  A    between atoms: O_2  and  C_3
REMARK    3  A    between atoms: C_6  and  C_7
REMARK    4  A    between atoms: N_9  and  C_10
REMARK    5  A    between atoms: C_16  and  C_17
REMARK    6  A    between atoms: C_17  and  O_18
REMARK    7  A    between atoms: C_17  and  C_19
REMARK    8  A    between atoms: C_17  and  C_24
REMARK    9  A    between atoms: C_20  and  C_21
REMARK                            x       y       z     vdW  Elec       q    Type
REMARK                         _______ _______ _______ _____ _____    ______ ____
ROOT
ATOM      1  C   UNL     1       0.996   9.145  20.534  0.00  0.00    +0.000 A 
ATOM      2  C   UNL     1       0.695   8.619  21.805  0.00  0.00    +0.000 A 
ATOM      3  C   UNL     1      -0.146   9.295  22.687  0.00  0.00    +0.000 A 
ATOM      4  C   UNL     1      -0.697  10.508  22.302  0.00  0.00    +0.000 A 
ATOM      5 CL   UNL     1      -1.773  11.329  23.364  0.00  0.00    +0.000 Cl
ATOM      6  C   UNL     1      -0.409  11.049  21.046  0.00  0.00    +0.000 A 
ATOM      7  C   UNL     1       0.443  10.383  20.123  0.00  0.00    +0.000 A 
ENDROOT
BRANCH   1  10
ATOM      8  C   UNL     1       2.103   7.042  19.947  0.00  0.00    +0.000 C 
ATOM      9  O   UNL     1       1.470   6.366  20.753  0.00  0.00    +0.000 OA
ATOM     10  N   UNL     1       1.886   8.398  19.720  0.00  0.00    +0.000 N 
ATOM     11  H   UNL     1       1.964   8.696  18.749  0.00  0.00    +0.000 HD
BRANCH   8  15
ATOM     12  C   UNL     1       5.174   5.140  17.607  0.00  0.00    +0.000 A 
ATOM     13  C   UNL     1       4.834   4.659  18.871  0.00  0.00    +0.000 A 
ATOM     14  C   UNL     1       3.809   5.262  19.607  0.00  0.00    +0.000 A 
ATOM     15  C   UNL     1       3.119   6.367  19.088  0.00  0.00    +0.000 A 
ATOM     16  C   UNL     1       3.480   6.868  17.833  0.00  0.00    +0.000 A 
ATOM     17  C   UNL     1       4.508   6.257  17.096  0.00  0.00    +0.000 A 
BRANCH  12  19
ATOM     18  C   UNL     1       5.901   3.925  15.711  0.00  0.00    +0.000 C 
ATOM     19  O   UNL     1       6.199   4.476  16.990  0.00  0.00    +0.000 OA
ENDBRANCH  12  19
ENDBRANCH   8  15
ENDBRANCH   1  10
BRANCH   7  20
ATOM     20  C   UNL     1       0.532  10.948  18.685  0.00  0.00    +0.000 C 
BRANCH  20  21
ATOM     21  C   UNL     1       0.755  12.515  18.607  0.00  0.00    +0.000 C 
ATOM     22  F   UNL     1      -0.378  13.204  18.330  0.00  0.00    +0.000 F 
ATOM     23  F   UNL     1       1.229  13.013  19.781  0.00  0.00    +0.000 F 
ATOM     24  F   UNL     1       1.661  12.868  17.658  0.00  0.00    +0.000 F 
ENDBRANCH  20  21
BRANCH  20  25
ATOM     25  O   UNL     1       1.616  10.281  17.985  0.00  0.00    +0.000 OA
ATOM     26  H   UNL     1       2.238   9.983  18.677  0.00  0.00    +0.000 HD
ENDBRANCH  20  25
BRANCH  20  27
ATOM     27  C   UNL     1      -0.730  10.597  17.969  0.00  0.00    +0.000 C 
ATOM     28  C   UNL     1      -1.749  10.270  17.416  0.00  0.00    +0.000 C 
BRANCH  28  29
ATOM     29  C   UNL     1      -2.968   9.866  16.777  0.00  0.00    +0.000 C 
ATOM     30  C   UNL     1      -3.811  10.918  16.107  0.00  0.00    +0.000 C 
ATOM     31  C   UNL     1      -3.068   9.911  15.274  0.00  0.00    +0.000 C 
ENDBRANCH  28  29
ENDBRANCH  20  27
ENDBRANCH   7  20
TORSDOF 8
ENDMDL
MODEL 3
REMARK VINA RESULT:      -8.1      0.829      1.157
REMARK  Name = 
REMARK  9 active torsions:
REMARK  status: ('A' for Active; 'I' for Inactive)
REMARK    1  A    between atoms: C_1  and  O_2
REMARK    2  A    between atoms: O_2  and  C_3
REMARK    3  A    between atoms: C_6  and  C_7
REMARK    4  A    between atoms: N_9  and  C_10
REMARK    5  A    between atoms: C_16  and  C_17
REMARK    6  A    between atoms: C_17  and  O_18
REMARK    7  A    between atoms: C_17  and  C_19
REMARK    8  A    between atoms: C_17  and  C_24
REMARK    9  A    between atoms: C_20  and  C_21
REMARK                            x       y       z     vdW  Elec       q    Type
REMARK                         _______ _______ _______ _____ _____    ______ ____
ROOT
ATOM      1  C   UNL     1       1.199   8.832  20.571  0.00  0.00    +0.000 A 
ATOM      2  C   UNL     1       0.869   8.339  21.848  0.00  0.00    +0.000 A 
ATOM      3  C   UNL     1       0.017   9.042  22.697  0.00  0.00    +0.000 A 
ATOM      4  C   UNL     1      -0.516  10.250  22.273  0.00  0.00    +0.000 A 
ATOM      5 CL   UNL     1      -1.606  11.105  23.293  0.00  0.00    +0.000 Cl
ATOM      6  C   UNL     1      -0.199  10.758  21.009  0.00  0.00    +0.000 A 
ATOM      7  C   UNL     1       0.665  10.064  20.120  0.00  0.00    +0.000 A 
ENDROOT
BRANCH   1  10
ATOM      8  C   UNL     1       2.210   6.683  19.976  0.00  0.00    +0.000 C 
ATOM      9  O   UNL     1       1.474   6.021  20.702  0.00  0.00    +0.000 OA
ATOM     10  N   UNL     1       2.098   8.058  19.792  0.00  0.00    +0.000 N 
ATOM     11  H   UNL     1       2.269   8.388  18.844  0.00  0.00    +0.000 HD
BRANCH   8  15
ATOM     12  C   UNL     1       5.049   4.606  17.495  0.00  0.00    +0.000 A 
ATOM     13  C   UNL     1       4.461   5.797  17.070  0.00  0.00    +0.000 A 
ATOM     14  C   UNL     1       3.568   6.484  17.900  0.00  0.00    +0.000 A 
ATOM     15  C   UNL     1       3.242   5.975  19.165  0.00  0.00    +0.000 A 
ATOM     16  C   UNL     1       3.809   4.764  19.580  0.00  0.00    +0.000 A 
ATOM     17  C   UNL     1       4.708   4.081  18.744  0.00  0.00    +0.000 A 
BRANCH  12  19
ATOM     18  C   UNL     1       6.871   4.880  16.011  0.00  0.00    +0.000 C 
ATOM     19  O   UNL     1       5.895   4.022  16.593  0.00  0.00    +0.000 OA
ENDBRANCH  12  19
ENDBRANCH   8  15
ENDBRANCH   1  10
BRANCH   7  20
ATOM     20  C   UNL     1       0.786  10.594  18.671  0.00  0.00    +0.000 C 
BRANCH  20  21
ATOM     21  C   UNL     1       1.183  12.124  18.561  0.00  0.00    +0.000 C 
ATOM     22  F   UNL     1       1.652  12.640  19.723  0.00  0.00    +0.000 F 
ATOM     23  F   UNL     1       2.157  12.324  17.632  0.00  0.00    +0.000 F 
ATOM     24  F   UNL     1       0.140  12.909  18.185  0.00  0.00    +0.000 F 
ENDBRANCH  20  21
BRANCH  20  25
ATOM     25  O   UNL     1       1.773   9.797  17.961  0.00  0.00    +0.000 OA
ATOM     26  H   UNL     1       1.936  10.263  17.119  0.00  0.00    +0.000 HD
ENDBRANCH  20  25
BRANCH  20  27
ATOM     27  C   UNL     1      -0.522  10.377  17.986  0.00  0.00    +0.000 C 
ATOM     28  C   UNL     1      -1.562  10.157  17.418  0.00  0.00    +0.000 C 
BRANCH  28  29
ATOM     29  C   UNL     1      -2.796   9.871  16.746  0.00  0.00    +0.000 C 
ATOM     30  C   UNL     1      -3.614  11.022  16.224  0.00  0.00    +0.000 C 
ATOM     31  C   UNL     1      -2.906  10.111  15.262  0.00  0.00    +0.000 C 
ENDBRANCH  28  29
ENDBRANCH  20  27
ENDBRANCH   7  20
TORSDOF 8
ENDMDL
MODEL 4
REMARK VINA RESULT:      -7.9      1.698      2.671
REMARK  Name = 
REMARK  9 active torsions:
REMARK  status: ('A' for Active; 'I' for Inactive)
REMARK    1  A    between atoms: C_1  and  O_2
REMARK    2  A    between atoms: O_2  and  C_3
REMARK    3  A    between atoms: C_6  and  C_7
REMARK    4  A    between atoms: N_9  and  C_10
REMARK    5  A    between atoms: C_16  and  C_17
REMARK    6  A    between atoms: C_17  and  O_18
REMARK    7  A    between atoms: C_17  and  C_19
REMARK    8  A    between atoms: C_17  and  C_24
REMARK    9  A    between atoms: C_20  and  C_21
REMARK                            x       y       z     vdW  Elec       q    Type
REMARK                         _______ _______ _______ _____ _____    ______ ____
ROOT
ATOM      1  C   UNL     1      -0.227   9.978  21.197  0.00  0.00    +0.000 A 
ATOM      2  C   UNL     1      -0.734   9.827  22.502  0.00  0.00    +0.000 A 
ATOM      3  C   UNL     1      -1.212  10.921  23.223  0.00  0.00    +0.000 A 
ATOM      4  C   UNL     1      -1.187  12.179  22.641  0.00  0.00    +0.000 A 
ATOM      5 CL   UNL     1      -1.817  13.528  23.502  0.00  0.00    +0.000 Cl
ATOM      6  C   UNL     1      -0.684  12.350  21.347  0.00  0.00    +0.000 A 
ATOM      7  C   UNL     1      -0.192  11.256  20.586  0.00  0.00    +0.000 A 
ENDROOT
BRANCH   1  10
ATOM      8  C   UNL     1       1.422   8.179  21.002  0.00  0.00    +0.000 C 
ATOM      9  O   UNL     1       2.024   8.482  22.029  0.00  0.00    +0.000 OA
ATOM     10  N   UNL     1       0.265   8.811  20.557  0.00  0.00    +0.000 N 
ATOM     11  H   UNL     1      -0.435   8.198  20.142  0.00  0.00    +0.000 HD
BRANCH   8  15
ATOM     12  C   UNL     1       2.666   4.847  18.578  0.00  0.00    +0.000 A 
ATOM     13  C   UNL     1       2.824   6.159  18.130  0.00  0.00    +0.000 A 
ATOM     14  C   UNL     1       2.451   7.235  18.942  0.00  0.00    +0.000 A 
ATOM     15  C   UNL     1       1.900   7.008  20.211  0.00  0.00    +0.000 A 
ATOM     16  C   UNL     1       1.714   5.692  20.649  0.00  0.00    +0.000 A 
ATOM     17  C   UNL     1       2.093   4.615  19.831  0.00  0.00    +0.000 A 
BRANCH  12  19
ATOM     18  C   UNL     1       4.238   4.159  16.949  0.00  0.00    +0.000 C 
ATOM     19  O   UNL     1       3.056   3.880  17.692  0.00  0.00    +0.000 OA
ENDBRANCH  12  19
ENDBRANCH   8  15
ENDBRANCH   1  10
BRANCH   7  20
ATOM     20  C   UNL     1       0.143  11.505  19.096  0.00  0.00    +0.000 C 
BRANCH  20  21
ATOM     21  C   UNL     1       0.417  13.022  18.728  0.00  0.00    +0.000 C 
ATOM     22  F   UNL     1      -0.681  13.669  18.269  0.00  0.00    +0.000 F 
ATOM     23  F   UNL     1       0.855  13.727  19.806  0.00  0.00    +0.000 F 
ATOM     24  F   UNL     1       1.374  13.164  17.774  0.00  0.00    +0.000 F 
ENDBRANCH  20  21
BRANCH  20  25
ATOM     25  O   UNL     1       1.307  10.713  18.737  0.00  0.00    +0.000 OA
ATOM     26  H   UNL     1       1.078  10.265  17.900  0.00  0.00    +0.000 HD
ENDBRANCH  20  25
BRANCH  20  27
ATOM     27  C   UNL     1      -0.997  11.000  18.273  0.00  0.00    +0.000 C 
ATOM     28  C   UNL     1      -1.885  10.560  17.589  0.00  0.00    +0.000 C 
BRANCH  28  29
ATOM     29  C   UNL     1      -2.930  10.014  16.773  0.00  0.00    +0.000 C 
ATOM     30  C   UNL     1      -3.825  10.962  16.021  0.00  0.00    +0.000 C 
ATOM     31  C   UNL     1      -2.832  10.117  15.273  0.00  0.00    +0.000 C 
ENDBRANCH  28  29
ENDBRANCH  20  27
ENDBRANCH   7  20
TORSDOF 8
ENDMDL
MODEL 5
REMARK VINA RESULT:      -7.8      3.015      4.535
REMARK  Name = 
REMARK  9 active torsions:
REMARK  status: ('A' for Active; 'I' for Inactive)
REMARK    1  A    between atoms: C_1  and  O_2
REMARK    2  A    between atoms: O_2  and  C_3
REMARK    3  A    between atoms: C_6  and  C_7
REMARK    4  A    between atoms: N_9  and  C_10
REMARK    5  A    between atoms: C_16  and  C_17
REMARK    6  A    between atoms: C_17  and  O_18
REMARK    7  A    between atoms: C_17  and  C_19
REMARK    8  A    between atoms: C_17  and  C_24
REMARK    9  A    between atoms: C_20  and  C_21
REMARK                            x       y       z     vdW  Elec       q    Type
REMARK                         _______ _______ _______ _____ _____    ______ ____
ROOT
ATOM      1  C   UNL     1       0.918  11.675  19.230  0.00  0.00    +0.000 A 
ATOM      2  C   UNL     1       1.906  12.672  19.347  0.00  0.00    +0.000 A 
ATOM      3  C   UNL     1       1.617  14.010  19.082  0.00  0.00    +0.000 A 
ATOM      4  C   UNL     1       0.333  14.363  18.697  0.00  0.00    +0.000 A 
ATOM      5 CL   UNL     1      -0.047  16.016  18.413  0.00  0.00    +0.000 Cl
ATOM      6  C   UNL     1      -0.661  13.388  18.574  0.00  0.00    +0.000 A 
ATOM      7  C   UNL     1      -0.400  12.016  18.838  0.00  0.00    +0.000 A 
ENDROOT
BRANCH   1  10
ATOM      8  C   UNL     1       1.841   9.534  18.484  0.00  0.00    +0.000 C 
ATOM      9  O   UNL     1       2.122   9.933  17.357  0.00  0.00    +0.000 OA
ATOM     10  N   UNL     1       1.316  10.339  19.491  0.00  0.00    +0.000 N 
ATOM     11  H   UNL     1       1.667  10.150  20.429  0.00  0.00    +0.000 HD
BRANCH   8  15
ATOM     12  C   UNL     1       2.608   5.394  19.375  0.00  0.00    +0.000 A 
ATOM     13  C   UNL     1       2.916   5.928  18.124  0.00  0.00    +0.000 A 
ATOM     14  C   UNL     1       2.698   7.283  17.858  0.00  0.00    +0.000 A 
ATOM     15  C   UNL     1       2.153   8.120  18.842  0.00  0.00    +0.000 A 
ATOM     16  C   UNL     1       1.816   7.579  20.088  0.00  0.00    +0.000 A 
ATOM     17  C   UNL     1       2.040   6.217  20.350  0.00  0.00    +0.000 A 
BRANCH  12  19
ATOM     18  C   UNL     1       3.998   3.561  18.822  0.00  0.00    +0.000 C 
ATOM     19  O   UNL     1       2.855   4.055  19.512  0.00  0.00    +0.000 OA
ENDBRANCH  12  19
ENDBRANCH   8  15
ENDBRANCH   1  10
BRANCH   7  20
ATOM     20  C   UNL     1      -1.606  11.047  18.883  0.00  0.00    +0.000 C 
BRANCH  20  21
ATOM     21  C   UNL     1      -1.948  10.360  17.497  0.00  0.00    +0.000 C 
ATOM     22  F   UNL     1      -3.074   9.607  17.536  0.00  0.00    +0.000 F 
ATOM     23  F   UNL     1      -2.137  11.281  16.513  0.00  0.00    +0.000 F 
ATOM     24  F   UNL     1      -0.955   9.543  17.058  0.00  0.00    +0.000 F 
ENDBRANCH  20  21
BRANCH  20  25
ATOM     25  O   UNL     1      -1.341  10.014  19.870  0.00  0.00    +0.000 OA
ATOM     26  H   UNL     1      -1.600  10.395  20.731  0.00  0.00    +0.000 HD
ENDBRANCH  20  25
BRANCH  20  27
ATOM     27  C   UNL     1      -2.797  11.809  19.359  0.00  0.00    +0.000 C 
ATOM     28  C   UNL     1      -3.781  12.381  19.758  0.00  0.00    +0.000 C 
BRANCH  28  29
ATOM     29  C   UNL     1      -4.954  13.043  20.247  0.00  0.00    +0.000 C 
ATOM     30  C   UNL     1      -6.125  12.202  20.684  0.00  0.00    +0.000 C 
ATOM     31  C   UNL     1      -5.310  12.940  21.708  0.00  0.00    +0.000 C 
ENDBRANCH  28  29
ENDBRANCH  20  27
ENDBRANCH   7  20
TORSDOF 8
ENDMDL
MODEL 6
REMARK VINA RESULT:      -7.8      2.063      2.741
REMARK  Name = 
REMARK  9 active torsions:
REMARK  status: ('A' for Active; 'I' for Inactive)
REMARK    1  A    between atoms: C_1  and  O_2
REMARK    2  A    between atoms: O_2  and  C_3
REMARK    3  A    between atoms: C_6  and  C_7
REMARK    4  A    between atoms: N_9  and  C_10
REMARK    5  A    between atoms: C_16  and  C_17
REMARK    6  A    between atoms: C_17  and  O_18
REMARK    7  A    between atoms: C_17  and  C_19
REMARK    8  A    between atoms: C_17  and  C_24
REMARK    9  A    between atoms: C_20  and  C_21
REMARK                            x       y       z     vdW  Elec       q    Type
REMARK                         _______ _______ _______ _____ _____    ______ ____
ROOT
ATOM      1  C   UNL     1      -0.243  10.077  21.213  0.00  0.00    +0.000 A 
ATOM      2  C   UNL     1      -0.781   9.929  22.506  0.00  0.00    +0.000 A 
ATOM      3  C   UNL     1      -1.240  11.030  23.227  0.00  0.00    +0.000 A 
ATOM      4  C   UNL     1      -1.163  12.293  22.659  0.00  0.00    +0.000 A 
ATOM      5 CL   UNL     1      -1.768  13.653  23.521  0.00  0.00    +0.000 Cl
ATOM      6  C   UNL     1      -0.630  12.460  21.378  0.00  0.00    +0.000 A 
ATOM      7  C   UNL     1      -0.156  11.358  20.615  0.00  0.00    +0.000 A 
ENDROOT
BRANCH   1  10
ATOM      8  C   UNL     1       1.373   8.249  21.011  0.00  0.00    +0.000 C 
ATOM      9  O   UNL     1       1.985   8.542  22.035  0.00  0.00    +0.000 OA
ATOM     10  N   UNL     1       0.225   8.901  20.571  0.00  0.00    +0.000 N 
ATOM     11  H   UNL     1      -0.487   8.301  20.159  0.00  0.00    +0.000 HD
BRANCH   8  15
ATOM     12  C   UNL     1       2.814   4.804  18.870  0.00  0.00    +0.000 A 
ATOM     13  C   UNL     1       2.192   4.669  20.111  0.00  0.00    +0.000 A 
ATOM     14  C   UNL     1       1.693   5.792  20.780  0.00  0.00    +0.000 A 
ATOM     15  C   UNL     1       1.827   7.069  20.218  0.00  0.00    +0.000 A 
ATOM     16  C   UNL     1       2.478   7.209  18.987  0.00  0.00    +0.000 A 
ATOM     17  C   UNL     1       2.974   6.078  18.318  0.00  0.00    +0.000 A 
BRANCH  12  19
ATOM     18  C   UNL     1       4.133   2.858  19.141  0.00  0.00    +0.000 C 
ATOM     19  O   UNL     1       3.270   3.638  18.319  0.00  0.00    +0.000 OA
ENDBRANCH  12  19
ENDBRANCH   8  15
ENDBRANCH   1  10
BRANCH   7  20
ATOM     20  C   UNL     1       0.217  11.611  19.135  0.00  0.00    +0.000 C 
BRANCH  20  21
ATOM     21  C   UNL     1       0.448  13.135  18.766  0.00  0.00    +0.000 C 
ATOM     22  F   UNL     1       1.350  13.315  17.771  0.00  0.00    +0.000 F 
ATOM     23  F   UNL     1      -0.704  13.731  18.352  0.00  0.00    +0.000 F 
ATOM     24  F   UNL     1       0.889  13.867  19.822  0.00  0.00    +0.000 F 
ENDBRANCH  20  21
BRANCH  20  25
ATOM     25  O   UNL     1       1.420  10.860  18.819  0.00  0.00    +0.000 OA
ATOM     26  H   UNL     1       2.023  10.991  19.576  0.00  0.00    +0.000 HD
ENDBRANCH  20  25
BRANCH  20  27
ATOM     27  C   UNL     1      -0.877  11.061  18.280  0.00  0.00    +0.000 C 
ATOM     28  C   UNL     1      -1.787  10.611  17.632  0.00  0.00    +0.000 C 
BRANCH  28  29
ATOM     29  C   UNL     1      -2.886  10.082  16.879  0.00  0.00    +0.000 C 
ATOM     30  C   UNL     1      -3.784  11.043  16.145  0.00  0.00    +0.000 C 
ATOM     31  C   UNL     1      -2.855  10.149  15.373  0.00  0.00    +0.000 C 
ENDBRANCH  28  29
ENDBRANCH  20  27
ENDBRANCH   7  20
TORSDOF 8
ENDMDL
MODEL 7
REMARK VINA RESULT:      -7.7      3.006      4.512
REMARK  Name = 
REMARK  9 active torsions:
REMARK  status: ('A' for Active; 'I' for Inactive)
REMARK    1  A    between atoms: C_1  and  O_2
REMARK    2  A    between atoms: O_2  and  C_3
REMARK    3  A    between atoms: C_6  and  C_7
REMARK    4  A    between atoms: N_9  and  C_10
REMARK    5  A    between atoms: C_16  and  C_17
REMARK    6  A    between atoms: C_17  and  O_18
REMARK    7  A    between atoms: C_17  and  C_19
REMARK    8  A    between atoms: C_17  and  C_24
REMARK    9  A    between atoms: C_20  and  C_21
REMARK                            x       y       z     vdW  Elec       q    Type
REMARK                         _______ _______ _______ _____ _____    ______ ____
ROOT
ATOM      1  C   UNL     1       0.902  11.661  19.155  0.00  0.00    +0.000 A 
ATOM      2  C   UNL     1       1.884  12.663  19.268  0.00  0.00    +0.000 A 
ATOM      3  C   UNL     1       1.582  14.002  19.024  0.00  0.00    +0.000 A 
ATOM      4  C   UNL     1       0.289  14.350  18.663  0.00  0.00    +0.000 A 
ATOM      5 CL   UNL     1      -0.107  16.003  18.404  0.00  0.00    +0.000 Cl
ATOM      6  C   UNL     1      -0.700  13.369  18.543  0.00  0.00    +0.000 A 
ATOM      7  C   UNL     1      -0.425  11.996  18.788  0.00  0.00    +0.000 A 
ENDROOT
BRANCH   1  10
ATOM      8  C   UNL     1       1.876   9.552  18.382  0.00  0.00    +0.000 C 
ATOM      9  O   UNL     1       2.177   9.981  17.272  0.00  0.00    +0.000 OA
ATOM     10  N   UNL     1       1.314  10.324  19.394  0.00  0.00    +0.000 N 
ATOM     11  H   UNL     1       1.645  10.117  20.335  0.00  0.00    +0.000 HD
BRANCH   8  15
ATOM     12  C   UNL     1       2.917   5.527  19.495  0.00  0.00    +0.000 A 
ATOM     13  C   UNL     1       2.151   6.330  20.340  0.00  0.00    +0.000 A 
ATOM     14  C   UNL     1       1.787   7.623  19.952  0.00  0.00    +0.000 A 
ATOM     15  C   UNL     1       2.200   8.134  18.713  0.00  0.00    +0.000 A 
ATOM     16  C   UNL     1       2.993   7.340  17.878  0.00  0.00    +0.000 A 
ATOM     17  C   UNL     1       3.354   6.040  18.272  0.00  0.00    +0.000 A 
BRANCH  12  19
ATOM     18  C   UNL     1       3.770   3.364  19.055  0.00  0.00    +0.000 C 
ATOM     19  O   UNL     1       3.220   4.287  19.989  0.00  0.00    +0.000 OA
ENDBRANCH  12  19
ENDBRANCH   8  15
ENDBRANCH   1  10
BRANCH   7  20
ATOM     20  C   UNL     1      -1.622  11.017  18.839  0.00  0.00    +0.000 C 
BRANCH  20  21
ATOM     21  C   UNL     1      -1.959  10.317  17.458  0.00  0.00    +0.000 C 
ATOM     22  F   UNL     1      -2.138  11.195  16.442  0.00  0.00    +0.000 F 
ATOM     23  F   UNL     1      -0.964   9.475  17.067  0.00  0.00    +0.000 F 
ATOM     24  F   UNL     1      -3.086   9.561  17.516  0.00  0.00    +0.000 F 
ENDBRANCH  20  21
BRANCH  20  25
ATOM     25  O   UNL     1      -1.349   9.994  19.834  0.00  0.00    +0.000 OA
ATOM     26  H   UNL     1      -0.995  10.466  20.612  0.00  0.00    +0.000 HD
ENDBRANCH  20  25
BRANCH  20  27
ATOM     27  C   UNL     1      -2.820  11.773  19.310  0.00  0.00    +0.000 C 
ATOM     28  C   UNL     1      -3.796  12.347  19.723  0.00  0.00    +0.000 C 
BRANCH  28  29
ATOM     29  C   UNL     1      -4.953  13.019  20.237  0.00  0.00    +0.000 C 
ATOM     30  C   UNL     1      -6.189  12.208  20.520  0.00  0.00    +0.000 C 
ATOM     31  C   UNL     1      -5.386  12.771  21.659  0.00  0.00    +0.000 C 
ENDBRANCH  28  29
ENDBRANCH  20  27
ENDBRANCH   7  20
TORSDOF 8
ENDMDL
MODEL 8
REMARK VINA RESULT:      -7.7      1.908      2.892
REMARK  Name = 
REMARK  9 active torsions:
REMARK  status: ('A' for Active; 'I' for Inactive)
REMARK    1  A    between atoms: C_1  and  O_2
REMARK    2  A    between atoms: O_2  and  C_3
REMARK    3  A    between atoms: C_6  and  C_7
REMARK    4  A    between atoms: N_9  and  C_10
REMARK    5  A    between atoms: C_16  and  C_17
REMARK    6  A    between atoms: C_17  and  O_18
REMARK    7  A    between atoms: C_17  and  C_19
REMARK    8  A    between atoms: C_17  and  C_24
REMARK    9  A    between atoms: C_20  and  C_21
REMARK                            x       y       z     vdW  Elec       q    Type
REMARK                         _______ _______ _______ _____ _____    ______ ____
ROOT
ATOM      1  C   UNL     1      -0.268  10.483  21.254  0.00  0.00    +0.000 A 
ATOM      2  C   UNL     1      -0.843  10.274  22.522  0.00  0.00    +0.000 A 
ATOM      3  C   UNL     1      -1.327  11.338  23.282  0.00  0.00    +0.000 A 
ATOM      4  C   UNL     1      -1.239  12.626  22.776  0.00  0.00    +0.000 A 
ATOM      5 CL   UNL     1      -1.875  13.942  23.684  0.00  0.00    +0.000 Cl
ATOM      6  C   UNL     1      -0.670  12.855  21.520  0.00  0.00    +0.000 A 
ATOM      7  C   UNL     1      -0.170  11.792  20.720  0.00  0.00    +0.000 A 
ENDROOT
BRANCH   1  10
ATOM      8  C   UNL     1       1.291   8.605  21.075  0.00  0.00    +0.000 C 
ATOM      9  O   UNL     1       1.798   8.790  22.178  0.00  0.00    +0.000 OA
ATOM     10  N   UNL     1       0.223   9.341  20.571  0.00  0.00    +0.000 N 
ATOM     11  H   UNL     1      -0.462   8.807  20.039  0.00  0.00    +0.000 HD
BRANCH   8  15
ATOM     12  C   UNL     1       2.572   5.377  18.532  0.00  0.00    +0.000 A 
ATOM     13  C   UNL     1       2.662   6.703  18.109  0.00  0.00    +0.000 A 
ATOM     14  C   UNL     1       2.278   7.746  18.958  0.00  0.00    +0.000 A 
ATOM     15  C   UNL     1       1.784   7.471  20.241  0.00  0.00    +0.000 A 
ATOM     16  C   UNL     1       1.666   6.139  20.655  0.00  0.00    +0.000 A 
ATOM     17  C   UNL     1       2.056   5.096  19.799  0.00  0.00    +0.000 A 
BRANCH  12  19
ATOM     18  C   UNL     1       4.358   4.148  17.584  0.00  0.00    +0.000 C 
ATOM     19  O   UNL     1       2.965   4.446  17.611  0.00  0.00    +0.000 OA
ENDBRANCH  12  19
ENDBRANCH   8  15
ENDBRANCH   1  10
BRANCH   7  20
ATOM     20  C   UNL     1       0.244  12.116  19.265  0.00  0.00    +0.000 C 
BRANCH  20  21
ATOM     21  C   UNL     1       0.671  13.622  19.022  0.00  0.00    +0.000 C 
ATOM     22  F   UNL     1       1.390  14.146  20.044  0.00  0.00    +0.000 F 
ATOM     23  F   UNL     1       1.440  13.752  17.907  0.00  0.00    +0.000 F 
ATOM     24  F   UNL     1      -0.394  14.446  18.840  0.00  0.00    +0.000 F 
ENDBRANCH  20  21
BRANCH  20  25
ATOM     25  O   UNL     1       1.343  11.245  18.884  0.00  0.00    +0.000 OA
ATOM     26  H   UNL     1       0.939  10.381  18.676  0.00  0.00    +0.000 HD
ENDBRANCH  20  25
BRANCH  20  27
ATOM     27  C   UNL     1      -0.905  11.783  18.371  0.00  0.00    +0.000 C 
ATOM     28  C   UNL     1      -1.860  11.507  17.690  0.00  0.00    +0.000 C 
BRANCH  28  29
ATOM     29  C   UNL     1      -3.012  11.187  16.898  0.00  0.00    +0.000 C 
ATOM     30  C   UNL     1      -2.810  10.809  15.455  0.00  0.00    +0.000 C 
ATOM     31  C   UNL     1      -3.233   9.766  16.450  0.00  0.00    +0.000 C 
ENDBRANCH  28  29
ENDBRANCH  20  27
ENDBRANCH   7  20
TORSDOF 8
ENDMDL
MODEL 9
REMARK VINA RESULT:      -7.7      2.050      2.746
REMARK  Name = 
REMARK  9 active torsions:
REMARK  status: ('A' for Active; 'I' for Inactive)
REMARK    1  A    between atoms: C_1  and  O_2
REMARK    2  A    between atoms: O_2  and  C_3
REMARK    3  A    between atoms: C_6  and  C_7
REMARK    4  A    between atoms: N_9  and  C_10
REMARK    5  A    between atoms: C_16  and  C_17
REMARK    6  A    between atoms: C_17  and  O_18
REMARK    7  A    between atoms: C_17  and  C_19
REMARK    8  A    between atoms: C_17  and  C_24
REMARK    9  A    between atoms: C_20  and  C_21
REMARK                            x       y       z     vdW  Elec       q    Type
REMARK                         _______ _______ _______ _____ _____    ______ ____
ROOT
ATOM      1  C   UNL     1      -0.103   9.237  21.284  0.00  0.00    +0.000 A 
ATOM      2  C   UNL     1      -0.696   9.258  22.561  0.00  0.00    +0.000 A 
ATOM      3  C   UNL     1      -1.020  10.459  23.188  0.00  0.00    +0.000 A 
ATOM      4  C   UNL     1      -0.753  11.656  22.540  0.00  0.00    +0.000 A 
ATOM      5 CL   UNL     1      -1.191  13.143  23.284  0.00  0.00    +0.000 Cl
ATOM      6  C   UNL     1      -0.163  11.657  21.273  0.00  0.00    +0.000 A 
ATOM      7  C   UNL     1       0.178  10.449  20.606  0.00  0.00    +0.000 A 
ENDROOT
BRANCH   1  10
ATOM      8  C   UNL     1       1.495   7.429  20.872  0.00  0.00    +0.000 C 
ATOM      9  O   UNL     1       2.386   7.925  21.555  0.00  0.00    +0.000 OA
ATOM     10  N   UNL     1       0.218   7.966  20.742  0.00  0.00    +0.000 N 
ATOM     11  H   UNL     1      -0.540   7.286  20.712  0.00  0.00    +0.000 HD
BRANCH   8  15
ATOM     12  C   UNL     1       2.131   3.730  18.764  0.00  0.00    +0.000 A 
ATOM     13  C   UNL     1       2.631   4.934  18.269  0.00  0.00    +0.000 A 
ATOM     14  C   UNL     1       2.451   6.125  18.981  0.00  0.00    +0.000 A 
ATOM     15  C   UNL     1       1.753   6.124  20.196  0.00  0.00    +0.000 A 
ATOM     16  C   UNL     1       1.225   4.922  20.680  0.00  0.00    +0.000 A 
ATOM     17  C   UNL     1       1.411   3.729  19.962  0.00  0.00    +0.000 A 
BRANCH  12  19
ATOM     18  C   UNL     1       3.414   1.777  18.394  0.00  0.00    +0.000 C 
ATOM     19  O   UNL     1       2.360   2.637  17.974  0.00  0.00    +0.000 OA
ENDBRANCH  12  19
ENDBRANCH   8  15
ENDBRANCH   1  10
BRANCH   7  20
ATOM     20  C   UNL     1       0.626  10.542  19.127  0.00  0.00    +0.000 C 
BRANCH  20  21
ATOM     21  C   UNL     1       1.329  11.908  18.738  0.00  0.00    +0.000 C 
ATOM     22  F   UNL     1       0.462  12.847  18.290  0.00  0.00    +0.000 F 
ATOM     23  F   UNL     1       1.976  12.459  19.801  0.00  0.00    +0.000 F 
ATOM     24  F   UNL     1       2.266  11.756  17.767  0.00  0.00    +0.000 F 
ENDBRANCH  20  21
BRANCH  20  25
ATOM     25  O   UNL     1       1.535   9.444  18.843  0.00  0.00    +0.000 OA
ATOM     26  H   UNL     1       0.973   8.654  18.734  0.00  0.00    +0.000 HD
ENDBRANCH  20  25
BRANCH  20  27
ATOM     27  C   UNL     1      -0.576  10.346  18.264  0.00  0.00    +0.000 C 
ATOM     28  C   UNL     1      -1.559  10.148  17.595  0.00  0.00    +0.000 C 
BRANCH  28  29
ATOM     29  C   UNL     1      -2.738   9.901  16.818  0.00  0.00    +0.000 C 
ATOM     30  C   UNL     1      -3.643  11.060  16.496  0.00  0.00    +0.000 C 
ATOM     31  C   UNL     1      -2.822  10.427  15.409  0.00  0.00    +0.000 C 
ENDBRANCH  28  29
ENDBRANCH  20  27
ENDBRANCH   7  20
TORSDOF 8
ENDMDL
