MODEL 1
REMARK VINA RESULT:      -7.3      0.000      0.000
REMARK  Name = 
REMARK  8 active torsions:
REMARK  status: ('A' for Active; 'I' for Inactive)
REMARK    1  A    between atoms: C_1  and  C_2
REMARK    2  A    between atoms: C_2  and  O_3
REMARK    3  A    between atoms: O_3  and  C_4
REMARK    4  A    between atoms: C_4  and  C_6
REMARK    5  A    between atoms: C_6  and  C_7
REMARK    6  A    between atoms: N_11  and  C_12
REMARK    7  A    between atoms: C_12  and  N_14
REMARK    8  A    between atoms: C_15  and  C_17
REMARK                            x       y       z     vdW  Elec       q    Type
REMARK                         _______ _______ _______ _____ _____    ______ ____
ROOT
ATOM      1  C   UNL     1       5.782   5.580  16.578  0.00  0.00    +0.000 A 
ATOM      2  C   UNL     1       6.984   5.747  17.239  0.00  0.00    +0.000 A 
ATOM      3  S   UNL     1       6.724   5.698  18.938  0.00  0.00    +0.000 S 
ATOM      4  C   UNL     1       5.057   5.466  18.656  0.00  0.00    +0.000 A 
ATOM      5  N   UNL     1       4.291   5.380  19.784  0.00  0.00    +0.000 N 
ATOM      6  N   UNL     1       4.688   5.397  17.405  0.00  0.00    +0.000 NA
ATOM      7  H   UNL     1       4.794   5.465  20.666  0.00  0.00    +0.000 HD
ENDROOT
BRANCH   5   8
ATOM      8  C   UNL     1       2.931   5.205  19.842  0.00  0.00    +0.000 C 
ATOM      9  S   UNL     1       2.010   3.850  19.496  0.00  0.00    +0.000 S 
BRANCH   8  10
ATOM     10  N   UNL     1       2.220   6.318  20.269  0.00  0.00    +0.000 N 
ATOM     11  C   UNL     1       2.036   7.516  19.595  0.00  0.00    +0.000 C 
ATOM     12  O   UNL     1       2.435   7.707  18.448  0.00  0.00    +0.000 OA
ATOM     13  H   UNL     1       1.892   6.232  21.220  0.00  0.00    +0.000 HD
BRANCH  11  14
ATOM     14  C   UNL     1       1.363   8.613  20.339  0.00  0.00    +0.000 A 
ATOM     15  C   UNL     1       1.191   8.431  21.718  0.00  0.00    +0.000 A 
ATOM     16  C   UNL     1       0.550   9.403  22.484  0.00  0.00    +0.000 A 
ATOM     17  C   UNL     1       0.086  10.567  21.879  0.00  0.00    +0.000 A 
ATOM     18  C   UNL     1       0.270  10.765  20.508  0.00  0.00    +0.000 A 
ATOM     19  C   UNL     1       0.911   9.794  19.735  0.00  0.00    +0.000 A 
ENDBRANCH  11  14
ENDBRANCH   8  10
ENDBRANCH   5   8
BRANCH   1  20
ATOM     20  C   UNL     1       5.535   5.591  15.108  0.00  0.00    +0.000 C 
BRANCH  20  21
ATOM     21  C   UNL     1       6.670   4.912  14.378  0.00  0.00    +0.000 C 
ATOM     22  O   UNL     1       7.788   5.381  14.209  0.00  0.00    +0.000 OA
BRANCH  21  23
ATOM     23  O   UNL     1       6.260   3.688  13.932  0.00  0.00    +0.000 OA
BRANCH  23  25
ATOM     24  C   UNL     1       4.919   3.373  11.979  0.00  0.00    +0.000 C 
ATOM     25  C   UNL     1       6.334   3.499  12.513  0.00  0.00    +0.000 C 
ENDBRANCH  23  25
ENDBRANCH  21  23
ENDBRANCH  20  21
ENDBRANCH   1  20
TORSDOF 7
ENDMDL
MODEL 2
REMARK VINA RESULT:      -7.2      2.610      4.269
REMARK  Name = 
REMARK  8 active torsions:
REMARK  status: ('A' for Active; 'I' for Inactive)
REMARK    1  A    between atoms: C_1  and  C_2
REMARK    2  A    between atoms: C_2  and  O_3
REMARK    3  A    between atoms: O_3  and  C_4
REMARK    4  A    between atoms: C_4  and  C_6
REMARK    5  A    between atoms: C_6  and  C_7
REMARK    6  A    between atoms: N_11  and  C_12
REMARK    7  A    between atoms: C_12  and  N_14
REMARK    8  A    between atoms: C_15  and  C_17
REMARK                            x       y       z     vdW  Elec       q    Type
REMARK                         _______ _______ _______ _____ _____    ______ ____
ROOT
ATOM      1  C   UNL     1       6.819   5.384  17.447  0.00  0.00    +0.000 A 
ATOM      2  C   UNL     1       7.275   4.768  16.296  0.00  0.00    +0.000 A 
ATOM      3  S   UNL     1       6.005   3.851  15.586  0.00  0.00    +0.000 S 
ATOM      4  C   UNL     1       4.971   4.340  16.853  0.00  0.00    +0.000 A 
ATOM      5  N   UNL     1       3.708   3.824  16.793  0.00  0.00    +0.000 N 
ATOM      6  N   UNL     1       5.488   5.147  17.740  0.00  0.00    +0.000 NA
ATOM      7  H   UNL     1       3.521   3.206  16.005  0.00  0.00    +0.000 HD
ENDROOT
BRANCH   5   8
ATOM      8  C   UNL     1       2.687   4.045  17.683  0.00  0.00    +0.000 C 
ATOM      9  S   UNL     1       1.744   2.947  18.526  0.00  0.00    +0.000 S 
BRANCH   8  10
ATOM     10  N   UNL     1       2.411   5.383  17.930  0.00  0.00    +0.000 N 
ATOM     11  C   UNL     1       2.578   6.077  19.119  0.00  0.00    +0.000 C 
ATOM     12  O   UNL     1       3.092   5.581  20.118  0.00  0.00    +0.000 OA
ATOM     13  H   UNL     1       1.957   5.839  17.152  0.00  0.00    +0.000 HD
BRANCH  11  14
ATOM     14  C   UNL     1       2.057   7.469  19.167  0.00  0.00    +0.000 A 
ATOM     15  C   UNL     1       2.208   8.243  18.007  0.00  0.00    +0.000 A 
ATOM     16  C   UNL     1       1.766   9.564  17.978  0.00  0.00    +0.000 A 
ATOM     17  C   UNL     1       1.161  10.118  19.102  0.00  0.00    +0.000 A 
ATOM     18  C   UNL     1       0.990   9.348  20.256  0.00  0.00    +0.000 A 
ATOM     19  C   UNL     1       1.432   8.023  20.291  0.00  0.00    +0.000 A 
ENDBRANCH  11  14
ENDBRANCH   8  10
ENDBRANCH   5   8
BRANCH   1  20
ATOM     20  C   UNL     1       7.587   6.242  18.392  0.00  0.00    +0.000 C 
BRANCH  20  21
ATOM     21  C   UNL     1       7.769   7.627  17.820  0.00  0.00    +0.000 C 
ATOM     22  O   UNL     1       7.152   8.091  16.869  0.00  0.00    +0.000 OA
BRANCH  21  23
ATOM     23  O   UNL     1       8.732   8.292  18.525  0.00  0.00    +0.000 OA
BRANCH  23  25
ATOM     24  C   UNL     1       9.312  10.350  19.592  0.00  0.00    +0.000 C 
ATOM     25  C   UNL     1       8.762   9.711  18.329  0.00  0.00    +0.000 C 
ENDBRANCH  23  25
ENDBRANCH  21  23
ENDBRANCH  20  21
ENDBRANCH   1  20
TORSDOF 7
ENDMDL
MODEL 3
REMARK VINA RESULT:      -7.0      3.449      7.836
REMARK  Name = 
REMARK  8 active torsions:
REMARK  status: ('A' for Active; 'I' for Inactive)
REMARK    1  A    between atoms: C_1  and  C_2
REMARK    2  A    between atoms: C_2  and  O_3
REMARK    3  A    between atoms: O_3  and  C_4
REMARK    4  A    between atoms: C_4  and  C_6
REMARK    5  A    between atoms: C_6  and  C_7
REMARK    6  A    between atoms: N_11  and  C_12
REMARK    7  A    between atoms: C_12  and  N_14
REMARK    8  A    between atoms: C_15  and  C_17
REMARK                            x       y       z     vdW  Elec       q    Type
REMARK                         _______ _______ _______ _____ _____    ______ ____
ROOT
ATOM      1  C   UNL     1       2.638   4.525  17.724  0.00  0.00    +0.000 A 
ATOM      2  C   UNL     1       1.767   5.379  18.375  0.00  0.00    +0.000 A 
ATOM      3  S   UNL     1       2.511   6.914  18.591  0.00  0.00    +0.000 S 
ATOM      4  C   UNL     1       3.912   6.322  17.817  0.00  0.00    +0.000 A 
ATOM      5  N   UNL     1       4.941   7.216  17.732  0.00  0.00    +0.000 N 
ATOM      6  N   UNL     1       3.857   5.089  17.390  0.00  0.00    +0.000 NA
ATOM      7  H   UNL     1       4.763   8.133  18.140  0.00  0.00    +0.000 HD
ENDROOT
BRANCH   5   8
ATOM      8  C   UNL     1       6.175   6.998  17.171  0.00  0.00    +0.000 C 
ATOM      9  S   UNL     1       7.693   7.449  17.715  0.00  0.00    +0.000 S 
BRANCH   8  10
ATOM     10  N   UNL     1       6.154   6.281  15.983  0.00  0.00    +0.000 N 
ATOM     11  C   UNL     1       6.861   5.128  15.677  0.00  0.00    +0.000 C 
ATOM     12  O   UNL     1       7.560   4.534  16.494  0.00  0.00    +0.000 OA
ATOM     13  H   UNL     1       5.617   6.738  15.260  0.00  0.00    +0.000 HD
BRANCH  11  14
ATOM     14  C   UNL     1       6.784   4.642  14.274  0.00  0.00    +0.000 A 
ATOM     15  C   UNL     1       7.688   5.201  13.359  0.00  0.00    +0.000 A 
ATOM     16  C   UNL     1       7.666   4.815  12.020  0.00  0.00    +0.000 A 
ATOM     17  C   UNL     1       6.750   3.860  11.589  0.00  0.00    +0.000 A 
ATOM     18  C   UNL     1       5.859   3.284  12.497  0.00  0.00    +0.000 A 
ATOM     19  C   UNL     1       5.875   3.668  13.840  0.00  0.00    +0.000 A 
ENDBRANCH  11  14
ENDBRANCH   8  10
ENDBRANCH   5   8
BRANCH   1  20
ATOM     20  C   UNL     1       2.423   3.095  17.365  0.00  0.00    +0.000 C 
BRANCH  20  21
ATOM     21  C   UNL     1       1.602   2.402  18.426  0.00  0.00    +0.000 C 
ATOM     22  O   UNL     1       0.400   2.178  18.361  0.00  0.00    +0.000 OA
BRANCH  21  23
ATOM     23  O   UNL     1       2.405   2.060  19.476  0.00  0.00    +0.000 OA
BRANCH  23  25
ATOM     24  C   UNL     1       4.665   2.081  20.253  0.00  0.00    +0.000 C 
ATOM     25  C   UNL     1       3.738   1.669  19.123  0.00  0.00    +0.000 C 
ENDBRANCH  23  25
ENDBRANCH  21  23
ENDBRANCH  20  21
ENDBRANCH   1  20
TORSDOF 7
ENDMDL
MODEL 4
REMARK VINA RESULT:      -6.9      1.051      1.579
REMARK  Name = 
REMARK  8 active torsions:
REMARK  status: ('A' for Active; 'I' for Inactive)
REMARK    1  A    between atoms: C_1  and  C_2
REMARK    2  A    between atoms: C_2  and  O_3
REMARK    3  A    between atoms: O_3  and  C_4
REMARK    4  A    between atoms: C_4  and  C_6
REMARK    5  A    between atoms: C_6  and  C_7
REMARK    6  A    between atoms: N_11  and  C_12
REMARK    7  A    between atoms: C_12  and  N_14
REMARK    8  A    between atoms: C_15  and  C_17
REMARK                            x       y       z     vdW  Elec       q    Type
REMARK                         _______ _______ _______ _____ _____    ______ ____
ROOT
ATOM      1  C   UNL     1       6.431   4.409  17.029  0.00  0.00    +0.000 A 
ATOM      2  C   UNL     1       7.529   4.894  17.717  0.00  0.00    +0.000 A 
ATOM      3  S   UNL     1       7.034   5.489  19.252  0.00  0.00    +0.000 S 
ATOM      4  C   UNL     1       5.425   5.062  18.879  0.00  0.00    +0.000 A 
ATOM      5  N   UNL     1       4.511   5.370  19.845  0.00  0.00    +0.000 N 
ATOM      6  N   UNL     1       5.235   4.491  17.719  0.00  0.00    +0.000 NA
ATOM      7  H   UNL     1       4.885   5.820  20.678  0.00  0.00    +0.000 HD
ENDROOT
BRANCH   5   8
ATOM      8  C   UNL     1       3.158   5.145  19.798  0.00  0.00    +0.000 C 
ATOM      9  S   UNL     1       2.313   3.701  19.721  0.00  0.00    +0.000 S 
BRANCH   8  10
ATOM     10  N   UNL     1       2.377   6.293  19.835  0.00  0.00    +0.000 N 
ATOM     11  C   UNL     1       2.429   7.382  18.979  0.00  0.00    +0.000 C 
ATOM     12  O   UNL     1       3.157   7.422  17.989  0.00  0.00    +0.000 OA
ATOM     13  H   UNL     1       1.778   6.331  20.648  0.00  0.00    +0.000 HD
BRANCH  11  14
ATOM     14  C   UNL     1       1.590   8.558  19.330  0.00  0.00    +0.000 A 
ATOM     15  C   UNL     1       1.278   9.447  18.292  0.00  0.00    +0.000 A 
ATOM     16  C   UNL     1       0.514  10.585  18.543  0.00  0.00    +0.000 A 
ATOM     17  C   UNL     1       0.048  10.837  19.829  0.00  0.00    +0.000 A 
ATOM     18  C   UNL     1       0.338   9.947  20.866  0.00  0.00    +0.000 A 
ATOM     19  C   UNL     1       1.105   8.805  20.621  0.00  0.00    +0.000 A 
ENDBRANCH  11  14
ENDBRANCH   8  10
ENDBRANCH   5   8
BRANCH   1  20
ATOM     20  C   UNL     1       6.391   3.835  15.655  0.00  0.00    +0.000 C 
BRANCH  20  21
ATOM     21  C   UNL     1       5.725   4.797  14.700  0.00  0.00    +0.000 C 
ATOM     22  O   UNL     1       5.646   6.010  14.852  0.00  0.00    +0.000 OA
BRANCH  21  23
ATOM     23  O   UNL     1       5.221   4.109  13.633  0.00  0.00    +0.000 OA
BRANCH  23  25
ATOM     24  C   UNL     1       5.487   2.683  11.734  0.00  0.00    +0.000 C 
ATOM     25  C   UNL     1       6.201   3.577  12.732  0.00  0.00    +0.000 C 
ENDBRANCH  23  25
ENDBRANCH  21  23
ENDBRANCH  20  21
ENDBRANCH   1  20
TORSDOF 7
ENDMDL
MODEL 5
REMARK VINA RESULT:      -6.9      1.815      7.902
REMARK  Name = 
REMARK  8 active torsions:
REMARK  status: ('A' for Active; 'I' for Inactive)
REMARK    1  A    between atoms: C_1  and  C_2
REMARK    2  A    between atoms: C_2  and  O_3
REMARK    3  A    between atoms: O_3  and  C_4
REMARK    4  A    between atoms: C_4  and  C_6
REMARK    5  A    between atoms: C_6  and  C_7
REMARK    6  A    between atoms: N_11  and  C_12
REMARK    7  A    between atoms: C_12  and  N_14
REMARK    8  A    between atoms: C_15  and  C_17
REMARK                            x       y       z     vdW  Elec       q    Type
REMARK                         _______ _______ _______ _____ _____    ______ ____
ROOT
ATOM      1  C   UNL     1       2.799   6.031  19.601  0.00  0.00    +0.000 A 
ATOM      2  C   UNL     1       2.156   4.861  19.963  0.00  0.00    +0.000 A 
ATOM      3  S   UNL     1       3.204   3.521  19.711  0.00  0.00    +0.000 S 
ATOM      4  C   UNL     1       4.406   4.592  19.144  0.00  0.00    +0.000 A 
ATOM      5  N   UNL     1       5.564   3.992  18.740  0.00  0.00    +0.000 N 
ATOM      6  N   UNL     1       4.098   5.861  19.155  0.00  0.00    +0.000 NA
ATOM      7  H   UNL     1       5.585   2.977  18.817  0.00  0.00    +0.000 HD
ENDROOT
BRANCH   5   8
ATOM      8  C   UNL     1       6.679   4.614  18.237  0.00  0.00    +0.000 C 
ATOM      9  S   UNL     1       7.853   5.512  19.025  0.00  0.00    +0.000 S 
BRANCH   8  10
ATOM     10  N   UNL     1       6.864   4.459  16.870  0.00  0.00    +0.000 N 
ATOM     11  C   UNL     1       6.440   5.303  15.855  0.00  0.00    +0.000 C 
ATOM     12  O   UNL     1       5.893   6.383  16.067  0.00  0.00    +0.000 OA
ATOM     13  H   UNL     1       7.284   3.571  16.630  0.00  0.00    +0.000 HD
BRANCH  11  14
ATOM     14  C   UNL     1       6.627   4.829  14.459  0.00  0.00    +0.000 A 
ATOM     15  C   UNL     1       5.716   3.873  13.986  0.00  0.00    +0.000 A 
ATOM     16  C   UNL     1       5.836   3.361  12.696  0.00  0.00    +0.000 A 
ATOM     17  C   UNL     1       6.859   3.808  11.866  0.00  0.00    +0.000 A 
ATOM     18  C   UNL     1       7.760   4.773  12.321  0.00  0.00    +0.000 A 
ATOM     19  C   UNL     1       7.646   5.289  13.615  0.00  0.00    +0.000 A 
ENDBRANCH  11  14
ENDBRANCH   8  10
ENDBRANCH   5   8
BRANCH   1  20
ATOM     20  C   UNL     1       2.257   7.418  19.623  0.00  0.00    +0.000 C 
BRANCH  20  21
ATOM     21  C   UNL     1       2.362   8.047  18.254  0.00  0.00    +0.000 C 
ATOM     22  O   UNL     1       3.280   7.877  17.461  0.00  0.00    +0.000 OA
BRANCH  21  23
ATOM     23  O   UNL     1       1.272   8.839  18.028  0.00  0.00    +0.000 OA
BRANCH  23  25
ATOM     24  C   UNL     1      -0.370  10.174  19.137  0.00  0.00    +0.000 C 
ATOM     25  C   UNL     1       1.116   9.935  18.938  0.00  0.00    +0.000 C 
ENDBRANCH  23  25
ENDBRANCH  21  23
ENDBRANCH  20  21
ENDBRANCH   1  20
TORSDOF 7
ENDMDL
MODEL 6
REMARK VINA RESULT:      -6.8      0.511      1.227
REMARK  Name = 
REMARK  8 active torsions:
REMARK  status: ('A' for Active; 'I' for Inactive)
REMARK    1  A    between atoms: C_1  and  C_2
REMARK    2  A    between atoms: C_2  and  O_3
REMARK    3  A    between atoms: O_3  and  C_4
REMARK    4  A    between atoms: C_4  and  C_6
REMARK    5  A    between atoms: C_6  and  C_7
REMARK    6  A    between atoms: N_11  and  C_12
REMARK    7  A    between atoms: C_12  and  N_14
REMARK    8  A    between atoms: C_15  and  C_17
REMARK                            x       y       z     vdW  Elec       q    Type
REMARK                         _______ _______ _______ _____ _____    ______ ____
ROOT
ATOM      1  C   UNL     1       5.902   5.607  16.751  0.00  0.00    +0.000 A 
ATOM      2  C   UNL     1       7.060   5.733  17.497  0.00  0.00    +0.000 A 
ATOM      3  S   UNL     1       6.683   5.649  19.172  0.00  0.00    +0.000 S 
ATOM      4  C   UNL     1       5.035   5.459  18.773  0.00  0.00    +0.000 A 
ATOM      5  N   UNL     1       4.193   5.362  19.844  0.00  0.00    +0.000 N 
ATOM      6  N   UNL     1       4.751   5.427  17.498  0.00  0.00    +0.000 NA
ATOM      7  H   UNL     1       4.636   5.416  20.759  0.00  0.00    +0.000 HD
ENDROOT
BRANCH   5   8
ATOM      8  C   UNL     1       2.829   5.215  19.805  0.00  0.00    +0.000 C 
ATOM      9  S   UNL     1       1.906   3.914  19.294  0.00  0.00    +0.000 S 
BRANCH   8  10
ATOM     10  N   UNL     1       2.113   6.306  20.278  0.00  0.00    +0.000 N 
ATOM     11  C   UNL     1       1.994   7.559  19.696  0.00  0.00    +0.000 C 
ATOM     12  O   UNL     1       2.469   7.834  18.596  0.00  0.00    +0.000 OA
ATOM     13  H   UNL     1       1.723   6.149  21.197  0.00  0.00    +0.000 HD
BRANCH  11  14
ATOM     14  C   UNL     1       1.296   8.607  20.485  0.00  0.00    +0.000 A 
ATOM     15  C   UNL     1       0.853   9.738  19.785  0.00  0.00    +0.000 A 
ATOM     16  C   UNL     1       0.209  10.776  20.456  0.00  0.00    +0.000 A 
ATOM     17  C   UNL     1      -0.007  10.686  21.828  0.00  0.00    +0.000 A 
ATOM     18  C   UNL     1       0.415   9.554  22.530  0.00  0.00    +0.000 A 
ATOM     19  C   UNL     1       1.063   8.511  21.863  0.00  0.00    +0.000 A 
ENDBRANCH  11  14
ENDBRANCH   8  10
ENDBRANCH   5   8
BRANCH   1  20
ATOM     20  C   UNL     1       5.756   5.658  15.269  0.00  0.00    +0.000 C 
BRANCH  20  21
ATOM     21  C   UNL     1       6.053   4.306  14.663  0.00  0.00    +0.000 C 
ATOM     22  O   UNL     1       6.008   3.236  15.256  0.00  0.00    +0.000 OA
BRANCH  21  23
ATOM     23  O   UNL     1       6.382   4.457  13.346  0.00  0.00    +0.000 OA
BRANCH  23  25
ATOM     24  C   UNL     1       4.869   3.369  11.849  0.00  0.00    +0.000 C 
ATOM     25  C   UNL     1       6.219   3.284  12.538  0.00  0.00    +0.000 C 
ENDBRANCH  23  25
ENDBRANCH  21  23
ENDBRANCH  20  21
ENDBRANCH   1  20
TORSDOF 7
ENDMDL
MODEL 7
REMARK VINA RESULT:      -6.8      2.334      7.781
REMARK  Name = 
REMARK  8 active torsions:
REMARK  status: ('A' for Active; 'I' for Inactive)
REMARK    1  A    between atoms: C_1  and  C_2
REMARK    2  A    between atoms: C_2  and  O_3
REMARK    3  A    between atoms: O_3  and  C_4
REMARK    4  A    between atoms: C_4  and  C_6
REMARK    5  A    between atoms: C_6  and  C_7
REMARK    6  A    between atoms: N_11  and  C_12
REMARK    7  A    between atoms: C_12  and  N_14
REMARK    8  A    between atoms: C_15  and  C_17
REMARK                            x       y       z     vdW  Elec       q    Type
REMARK                         _______ _______ _______ _____ _____    ______ ____
ROOT
ATOM      1  C   UNL     1       3.091   4.592  19.885  0.00  0.00    +0.000 A 
ATOM      2  C   UNL     1       3.028   3.269  20.283  0.00  0.00    +0.000 A 
ATOM      3  S   UNL     1       4.487   2.465  19.854  0.00  0.00    +0.000 S 
ATOM      4  C   UNL     1       5.069   3.921  19.181  0.00  0.00    +0.000 A 
ATOM      5  N   UNL     1       6.309   3.834  18.614  0.00  0.00    +0.000 N 
ATOM      6  N   UNL     1       4.278   4.956  19.275  0.00  0.00    +0.000 NA
ATOM      7  H   UNL     1       6.748   2.916  18.652  0.00  0.00    +0.000 HD
ENDROOT
BRANCH   5   8
ATOM      8  C   UNL     1       7.002   4.846  17.998  0.00  0.00    +0.000 C 
ATOM      9  S   UNL     1       7.738   6.197  18.659  0.00  0.00    +0.000 S 
BRANCH   8  10
ATOM     10  N   UNL     1       7.121   4.714  16.621  0.00  0.00    +0.000 N 
ATOM     11  C   UNL     1       6.248   5.174  15.647  0.00  0.00    +0.000 C 
ATOM     12  O   UNL     1       5.258   5.856  15.903  0.00  0.00    +0.000 OA
ATOM     13  H   UNL     1       7.903   4.135  16.350  0.00  0.00    +0.000 HD
BRANCH  11  14
ATOM     14  C   UNL     1       6.524   4.764  14.245  0.00  0.00    +0.000 A 
ATOM     15  C   UNL     1       5.660   3.816  13.679  0.00  0.00    +0.000 A 
ATOM     16  C   UNL     1       5.863   3.364  12.377  0.00  0.00    +0.000 A 
ATOM     17  C   UNL     1       6.925   3.863  11.628  0.00  0.00    +0.000 A 
ATOM     18  C   UNL     1       7.780   4.822  12.177  0.00  0.00    +0.000 A 
ATOM     19  C   UNL     1       7.581   5.278  13.483  0.00  0.00    +0.000 A 
ENDBRANCH  11  14
ENDBRANCH   8  10
ENDBRANCH   5   8
BRANCH   1  20
ATOM     20  C   UNL     1       2.041   5.640  20.023  0.00  0.00    +0.000 C 
BRANCH  20  21
ATOM     21  C   UNL     1       1.967   6.480  18.770  0.00  0.00    +0.000 C 
ATOM     22  O   UNL     1       1.655   6.073  17.658  0.00  0.00    +0.000 OA
BRANCH  21  23
ATOM     23  O   UNL     1       2.301   7.772  19.064  0.00  0.00    +0.000 OA
BRANCH  23  25
ATOM     24  C   UNL     1       1.593   9.683  17.816  0.00  0.00    +0.000 C 
ATOM     25  C   UNL     1       2.637   8.587  17.934  0.00  0.00    +0.000 C 
ENDBRANCH  23  25
ENDBRANCH  21  23
ENDBRANCH  20  21
ENDBRANCH   1  20
TORSDOF 7
ENDMDL
MODEL 8
REMARK VINA RESULT:      -6.7      1.087      1.301
REMARK  Name = 
REMARK  8 active torsions:
REMARK  status: ('A' for Active; 'I' for Inactive)
REMARK    1  A    between atoms: C_1  and  C_2
REMARK    2  A    between atoms: C_2  and  O_3
REMARK    3  A    between atoms: O_3  and  C_4
REMARK    4  A    between atoms: C_4  and  C_6
REMARK    5  A    between atoms: C_6  and  C_7
REMARK    6  A    between atoms: N_11  and  C_12
REMARK    7  A    between atoms: C_12  and  N_14
REMARK    8  A    between atoms: C_15  and  C_17
REMARK                            x       y       z     vdW  Elec       q    Type
REMARK                         _______ _______ _______ _____ _____    ______ ____
ROOT
ATOM      1  C   UNL     1       6.543   4.558  17.079  0.00  0.00    +0.000 A 
ATOM      2  C   UNL     1       7.626   4.978  17.831  0.00  0.00    +0.000 A 
ATOM      3  S   UNL     1       7.091   5.485  19.384  0.00  0.00    +0.000 S 
ATOM      4  C   UNL     1       5.488   5.114  18.932  0.00  0.00    +0.000 A 
ATOM      5  N   UNL     1       4.547   5.379  19.887  0.00  0.00    +0.000 N 
ATOM      6  N   UNL     1       5.326   4.620  17.734  0.00  0.00    +0.000 NA
ATOM      7  H   UNL     1       4.902   5.770  20.758  0.00  0.00    +0.000 HD
ENDROOT
BRANCH   5   8
ATOM      8  C   UNL     1       3.193   5.186  19.781  0.00  0.00    +0.000 C 
ATOM      9  S   UNL     1       2.322   3.761  19.643  0.00  0.00    +0.000 S 
BRANCH   8  10
ATOM     10  N   UNL     1       2.435   6.348  19.811  0.00  0.00    +0.000 N 
ATOM     11  C   UNL     1       2.426   7.378  18.883  0.00  0.00    +0.000 C 
ATOM     12  O   UNL     1       3.062   7.338  17.832  0.00  0.00    +0.000 OA
ATOM     13  H   UNL     1       1.912   6.452  20.669  0.00  0.00    +0.000 HD
BRANCH  11  14
ATOM     14  C   UNL     1       1.639   8.591  19.228  0.00  0.00    +0.000 A 
ATOM     15  C   UNL     1       1.191   8.701  20.552  0.00  0.00    +0.000 A 
ATOM     16  C   UNL     1       0.428   9.797  20.950  0.00  0.00    +0.000 A 
ATOM     17  C   UNL     1       0.117  10.795  20.032  0.00  0.00    +0.000 A 
ATOM     18  C   UNL     1       0.575  10.703  18.715  0.00  0.00    +0.000 A 
ATOM     19  C   UNL     1       1.339   9.606  18.310  0.00  0.00    +0.000 A 
ENDBRANCH  11  14
ENDBRANCH   8  10
ENDBRANCH   5   8
BRANCH   1  20
ATOM     20  C   UNL     1       6.539   4.071  15.670  0.00  0.00    +0.000 C 
BRANCH  20  21
ATOM     21  C   UNL     1       5.767   5.021  14.787  0.00  0.00    +0.000 C 
ATOM     22  O   UNL     1       5.592   6.213  15.005  0.00  0.00    +0.000 OA
BRANCH  21  23
ATOM     23  O   UNL     1       5.289   4.348  13.698  0.00  0.00    +0.000 OA
BRANCH  23  25
ATOM     24  C   UNL     1       6.982   4.106  12.029  0.00  0.00    +0.000 C 
ATOM     25  C   UNL     1       6.196   3.401  13.120  0.00  0.00    +0.000 C 
ENDBRANCH  23  25
ENDBRANCH  21  23
ENDBRANCH  20  21
ENDBRANCH   1  20
TORSDOF 7
ENDMDL
MODEL 9
REMARK VINA RESULT:      -6.7      1.805      7.909
REMARK  Name = 
REMARK  8 active torsions:
REMARK  status: ('A' for Active; 'I' for Inactive)
REMARK    1  A    between atoms: C_1  and  C_2
REMARK    2  A    between atoms: C_2  and  O_3
REMARK    3  A    between atoms: O_3  and  C_4
REMARK    4  A    between atoms: C_4  and  C_6
REMARK    5  A    between atoms: C_6  and  C_7
REMARK    6  A    between atoms: N_11  and  C_12
REMARK    7  A    between atoms: C_12  and  N_14
REMARK    8  A    between atoms: C_15  and  C_17
REMARK                            x       y       z     vdW  Elec       q    Type
REMARK                         _______ _______ _______ _____ _____    ______ ____
ROOT
ATOM      1  C   UNL     1       2.772   6.006  19.692  0.00  0.00    +0.000 A 
ATOM      2  C   UNL     1       2.162   4.812  20.031  0.00  0.00    +0.000 A 
ATOM      3  S   UNL     1       3.232   3.504  19.716  0.00  0.00    +0.000 S 
ATOM      4  C   UNL     1       4.399   4.618  19.159  0.00  0.00    +0.000 A 
ATOM      5  N   UNL     1       5.561   4.055  18.713  0.00  0.00    +0.000 N 
ATOM      6  N   UNL     1       4.064   5.879  19.214  0.00  0.00    +0.000 NA
ATOM      7  H   UNL     1       5.605   3.039  18.759  0.00  0.00    +0.000 HD
ENDROOT
BRANCH   5   8
ATOM      8  C   UNL     1       6.652   4.717  18.206  0.00  0.00    +0.000 C 
ATOM      9  S   UNL     1       7.806   5.640  18.994  0.00  0.00    +0.000 S 
BRANCH   8  10
ATOM     10  N   UNL     1       6.828   4.582  16.836  0.00  0.00    +0.000 N 
ATOM     11  C   UNL     1       6.023   5.082  15.825  0.00  0.00    +0.000 C 
ATOM     12  O   UNL     1       5.054   5.808  16.037  0.00  0.00    +0.000 OA
ATOM     13  H   UNL     1       7.595   3.968  16.599  0.00  0.00    +0.000 HD
BRANCH  11  14
ATOM     14  C   UNL     1       6.345   4.663  14.435  0.00  0.00    +0.000 A 
ATOM     15  C   UNL     1       7.453   5.273  13.830  0.00  0.00    +0.000 A 
ATOM     16  C   UNL     1       7.808   4.951  12.522  0.00  0.00    +0.000 A 
ATOM     17  C   UNL     1       7.066   4.011  11.813  0.00  0.00    +0.000 A 
ATOM     18  C   UNL     1       5.972   3.385  12.415  0.00  0.00    +0.000 A 
ATOM     19  C   UNL     1       5.610   3.704  13.726  0.00  0.00    +0.000 A 
ENDBRANCH  11  14
ENDBRANCH   8  10
ENDBRANCH   5   8
BRANCH   1  20
ATOM     20  C   UNL     1       2.201   7.381  19.766  0.00  0.00    +0.000 C 
BRANCH  20  21
ATOM     21  C   UNL     1       2.230   8.038  18.407  0.00  0.00    +0.000 C 
ATOM     22  O   UNL     1       3.137   7.942  17.590  0.00  0.00    +0.000 OA
BRANCH  21  23
ATOM     23  O   UNL     1       1.085   8.761  18.223  0.00  0.00    +0.000 OA
BRANCH  23  25
ATOM     24  C   UNL     1       1.628  11.066  18.541  0.00  0.00    +0.000 C 
ATOM     25  C   UNL     1       0.908   9.862  19.122  0.00  0.00    +0.000 C 
ENDBRANCH  23  25
ENDBRANCH  21  23
ENDBRANCH  20  21
ENDBRANCH   1  20
TORSDOF 7
ENDMDL
