MODEL 1
REMARK VINA RESULT:      -7.8      0.000      0.000
REMARK  Name = 
REMARK  9 active torsions:
REMARK  status: ('A' for Active; 'I' for Inactive)
REMARK    1  A    between atoms: O_1  and  C_2
REMARK    2  A    between atoms: C_2  and  C_3
REMARK    3  A    between atoms: C_8  and  O_9
REMARK    4  A    between atoms: O_9  and  C_10
REMARK    5  A    between atoms: C_10  and  C_11
REMARK    6  A    between atoms: C_11  and  C_12
REMARK    7  A    between atoms: C_12  and  N_13
REMARK    8  A    between atoms: C_16  and  C_17
REMARK    9  A    between atoms: C_17  and  C_18
REMARK                            x       y       z     vdW  Elec       q    Type
REMARK                         _______ _______ _______ _____ _____    ______ ____
ROOT
ATOM      1  C   UNL     1       7.872   7.244  18.329  0.00  0.00    +0.000 C 
ENDROOT
BRANCH   1   2
ATOM      2  N   UNL     1       7.150   6.202  17.578  0.00  0.00    +0.000 NA
ATOM      3  C   UNL     1       6.503   5.298  18.550  0.00  0.00    +0.000 C 
ATOM      4  C   UNL     1       5.645   4.226  17.881  0.00  0.00    +0.000 C 
ATOM      5  C   UNL     1       4.574   4.845  16.977  0.00  0.00    +0.000 C 
ATOM      6  C   UNL     1       5.300   5.732  15.952  0.00  0.00    +0.000 C 
ATOM      7  C   UNL     1       6.200   6.780  16.618  0.00  0.00    +0.000 C 
BRANCH   5   8
ATOM      8  C   UNL     1       3.499   5.659  17.739  0.00  0.00    +0.000 C 
BRANCH   8   9
ATOM      9  C   UNL     1       2.645   4.875  18.706  0.00  0.00    +0.000 A 
ATOM     10  C   UNL     1       2.643   5.200  20.072  0.00  0.00    +0.000 A 
ATOM     11  C   UNL     1       1.829   4.509  20.968  0.00  0.00    +0.000 A 
ATOM     12  C   UNL     1       1.002   3.490  20.510  0.00  0.00    +0.000 A 
ATOM     13  C   UNL     1       0.993   3.155  19.157  0.00  0.00    +0.000 A 
ATOM     14  C   UNL     1       1.810   3.845  18.257  0.00  0.00    +0.000 A 
ENDBRANCH   8   9
ENDBRANCH   5   8
ENDBRANCH   1   2
BRANCH   1  15
ATOM     15  C   UNL     1       8.144   8.551  17.574  0.00  0.00    +0.000 C 
BRANCH  15  16
ATOM     16  C   UNL     1       8.705   9.569  18.567  0.00  0.00    +0.000 C 
BRANCH  16  17
ATOM     17  O   UNL     1       8.804  10.854  17.966  0.00  0.00    +0.000 OA
BRANCH  17  23
ATOM     18  C   UNL     1       9.282  13.177  18.757  0.00  0.00    +0.000 A 
ATOM     19  C   UNL     1      10.135  13.945  19.579  0.00  0.00    +0.000 A 
ATOM     20  C   UNL     1      11.195  13.373  20.280  0.00  0.00    +0.000 A 
ATOM     21  C   UNL     1      11.437  12.012  20.167  0.00  0.00    +0.000 A 
ATOM     22  C   UNL     1      10.614  11.231  19.357  0.00  0.00    +0.000 A 
ATOM     23  C   UNL     1       9.544  11.796  18.642  0.00  0.00    +0.000 A 
BRANCH  18  24
ATOM     24  C   UNL     1       8.116  13.867  18.094  0.00  0.00    +0.000 C 
BRANCH  24  25
ATOM     25  O   UNL     1       7.721  13.254  16.869  0.00  0.00    +0.000 OA
ATOM     26  H   UNL     1       8.511  13.218  16.307  0.00  0.00    +0.000 HD
ENDBRANCH  24  25
ENDBRANCH  18  24
ENDBRANCH  17  23
ENDBRANCH  16  17
ENDBRANCH  15  16
ENDBRANCH   1  15
TORSDOF 9
ENDMDL
MODEL 2
REMARK VINA RESULT:      -7.7      1.062      1.136
REMARK  Name = 
REMARK  9 active torsions:
REMARK  status: ('A' for Active; 'I' for Inactive)
REMARK    1  A    between atoms: O_1  and  C_2
REMARK    2  A    between atoms: C_2  and  C_3
REMARK    3  A    between atoms: C_8  and  O_9
REMARK    4  A    between atoms: O_9  and  C_10
REMARK    5  A    between atoms: C_10  and  C_11
REMARK    6  A    between atoms: C_11  and  C_12
REMARK    7  A    between atoms: C_12  and  N_13
REMARK    8  A    between atoms: C_16  and  C_17
REMARK    9  A    between atoms: C_17  and  C_18
REMARK                            x       y       z     vdW  Elec       q    Type
REMARK                         _______ _______ _______ _____ _____    ______ ____
ROOT
ATOM      1  C   UNL     1       7.796   7.137  18.302  0.00  0.00    +0.000 C 
ENDROOT
BRANCH   1   2
ATOM      2  N   UNL     1       7.036   6.139  17.530  0.00  0.00    +0.000 NA
ATOM      3  C   UNL     1       6.439   5.178  18.480  0.00  0.00    +0.000 C 
ATOM      4  C   UNL     1       5.546   4.146  17.795  0.00  0.00    +0.000 C 
ATOM      5  C   UNL     1       4.430   4.815  16.986  0.00  0.00    +0.000 C 
ATOM      6  C   UNL     1       5.103   5.762  15.978  0.00  0.00    +0.000 C 
ATOM      7  C   UNL     1       6.037   6.771  16.656  0.00  0.00    +0.000 C 
BRANCH   5   8
ATOM      8  C   UNL     1       3.397   5.580  17.849  0.00  0.00    +0.000 C 
BRANCH   8   9
ATOM      9  C   UNL     1       2.620   4.744  18.837  0.00  0.00    +0.000 A 
ATOM     10  C   UNL     1       2.770   4.960  20.216  0.00  0.00    +0.000 A 
ATOM     11  C   UNL     1       2.029   4.222  21.138  0.00  0.00    +0.000 A 
ATOM     12  C   UNL     1       1.123   3.265  20.692  0.00  0.00    +0.000 A 
ATOM     13  C   UNL     1       0.963   3.040  19.326  0.00  0.00    +0.000 A 
ATOM     14  C   UNL     1       1.707   3.777  18.401  0.00  0.00    +0.000 A 
ENDBRANCH   8   9
ENDBRANCH   5   8
ENDBRANCH   1   2
BRANCH   1  15
ATOM     15  C   UNL     1       7.931   8.524  17.661  0.00  0.00    +0.000 C 
BRANCH  15  16
ATOM     16  C   UNL     1       8.747   9.409  18.603  0.00  0.00    +0.000 C 
BRANCH  16  17
ATOM     17  O   UNL     1       9.225  10.561  17.920  0.00  0.00    +0.000 OA
BRANCH  17  23
ATOM     18  C   UNL     1      10.606  12.622  18.233  0.00  0.00    +0.000 A 
ATOM     19  C   UNL     1      11.110  13.517  19.202  0.00  0.00    +0.000 A 
ATOM     20  C   UNL     1      10.879  13.335  20.564  0.00  0.00    +0.000 A 
ATOM     21  C   UNL     1      10.143  12.242  20.995  0.00  0.00    +0.000 A 
ATOM     22  C   UNL     1       9.639  11.339  20.060  0.00  0.00    +0.000 A 
ATOM     23  C   UNL     1       9.868  11.508  18.683  0.00  0.00    +0.000 A 
BRANCH  18  24
ATOM     24  C   UNL     1      10.845  12.936  16.776  0.00  0.00    +0.000 C 
BRANCH  24  25
ATOM     25  O   UNL     1      11.205  14.296  16.546  0.00  0.00    +0.000 OA
ATOM     26  H   UNL     1      11.520  14.350  15.630  0.00  0.00    +0.000 HD
ENDBRANCH  24  25
ENDBRANCH  18  24
ENDBRANCH  17  23
ENDBRANCH  16  17
ENDBRANCH  15  16
ENDBRANCH   1  15
TORSDOF 9
ENDMDL
MODEL 3
REMARK VINA RESULT:      -7.6      0.987      1.456
REMARK  Name = 
REMARK  9 active torsions:
REMARK  status: ('A' for Active; 'I' for Inactive)
REMARK    1  A    between atoms: O_1  and  C_2
REMARK    2  A    between atoms: C_2  and  C_3
REMARK    3  A    between atoms: C_8  and  O_9
REMARK    4  A    between atoms: O_9  and  C_10
REMARK    5  A    between atoms: C_10  and  C_11
REMARK    6  A    between atoms: C_11  and  C_12
REMARK    7  A    between atoms: C_12  and  N_13
REMARK    8  A    between atoms: C_16  and  C_17
REMARK    9  A    between atoms: C_17  and  C_18
REMARK                            x       y       z     vdW  Elec       q    Type
REMARK                         _______ _______ _______ _____ _____    ______ ____
ROOT
ATOM      1  C   UNL     1       7.981   7.187  18.394  0.00  0.00    +0.000 C 
ENDROOT
BRANCH   1   2
ATOM      2  N   UNL     1       7.183   6.259  17.573  0.00  0.00    +0.000 NA
ATOM      3  C   UNL     1       6.521   5.296  18.476  0.00  0.00    +0.000 C 
ATOM      4  C   UNL     1       5.588   4.339  17.739  0.00  0.00    +0.000 C 
ATOM      5  C   UNL     1       4.522   5.095  16.939  0.00  0.00    +0.000 C 
ATOM      6  C   UNL     1       5.260   6.043  15.979  0.00  0.00    +0.000 C 
ATOM      7  C   UNL     1       6.234   6.975  16.709  0.00  0.00    +0.000 C 
BRANCH   5   8
ATOM      8  C   UNL     1       3.516   5.881  17.815  0.00  0.00    +0.000 C 
BRANCH   8   9
ATOM      9  C   UNL     1       2.619   5.044  18.695  0.00  0.00    +0.000 A 
ATOM     10  C   UNL     1       1.790   4.062  18.128  0.00  0.00    +0.000 A 
ATOM     11  C   UNL     1       0.987   3.256  18.933  0.00  0.00    +0.000 A 
ATOM     12  C   UNL     1       1.007   3.415  20.314  0.00  0.00    +0.000 A 
ATOM     13  C   UNL     1       1.825   4.385  20.892  0.00  0.00    +0.000 A 
ATOM     14  C   UNL     1       2.629   5.196  20.087  0.00  0.00    +0.000 A 
ENDBRANCH   8   9
ENDBRANCH   5   8
ENDBRANCH   1   2
BRANCH   1  15
ATOM     15  C   UNL     1       8.093   8.624  17.871  0.00  0.00    +0.000 C 
BRANCH  15  16
ATOM     16  C   UNL     1       8.909   9.437  18.876  0.00  0.00    +0.000 C 
BRANCH  16  17
ATOM     17  O   UNL     1       9.123  10.759  18.396  0.00  0.00    +0.000 OA
BRANCH  17  23
ATOM     18  C   UNL     1      10.430  12.789  19.043  0.00  0.00    +0.000 A 
ATOM     19  C   UNL     1      10.739  13.646  20.122  0.00  0.00    +0.000 A 
ATOM     20  C   UNL     1      10.243  13.425  21.405  0.00  0.00    +0.000 A 
ATOM     21  C   UNL     1       9.429  12.329  21.646  0.00  0.00    +0.000 A 
ATOM     22  C   UNL     1       9.112  11.463  20.601  0.00  0.00    +0.000 A 
ATOM     23  C   UNL     1       9.609  11.672  19.302  0.00  0.00    +0.000 A 
BRANCH  18  24
ATOM     24  C   UNL     1      10.953  13.146  17.673  0.00  0.00    +0.000 C 
BRANCH  24  25
ATOM     25  O   UNL     1       9.919  13.423  16.731  0.00  0.00    +0.000 OA
ATOM     26  H   UNL     1      10.354  13.581  15.879  0.00  0.00    +0.000 HD
ENDBRANCH  24  25
ENDBRANCH  18  24
ENDBRANCH  17  23
ENDBRANCH  16  17
ENDBRANCH  15  16
ENDBRANCH   1  15
TORSDOF 9
ENDMDL
MODEL 4
REMARK VINA RESULT:      -7.6      1.537      2.076
REMARK  Name = 
REMARK  9 active torsions:
REMARK  status: ('A' for Active; 'I' for Inactive)
REMARK    1  A    between atoms: O_1  and  C_2
REMARK    2  A    between atoms: C_2  and  C_3
REMARK    3  A    between atoms: C_8  and  O_9
REMARK    4  A    between atoms: O_9  and  C_10
REMARK    5  A    between atoms: C_10  and  C_11
REMARK    6  A    between atoms: C_11  and  C_12
REMARK    7  A    between atoms: C_12  and  N_13
REMARK    8  A    between atoms: C_16  and  C_17
REMARK    9  A    between atoms: C_17  and  C_18
REMARK                            x       y       z     vdW  Elec       q    Type
REMARK                         _______ _______ _______ _____ _____    ______ ____
ROOT
ATOM      1  C   UNL     1       7.648   8.067  17.190  0.00  0.00    +0.000 C 
ENDROOT
BRANCH   1   2
ATOM      2  N   UNL     1       7.124   6.701  17.014  0.00  0.00    +0.000 NA
ATOM      3  C   UNL     1       7.235   5.994  18.305  0.00  0.00    +0.000 C 
ATOM      4  C   UNL     1       6.632   4.592  18.266  0.00  0.00    +0.000 C 
ATOM      5  C   UNL     1       5.164   4.621  17.832  0.00  0.00    +0.000 C 
ATOM      6  C   UNL     1       5.108   5.317  16.461  0.00  0.00    +0.000 C 
ATOM      7  C   UNL     1       5.754   6.707  16.483  0.00  0.00    +0.000 C 
BRANCH   5   8
ATOM      8  C   UNL     1       4.222   5.325  18.839  0.00  0.00    +0.000 C 
BRANCH   8   9
ATOM      9  C   UNL     1       2.979   4.557  19.221  0.00  0.00    +0.000 A 
ATOM     10  C   UNL     1       2.326   3.753  18.273  0.00  0.00    +0.000 A 
ATOM     11  C   UNL     1       1.201   3.008  18.623  0.00  0.00    +0.000 A 
ATOM     12  C   UNL     1       0.719   3.052  19.926  0.00  0.00    +0.000 A 
ATOM     13  C   UNL     1       1.356   3.846  20.879  0.00  0.00    +0.000 A 
ATOM     14  C   UNL     1       2.482   4.595  20.529  0.00  0.00    +0.000 A 
ENDBRANCH   8   9
ENDBRANCH   5   8
ENDBRANCH   1   2
BRANCH   1  15
ATOM     15  C   UNL     1       8.412   8.332  18.492  0.00  0.00    +0.000 C 
BRANCH  15  16
ATOM     16  C   UNL     1       8.843   9.799  18.504  0.00  0.00    +0.000 C 
BRANCH  16  17
ATOM     17  O   UNL     1       9.354  10.161  19.780  0.00  0.00    +0.000 OA
BRANCH  17  23
ATOM     18  C   UNL     1       9.800  12.360  20.883  0.00  0.00    +0.000 A 
ATOM     19  C   UNL     1      10.600  13.522  20.822  0.00  0.00    +0.000 A 
ATOM     20  C   UNL     1      11.544  13.714  19.815  0.00  0.00    +0.000 A 
ATOM     21  C   UNL     1      11.705  12.749  18.832  0.00  0.00    +0.000 A 
ATOM     22  C   UNL     1      10.924  11.595  18.866  0.00  0.00    +0.000 A 
ATOM     23  C   UNL     1       9.965  11.390  19.874  0.00  0.00    +0.000 A 
BRANCH  18  24
ATOM     24  C   UNL     1       8.855  12.204  22.050  0.00  0.00    +0.000 C 
BRANCH  24  25
ATOM     25  O   UNL     1       8.692  10.850  22.464  0.00  0.00    +0.000 OA
ATOM     26  H   UNL     1       7.935  10.833  23.071  0.00  0.00    +0.000 HD
ENDBRANCH  24  25
ENDBRANCH  18  24
ENDBRANCH  17  23
ENDBRANCH  16  17
ENDBRANCH  15  16
ENDBRANCH   1  15
TORSDOF 9
ENDMDL
MODEL 5
REMARK VINA RESULT:      -7.5      1.331      1.588
REMARK  Name = 
REMARK  9 active torsions:
REMARK  status: ('A' for Active; 'I' for Inactive)
REMARK    1  A    between atoms: O_1  and  C_2
REMARK    2  A    between atoms: C_2  and  C_3
REMARK    3  A    between atoms: C_8  and  O_9
REMARK    4  A    between atoms: O_9  and  C_10
REMARK    5  A    between atoms: C_10  and  C_11
REMARK    6  A    between atoms: C_11  and  C_12
REMARK    7  A    between atoms: C_12  and  N_13
REMARK    8  A    between atoms: C_16  and  C_17
REMARK    9  A    between atoms: C_17  and  C_18
REMARK                            x       y       z     vdW  Elec       q    Type
REMARK                         _______ _______ _______ _____ _____    ______ ____
ROOT
ATOM      1  C   UNL     1       6.964   8.006  17.554  0.00  0.00    +0.000 C 
ENDROOT
BRANCH   1   2
ATOM      2  N   UNL     1       6.640   6.605  17.232  0.00  0.00    +0.000 NA
ATOM      3  C   UNL     1       6.140   5.953  18.459  0.00  0.00    +0.000 C 
ATOM      4  C   UNL     1       5.682   4.516  18.221  0.00  0.00    +0.000 C 
ATOM      5  C   UNL     1       4.605   4.440  17.135  0.00  0.00    +0.000 C 
ATOM      6  C   UNL     1       5.191   5.081  15.866  0.00  0.00    +0.000 C 
ATOM      7  C   UNL     1       5.696   6.508  16.111  0.00  0.00    +0.000 C 
BRANCH   5   8
ATOM      8  C   UNL     1       3.269   5.120  17.523  0.00  0.00    +0.000 C 
BRANCH   8   9
ATOM      9  C   UNL     1       2.429   4.384  18.538  0.00  0.00    +0.000 A 
ATOM     10  C   UNL     1       2.316   4.872  19.850  0.00  0.00    +0.000 A 
ATOM     11  C   UNL     1       1.512   4.223  20.785  0.00  0.00    +0.000 A 
ATOM     12  C   UNL     1       0.805   3.083  20.420  0.00  0.00    +0.000 A 
ATOM     13  C   UNL     1       0.906   2.587  19.121  0.00  0.00    +0.000 A 
ATOM     14  C   UNL     1       1.714   3.234  18.183  0.00  0.00    +0.000 A 
ENDBRANCH   8   9
ENDBRANCH   5   8
ENDBRANCH   1   2
BRANCH   1  15
ATOM     15  C   UNL     1       8.361   8.257  18.135  0.00  0.00    +0.000 C 
BRANCH  15  16
ATOM     16  C   UNL     1       8.529   9.763  18.341  0.00  0.00    +0.000 C 
BRANCH  16  17
ATOM     17  O   UNL     1       9.815  10.056  18.873  0.00  0.00    +0.000 OA
BRANCH  17  23
ATOM     18  C   UNL     1      10.533  12.421  19.245  0.00  0.00    +0.000 A 
ATOM     19  C   UNL     1      10.454  13.505  20.146  0.00  0.00    +0.000 A 
ATOM     20  C   UNL     1       9.785  13.404  21.364  0.00  0.00    +0.000 A 
ATOM     21  C   UNL     1       9.183  12.206  21.719  0.00  0.00    +0.000 A 
ATOM     22  C   UNL     1       9.251  11.117  20.850  0.00  0.00    +0.000 A 
ATOM     23  C   UNL     1       9.927  11.205  19.620  0.00  0.00    +0.000 A 
BRANCH  18  24
ATOM     24  C   UNL     1      11.217  12.643  17.918  0.00  0.00    +0.000 C 
BRANCH  24  25
ATOM     25  O   UNL     1      12.173  11.634  17.602  0.00  0.00    +0.000 OA
ATOM     26  H   UNL     1      12.987  12.093  17.343  0.00  0.00    +0.000 HD
ENDBRANCH  24  25
ENDBRANCH  18  24
ENDBRANCH  17  23
ENDBRANCH  16  17
ENDBRANCH  15  16
ENDBRANCH   1  15
TORSDOF 9
ENDMDL
MODEL 6
REMARK VINA RESULT:      -7.4      1.578      2.009
REMARK  Name = 
REMARK  9 active torsions:
REMARK  status: ('A' for Active; 'I' for Inactive)
REMARK    1  A    between atoms: O_1  and  C_2
REMARK    2  A    between atoms: C_2  and  C_3
REMARK    3  A    between atoms: C_8  and  O_9
REMARK    4  A    between atoms: O_9  and  C_10
REMARK    5  A    between atoms: C_10  and  C_11
REMARK    6  A    between atoms: C_11  and  C_12
REMARK    7  A    between atoms: C_12  and  N_13
REMARK    8  A    between atoms: C_16  and  C_17
REMARK    9  A    between atoms: C_17  and  C_18
REMARK                            x       y       z     vdW  Elec       q    Type
REMARK                         _______ _______ _______ _____ _____    ______ ____
ROOT
ATOM      1  C   UNL     1       7.434   6.992  18.038  0.00  0.00    +0.000 C 
ENDROOT
BRANCH   1   2
ATOM      2  N   UNL     1       6.452   6.316  17.172  0.00  0.00    +0.000 NA
ATOM      3  C   UNL     1       6.931   4.943  16.916  0.00  0.00    +0.000 C 
ATOM      4  C   UNL     1       5.941   4.113  16.102  0.00  0.00    +0.000 C 
ATOM      5  C   UNL     1       4.568   4.051  16.778  0.00  0.00    +0.000 C 
ATOM      6  C   UNL     1       4.090   5.499  16.973  0.00  0.00    +0.000 C 
ATOM      7  C   UNL     1       5.102   6.350  17.750  0.00  0.00    +0.000 C 
BRANCH   5   8
ATOM      8  C   UNL     1       4.562   3.288  18.126  0.00  0.00    +0.000 C 
BRANCH   8   9
ATOM      9  C   UNL     1       3.230   3.217  18.833  0.00  0.00    +0.000 A 
ATOM     10  C   UNL     1       3.052   3.859  20.069  0.00  0.00    +0.000 A 
ATOM     11  C   UNL     1       1.816   3.833  20.713  0.00  0.00    +0.000 A 
ATOM     12  C   UNL     1       0.741   3.173  20.127  0.00  0.00    +0.000 A 
ATOM     13  C   UNL     1       0.903   2.532  18.900  0.00  0.00    +0.000 A 
ATOM     14  C   UNL     1       2.142   2.554  18.254  0.00  0.00    +0.000 A 
ENDBRANCH   8   9
ENDBRANCH   5   8
ENDBRANCH   1   2
BRANCH   1  15
ATOM     15  C   UNL     1       8.289   8.075  17.368  0.00  0.00    +0.000 C 
BRANCH  15  16
ATOM     16  C   UNL     1       8.042   9.397  18.094  0.00  0.00    +0.000 C 
BRANCH  16  17
ATOM     17  O   UNL     1       9.059   9.638  19.059  0.00  0.00    +0.000 OA
BRANCH  17  23
ATOM     18  C   UNL     1       9.649  11.843  20.078  0.00  0.00    +0.000 A 
ATOM     19  C   UNL     1      10.386  13.030  19.874  0.00  0.00    +0.000 A 
ATOM     20  C   UNL     1      11.106  13.258  18.703  0.00  0.00    +0.000 A 
ATOM     21  C   UNL     1      11.098  12.304  17.696  0.00  0.00    +0.000 A 
ATOM     22  C   UNL     1      10.373  11.126  17.870  0.00  0.00    +0.000 A 
ATOM     23  C   UNL     1       9.640  10.885  19.044  0.00  0.00    +0.000 A 
BRANCH  18  24
ATOM     24  C   UNL     1       8.958  11.650  21.406  0.00  0.00    +0.000 C 
BRANCH  24  25
ATOM     25  O   UNL     1       9.043  10.314  21.896  0.00  0.00    +0.000 OA
ATOM     26  H   UNL     1       9.940  10.203  22.250  0.00  0.00    +0.000 HD
ENDBRANCH  24  25
ENDBRANCH  18  24
ENDBRANCH  17  23
ENDBRANCH  16  17
ENDBRANCH  15  16
ENDBRANCH   1  15
TORSDOF 9
ENDMDL
MODEL 7
REMARK VINA RESULT:      -7.3      1.456      1.724
REMARK  Name = 
REMARK  9 active torsions:
REMARK  status: ('A' for Active; 'I' for Inactive)
REMARK    1  A    between atoms: O_1  and  C_2
REMARK    2  A    between atoms: C_2  and  C_3
REMARK    3  A    between atoms: C_8  and  O_9
REMARK    4  A    between atoms: O_9  and  C_10
REMARK    5  A    between atoms: C_10  and  C_11
REMARK    6  A    between atoms: C_11  and  C_12
REMARK    7  A    between atoms: C_12  and  N_13
REMARK    8  A    between atoms: C_16  and  C_17
REMARK    9  A    between atoms: C_17  and  C_18
REMARK                            x       y       z     vdW  Elec       q    Type
REMARK                         _______ _______ _______ _____ _____    ______ ____
ROOT
ATOM      1  C   UNL     1       7.149   7.971  17.169  0.00  0.00    +0.000 C 
ENDROOT
BRANCH   1   2
ATOM      2  N   UNL     1       6.744   6.575  16.924  0.00  0.00    +0.000 NA
ATOM      3  C   UNL     1       6.370   5.970  18.218  0.00  0.00    +0.000 C 
ATOM      4  C   UNL     1       5.842   4.544  18.075  0.00  0.00    +0.000 C 
ATOM      5  C   UNL     1       4.644   4.481  17.123  0.00  0.00    +0.000 C 
ATOM      6  C   UNL     1       5.098   5.071  15.778  0.00  0.00    +0.000 C 
ATOM      7  C   UNL     1       5.673   6.485  15.923  0.00  0.00    +0.000 C 
BRANCH   5   8
ATOM      8  C   UNL     1       3.385   5.217  17.645  0.00  0.00    +0.000 C 
BRANCH   8   9
ATOM      9  C   UNL     1       2.459   4.398  18.512  0.00  0.00    +0.000 A 
ATOM     10  C   UNL     1       2.106   4.851  19.793  0.00  0.00    +0.000 A 
ATOM     11  C   UNL     1       1.221   4.124  20.588  0.00  0.00    +0.000 A 
ATOM     12  C   UNL     1       0.672   2.940  20.109  0.00  0.00    +0.000 A 
ATOM     13  C   UNL     1       1.013   2.477  18.839  0.00  0.00    +0.000 A 
ATOM     14  C   UNL     1       1.902   3.203  18.042  0.00  0.00    +0.000 A 
ENDBRANCH   8   9
ENDBRANCH   5   8
ENDBRANCH   1   2
BRANCH   1  15
ATOM     15  C   UNL     1       8.238   8.181  18.228  0.00  0.00    +0.000 C 
BRANCH  15  16
ATOM     16  C   UNL     1       8.548   9.676  18.305  0.00  0.00    +0.000 C 
BRANCH  16  17
ATOM     17  O   UNL     1       9.352   9.963  19.442  0.00  0.00    +0.000 OA
BRANCH  17  23
ATOM     18  C   UNL     1      10.109  12.143  20.405  0.00  0.00    +0.000 A 
ATOM     19  C   UNL     1      10.979  13.235  20.200  0.00  0.00    +0.000 A 
ATOM     20  C   UNL     1      11.790  13.330  19.070  0.00  0.00    +0.000 A 
ATOM     21  C   UNL     1      11.743  12.334  18.107  0.00  0.00    +0.000 A 
ATOM     22  C   UNL     1      10.888  11.247  18.281  0.00  0.00    +0.000 A 
ATOM     23  C   UNL     1      10.062  11.141  19.414  0.00  0.00    +0.000 A 
BRANCH  18  24
ATOM     24  C   UNL     1       9.322  12.087  21.691  0.00  0.00    +0.000 C 
BRANCH  24  25
ATOM     25  O   UNL     1       8.901  13.370  22.149  0.00  0.00    +0.000 OA
ATOM     26  H   UNL     1       9.430  13.573  22.936  0.00  0.00    +0.000 HD
ENDBRANCH  24  25
ENDBRANCH  18  24
ENDBRANCH  17  23
ENDBRANCH  16  17
ENDBRANCH  15  16
ENDBRANCH   1  15
TORSDOF 9
ENDMDL
MODEL 8
REMARK VINA RESULT:      -7.2      1.296      1.396
REMARK  Name = 
REMARK  9 active torsions:
REMARK  status: ('A' for Active; 'I' for Inactive)
REMARK    1  A    between atoms: O_1  and  C_2
REMARK    2  A    between atoms: C_2  and  C_3
REMARK    3  A    between atoms: C_8  and  O_9
REMARK    4  A    between atoms: O_9  and  C_10
REMARK    5  A    between atoms: C_10  and  C_11
REMARK    6  A    between atoms: C_11  and  C_12
REMARK    7  A    between atoms: C_12  and  N_13
REMARK    8  A    between atoms: C_16  and  C_17
REMARK    9  A    between atoms: C_17  and  C_18
REMARK                            x       y       z     vdW  Elec       q    Type
REMARK                         _______ _______ _______ _____ _____    ______ ____
ROOT
ATOM      1  C   UNL     1       7.855   7.345  17.790  0.00  0.00    +0.000 C 
ENDROOT
BRANCH   1   2
ATOM      2  N   UNL     1       6.864   6.589  17.006  0.00  0.00    +0.000 NA
ATOM      3  C   UNL     1       7.263   5.167  17.005  0.00  0.00    +0.000 C 
ATOM      4  C   UNL     1       6.252   4.268  16.297  0.00  0.00    +0.000 C 
ATOM      5  C   UNL     1       4.855   4.400  16.910  0.00  0.00    +0.000 C 
ATOM      6  C   UNL     1       4.463   5.885  16.838  0.00  0.00    +0.000 C 
ATOM      7  C   UNL     1       5.498   6.796  17.507  0.00  0.00    +0.000 C 
BRANCH   5   8
ATOM      8  C   UNL     1       4.752   3.878  18.364  0.00  0.00    +0.000 C 
BRANCH   8   9
ATOM      9  C   UNL     1       3.353   3.632  18.875  0.00  0.00    +0.000 A 
ATOM     10  C   UNL     1       2.936   4.196  20.092  0.00  0.00    +0.000 A 
ATOM     11  C   UNL     1       1.635   4.009  20.556  0.00  0.00    +0.000 A 
ATOM     12  C   UNL     1       0.733   3.262  19.806  0.00  0.00    +0.000 A 
ATOM     13  C   UNL     1       1.132   2.696  18.597  0.00  0.00    +0.000 A 
ATOM     14  C   UNL     1       2.436   2.880  18.132  0.00  0.00    +0.000 A 
ENDBRANCH   8   9
ENDBRANCH   5   8
ENDBRANCH   1   2
BRANCH   1  15
ATOM     15  C   UNL     1       7.786   8.872  17.669  0.00  0.00    +0.000 C 
BRANCH  15  16
ATOM     16  C   UNL     1       8.813   9.475  18.628  0.00  0.00    +0.000 C 
BRANCH  16  17
ATOM     17  O   UNL     1       8.564  10.862  18.824  0.00  0.00    +0.000 OA
BRANCH  17  23
ATOM     18  C   UNL     1       9.238  13.037  17.792  0.00  0.00    +0.000 A 
ATOM     19  C   UNL     1      10.348  13.792  17.355  0.00  0.00    +0.000 A 
ATOM     20  C   UNL     1      11.648  13.293  17.412  0.00  0.00    +0.000 A 
ATOM     21  C   UNL     1      11.871  12.015  17.902  0.00  0.00    +0.000 A 
ATOM     22  C   UNL     1      10.793  11.246  18.335  0.00  0.00    +0.000 A 
ATOM     23  C   UNL     1       9.476  11.735  18.279  0.00  0.00    +0.000 A 
BRANCH  18  24
ATOM     24  C   UNL     1       7.876  13.684  17.760  0.00  0.00    +0.000 C 
BRANCH  24  25
ATOM     25  O   UNL     1       7.791  14.857  18.567  0.00  0.00    +0.000 OA
ATOM     26  H   UNL     1       8.668  14.991  18.958  0.00  0.00    +0.000 HD
ENDBRANCH  24  25
ENDBRANCH  18  24
ENDBRANCH  17  23
ENDBRANCH  16  17
ENDBRANCH  15  16
ENDBRANCH   1  15
TORSDOF 9
ENDMDL
MODEL 9
REMARK VINA RESULT:      -7.1      5.170      7.350
REMARK  Name = 
REMARK  9 active torsions:
REMARK  status: ('A' for Active; 'I' for Inactive)
REMARK    1  A    between atoms: O_1  and  C_2
REMARK    2  A    between atoms: C_2  and  C_3
REMARK    3  A    between atoms: C_8  and  O_9
REMARK    4  A    between atoms: O_9  and  C_10
REMARK    5  A    between atoms: C_10  and  C_11
REMARK    6  A    between atoms: C_11  and  C_12
REMARK    7  A    between atoms: C_12  and  N_13
REMARK    8  A    between atoms: C_16  and  C_17
REMARK    9  A    between atoms: C_17  and  C_18
REMARK                            x       y       z     vdW  Elec       q    Type
REMARK                         _______ _______ _______ _____ _____    ______ ____
ROOT
ATOM      1  C   UNL     1       1.457   3.383  21.141  0.00  0.00    +0.000 C 
ENDROOT
BRANCH   1   2
ATOM      2  N   UNL     1       2.243   2.596  20.176  0.00  0.00    +0.000 NA
ATOM      3  C   UNL     1       1.487   2.530  18.909  0.00  0.00    +0.000 C 
ATOM      4  C   UNL     1       2.253   1.813  17.799  0.00  0.00    +0.000 C 
ATOM      5  C   UNL     1       3.614   2.466  17.541  0.00  0.00    +0.000 C 
ATOM      6  C   UNL     1       4.382   2.462  18.873  0.00  0.00    +0.000 C 
ATOM      7  C   UNL     1       3.597   3.140  20.003  0.00  0.00    +0.000 C 
BRANCH   5   8
ATOM      8  C   UNL     1       3.526   3.902  16.966  0.00  0.00    +0.000 C 
BRANCH   8   9
ATOM      9  C   UNL     1       4.840   4.630  16.816  0.00  0.00    +0.000 A 
ATOM     10  C   UNL     1       5.077   5.814  17.532  0.00  0.00    +0.000 A 
ATOM     11  C   UNL     1       6.301   6.474  17.433  0.00  0.00    +0.000 A 
ATOM     12  C   UNL     1       7.305   5.956  16.623  0.00  0.00    +0.000 A 
ATOM     13  C   UNL     1       7.085   4.780  15.907  0.00  0.00    +0.000 A 
ATOM     14  C   UNL     1       5.858   4.119  16.003  0.00  0.00    +0.000 A 
ENDBRANCH   8   9
ENDBRANCH   5   8
ENDBRANCH   1   2
BRANCH   1  15
ATOM     15  C   UNL     1       0.869   4.699  20.616  0.00  0.00    +0.000 C 
BRANCH  15  16
ATOM     16  C   UNL     1       1.984   5.744  20.591  0.00  0.00    +0.000 C 
BRANCH  16  17
ATOM     17  O   UNL     1       1.482   7.022  20.960  0.00  0.00    +0.000 OA
BRANCH  17  23
ATOM     18  C   UNL     1       0.926   9.283  20.049  0.00  0.00    +0.000 A 
ATOM     19  C   UNL     1       1.141  10.154  18.960  0.00  0.00    +0.000 A 
ATOM     20  C   UNL     1       1.909   9.781  17.858  0.00  0.00    +0.000 A 
ATOM     21  C   UNL     1       2.476   8.516  17.814  0.00  0.00    +0.000 A 
ATOM     22  C   UNL     1       2.274   7.634  18.874  0.00  0.00    +0.000 A 
ATOM     23  C   UNL     1       1.498   7.996  19.989  0.00  0.00    +0.000 A 
BRANCH  18  24
ATOM     24  C   UNL     1       0.140   9.797  21.231  0.00  0.00    +0.000 C 
BRANCH  24  25
ATOM     25  O   UNL     1       0.961  10.377  22.242  0.00  0.00    +0.000 OA
ATOM     26  H   UNL     1       0.402  11.004  22.728  0.00  0.00    +0.000 HD
ENDBRANCH  24  25
ENDBRANCH  18  24
ENDBRANCH  17  23
ENDBRANCH  16  17
ENDBRANCH  15  16
ENDBRANCH   1  15
TORSDOF 9
ENDMDL
