MODEL 1
REMARK VINA RESULT:      -7.0      0.000      0.000
REMARK  Name = 
REMARK  6 active torsions:
REMARK  status: ('A' for Active; 'I' for Inactive)
REMARK    1  A    between atoms: C_2  and  C_3
REMARK    2  A    between atoms: C_2  and  C_11
REMARK    3  A    between atoms: C_3  and  S_4
REMARK    4  A    between atoms: S_4  and  C_5
REMARK    5  A    between atoms: C_14  and  O_15
REMARK    6  A    between atoms: C_16  and  O_17
REMARK                            x       y       z     vdW  Elec       q    Type
REMARK                         _______ _______ _______ _____ _____    ______ ____
ROOT
ATOM      1  O   UNL     1       5.240   5.697  19.319  0.00  0.00    +0.000 OA
ATOM      2  C   UNL     1       4.705   5.311  18.282  0.00  0.00    +0.000 C 
ENDROOT
BRANCH   2   3
ATOM      3  C   UNL     1       3.538   4.382  18.409  0.00  0.00    +0.000 A 
ATOM      4  C   UNL     1       3.464   3.293  17.517  0.00  0.00    +0.000 A 
ATOM      5  C   UNL     1       2.402   2.384  17.572  0.00  0.00    +0.000 A 
ATOM      6  C   UNL     1       1.411   2.572  18.522  0.00  0.00    +0.000 A 
ATOM      7  C   UNL     1       1.477   3.648  19.405  0.00  0.00    +0.000 A 
ATOM      8  C   UNL     1       2.530   4.556  19.362  0.00  0.00    +0.000 A 
BRANCH   6   9
ATOM      9  O   UNL     1       0.343   1.725  18.628  0.00  0.00    +0.000 OA
ATOM     10  H   UNL     1       0.179   1.332  17.753  0.00  0.00    +0.000 HD
ENDBRANCH   6   9
BRANCH   7  11
ATOM     11  O   UNL     1       0.490   3.822  20.333  0.00  0.00    +0.000 OA
ATOM     12  H   UNL     1       0.917   4.326  21.056  0.00  0.00    +0.000 HD
ENDBRANCH   7  11
ENDBRANCH   2   3
BRANCH   2  13
ATOM     13  C   UNL     1       5.165   5.711  16.886  0.00  0.00    +0.000 C 
BRANCH  13  14
ATOM     14  S   UNL     1       6.937   5.343  16.649  0.00  0.00    +0.000 S 
BRANCH  14  15
ATOM     15  C   UNL     1       6.957   4.891  14.927  0.00  0.00    +0.000 A 
ATOM     16  C   UNL     1       6.045   3.941  14.480  0.00  0.00    +0.000 A 
ATOM     17  C   UNL     1       6.028   3.607  13.128  0.00  0.00    +0.000 A 
ATOM     18  C   UNL     1       6.923   4.228  12.267  0.00  0.00    +0.000 A 
ATOM     19  C   UNL     1       7.806   5.153  12.799  0.00  0.00    +0.000 A 
ATOM     20  N   UNL     1       7.844   5.497  14.106  0.00  0.00    +0.000 NA
ENDBRANCH  14  15
ENDBRANCH  13  14
ENDBRANCH   2  13
TORSDOF 6
ENDMDL
MODEL 2
REMARK VINA RESULT:      -6.9      0.834      1.643
REMARK  Name = 
REMARK  6 active torsions:
REMARK  status: ('A' for Active; 'I' for Inactive)
REMARK    1  A    between atoms: C_2  and  C_3
REMARK    2  A    between atoms: C_2  and  C_11
REMARK    3  A    between atoms: C_3  and  S_4
REMARK    4  A    between atoms: S_4  and  C_5
REMARK    5  A    between atoms: C_14  and  O_15
REMARK    6  A    between atoms: C_16  and  O_17
REMARK                            x       y       z     vdW  Elec       q    Type
REMARK                         _______ _______ _______ _____ _____    ______ ____
ROOT
ATOM      1  O   UNL     1       6.198   4.976  19.395  0.00  0.00    +0.000 OA
ATOM      2  C   UNL     1       5.279   4.936  18.578  0.00  0.00    +0.000 C 
ENDROOT
BRANCH   2   3
ATOM      3  C   UNL     1       3.965   4.389  19.040  0.00  0.00    +0.000 A 
ATOM      4  C   UNL     1       3.183   5.190  19.897  0.00  0.00    +0.000 A 
ATOM      5  C   UNL     1       1.946   4.745  20.373  0.00  0.00    +0.000 A 
ATOM      6  C   UNL     1       1.494   3.491  19.992  0.00  0.00    +0.000 A 
ATOM      7  C   UNL     1       2.264   2.693  19.147  0.00  0.00    +0.000 A 
ATOM      8  C   UNL     1       3.495   3.127  18.664  0.00  0.00    +0.000 A 
BRANCH   6   9
ATOM      9  O   UNL     1       0.297   2.992  20.424  0.00  0.00    +0.000 OA
ATOM     10  H   UNL     1       0.032   2.275  19.820  0.00  0.00    +0.000 HD
ENDBRANCH   6   9
BRANCH   7  11
ATOM     11  O   UNL     1       1.808   1.458  18.783  0.00  0.00    +0.000 OA
ATOM     12  H   UNL     1       1.617   1.537  17.826  0.00  0.00    +0.000 HD
ENDBRANCH   7  11
ENDBRANCH   2   3
BRANCH   2  13
ATOM     13  C   UNL     1       5.405   5.398  17.133  0.00  0.00    +0.000 C 
BRANCH  13  14
ATOM     14  S   UNL     1       7.155   5.486  16.622  0.00  0.00    +0.000 S 
BRANCH  14  15
ATOM     15  C   UNL     1       7.039   4.947  14.929  0.00  0.00    +0.000 A 
ATOM     16  C   UNL     1       6.064   4.013  14.597  0.00  0.00    +0.000 A 
ATOM     17  C   UNL     1       5.940   3.612  13.269  0.00  0.00    +0.000 A 
ATOM     18  C   UNL     1       6.794   4.153  12.317  0.00  0.00    +0.000 A 
ATOM     19  C   UNL     1       7.745   5.068  12.738  0.00  0.00    +0.000 A 
ATOM     20  N   UNL     1       7.887   5.476  14.019  0.00  0.00    +0.000 NA
ENDBRANCH  14  15
ENDBRANCH  13  14
ENDBRANCH   2  13
TORSDOF 6
ENDMDL
MODEL 3
REMARK VINA RESULT:      -6.9      3.874      6.975
REMARK  Name = 
REMARK  6 active torsions:
REMARK  status: ('A' for Active; 'I' for Inactive)
REMARK    1  A    between atoms: C_2  and  C_3
REMARK    2  A    between atoms: C_2  and  C_11
REMARK    3  A    between atoms: C_3  and  S_4
REMARK    4  A    between atoms: S_4  and  C_5
REMARK    5  A    between atoms: C_14  and  O_15
REMARK    6  A    between atoms: C_16  and  O_17
REMARK                            x       y       z     vdW  Elec       q    Type
REMARK                         _______ _______ _______ _____ _____    ______ ____
ROOT
ATOM      1  O   UNL     1       5.721   3.817  15.327  0.00  0.00    +0.000 OA
ATOM      2  C   UNL     1       5.303   4.310  16.373  0.00  0.00    +0.000 C 
ENDROOT
BRANCH   2   3
ATOM      3  C   UNL     1       6.225   5.214  17.129  0.00  0.00    +0.000 A 
ATOM      4  C   UNL     1       6.444   6.509  16.617  0.00  0.00    +0.000 A 
ATOM      5  C   UNL     1       7.295   7.409  17.266  0.00  0.00    +0.000 A 
ATOM      6  C   UNL     1       7.931   7.007  18.430  0.00  0.00    +0.000 A 
ATOM      7  C   UNL     1       7.721   5.727  18.940  0.00  0.00    +0.000 A 
ATOM      8  C   UNL     1       6.874   4.824  18.305  0.00  0.00    +0.000 A 
BRANCH   6   9
ATOM      9  O   UNL     1       8.779   7.833  19.112  0.00  0.00    +0.000 OA
ATOM     10  H   UNL     1       8.797   8.693  18.656  0.00  0.00    +0.000 HD
ENDBRANCH   6   9
BRANCH   7  11
ATOM     11  O   UNL     1       8.358   5.343  20.086  0.00  0.00    +0.000 OA
ATOM     12  H   UNL     1       8.552   6.181  20.554  0.00  0.00    +0.000 HD
ENDBRANCH   7  11
ENDBRANCH   2   3
BRANCH   2  13
ATOM     13  C   UNL     1       3.916   4.046  16.944  0.00  0.00    +0.000 C 
BRANCH  13  14
ATOM     14  S   UNL     1       3.846   2.421  17.773  0.00  0.00    +0.000 S 
BRANCH  14  15
ATOM     15  C   UNL     1       2.874   2.819  19.210  0.00  0.00    +0.000 A 
ATOM     16  C   UNL     1       1.682   3.513  19.033  0.00  0.00    +0.000 A 
ATOM     17  C   UNL     1       0.895   3.796  20.147  0.00  0.00    +0.000 A 
ATOM     18  C   UNL     1       1.325   3.383  21.400  0.00  0.00    +0.000 A 
ATOM     19  C   UNL     1       2.531   2.709  21.488  0.00  0.00    +0.000 A 
ATOM     20  N   UNL     1       3.314   2.419  20.424  0.00  0.00    +0.000 NA
ENDBRANCH  14  15
ENDBRANCH  13  14
ENDBRANCH   2  13
TORSDOF 6
ENDMDL
MODEL 4
REMARK VINA RESULT:      -6.9      3.859      7.000
REMARK  Name = 
REMARK  6 active torsions:
REMARK  status: ('A' for Active; 'I' for Inactive)
REMARK    1  A    between atoms: C_2  and  C_3
REMARK    2  A    between atoms: C_2  and  C_11
REMARK    3  A    between atoms: C_3  and  S_4
REMARK    4  A    between atoms: S_4  and  C_5
REMARK    5  A    between atoms: C_14  and  O_15
REMARK    6  A    between atoms: C_16  and  O_17
REMARK                            x       y       z     vdW  Elec       q    Type
REMARK                         _______ _______ _______ _____ _____    ______ ____
ROOT
ATOM      1  O   UNL     1       5.746   4.004  15.153  0.00  0.00    +0.000 OA
ATOM      2  C   UNL     1       5.424   4.259  16.313  0.00  0.00    +0.000 C 
ENDROOT
BRANCH   2   3
ATOM      3  C   UNL     1       6.313   5.176  17.093  0.00  0.00    +0.000 A 
ATOM      4  C   UNL     1       6.502   6.485  16.603  0.00  0.00    +0.000 A 
ATOM      5  C   UNL     1       7.321   7.397  17.275  0.00  0.00    +0.000 A 
ATOM      6  C   UNL     1       7.956   6.994  18.439  0.00  0.00    +0.000 A 
ATOM      7  C   UNL     1       7.776   5.701  18.927  0.00  0.00    +0.000 A 
ATOM      8  C   UNL     1       6.961   4.785  18.269  0.00  0.00    +0.000 A 
BRANCH   6   9
ATOM      9  O   UNL     1       8.774   7.832  19.144  0.00  0.00    +0.000 OA
ATOM     10  H   UNL     1       8.264   8.627  19.379  0.00  0.00    +0.000 HD
ENDBRANCH   6   9
BRANCH   7  11
ATOM     11  O   UNL     1       8.412   5.316  20.073  0.00  0.00    +0.000 OA
ATOM     12  H   UNL     1       7.744   4.796  20.564  0.00  0.00    +0.000 HD
ENDBRANCH   7  11
ENDBRANCH   2   3
BRANCH   2  13
ATOM     13  C   UNL     1       4.189   3.689  16.997  0.00  0.00    +0.000 C 
BRANCH  13  14
ATOM     14  S   UNL     1       3.173   5.017  17.728  0.00  0.00    +0.000 S 
BRANCH  14  15
ATOM     15  C   UNL     1       2.420   4.153  19.090  0.00  0.00    +0.000 A 
ATOM     16  C   UNL     1       2.771   4.521  20.385  0.00  0.00    +0.000 A 
ATOM     17  C   UNL     1       2.160   3.876  21.458  0.00  0.00    +0.000 A 
ATOM     18  C   UNL     1       1.223   2.884  21.205  0.00  0.00    +0.000 A 
ATOM     19  C   UNL     1       0.942   2.571  19.885  0.00  0.00    +0.000 A 
ATOM     20  N   UNL     1       1.518   3.181  18.825  0.00  0.00    +0.000 NA
ENDBRANCH  14  15
ENDBRANCH  13  14
ENDBRANCH   2  13
TORSDOF 6
ENDMDL
MODEL 5
REMARK VINA RESULT:      -6.8      2.649      3.573
REMARK  Name = 
REMARK  6 active torsions:
REMARK  status: ('A' for Active; 'I' for Inactive)
REMARK    1  A    between atoms: C_2  and  C_3
REMARK    2  A    between atoms: C_2  and  C_11
REMARK    3  A    between atoms: C_3  and  S_4
REMARK    4  A    between atoms: S_4  and  C_5
REMARK    5  A    between atoms: C_14  and  O_15
REMARK    6  A    between atoms: C_16  and  O_17
REMARK                            x       y       z     vdW  Elec       q    Type
REMARK                         _______ _______ _______ _____ _____    ______ ____
ROOT
ATOM      1  O   UNL     1       3.381   5.972  17.406  0.00  0.00    +0.000 OA
ATOM      2  C   UNL     1       3.627   4.782  17.597  0.00  0.00    +0.000 C 
ENDROOT
BRANCH   2   3
ATOM      3  C   UNL     1       3.054   4.144  18.823  0.00  0.00    +0.000 A 
ATOM      4  C   UNL     1       1.710   4.423  19.144  0.00  0.00    +0.000 A 
ATOM      5  C   UNL     1       1.106   3.867  20.276  0.00  0.00    +0.000 A 
ATOM      6  C   UNL     1       1.855   3.032  21.091  0.00  0.00    +0.000 A 
ATOM      7  C   UNL     1       3.184   2.754  20.780  0.00  0.00    +0.000 A 
ATOM      8  C   UNL     1       3.795   3.298  19.655  0.00  0.00    +0.000 A 
BRANCH   6   9
ATOM      9  O   UNL     1       1.329   2.459  22.215  0.00  0.00    +0.000 OA
ATOM     10  H   UNL     1       1.277   3.141  22.908  0.00  0.00    +0.000 HD
ENDBRANCH   6   9
BRANCH   7  11
ATOM     11  O   UNL     1       3.911   1.932  21.595  0.00  0.00    +0.000 OA
ATOM     12  H   UNL     1       3.241   1.446  22.117  0.00  0.00    +0.000 HD
ENDBRANCH   7  11
ENDBRANCH   2   3
BRANCH   2  13
ATOM     13  C   UNL     1       4.484   3.932  16.669  0.00  0.00    +0.000 C 
BRANCH  13  14
ATOM     14  S   UNL     1       5.532   4.977  15.602  0.00  0.00    +0.000 S 
BRANCH  14  15
ATOM     15  C   UNL     1       6.546   5.789  16.819  0.00  0.00    +0.000 A 
ATOM     16  C   UNL     1       7.060   5.032  17.866  0.00  0.00    +0.000 A 
ATOM     17  C   UNL     1       7.884   5.650  18.803  0.00  0.00    +0.000 A 
ATOM     18  C   UNL     1       8.166   7.002  18.667  0.00  0.00    +0.000 A 
ATOM     19  C   UNL     1       7.603   7.683  17.602  0.00  0.00    +0.000 A 
ATOM     20  N   UNL     1       6.800   7.110  16.677  0.00  0.00    +0.000 NA
ENDBRANCH  14  15
ENDBRANCH  13  14
ENDBRANCH   2  13
TORSDOF 6
ENDMDL
MODEL 6
REMARK VINA RESULT:      -6.7      0.990      1.085
REMARK  Name = 
REMARK  6 active torsions:
REMARK  status: ('A' for Active; 'I' for Inactive)
REMARK    1  A    between atoms: C_2  and  C_3
REMARK    2  A    between atoms: C_2  and  C_11
REMARK    3  A    between atoms: C_3  and  S_4
REMARK    4  A    between atoms: S_4  and  C_5
REMARK    5  A    between atoms: C_14  and  O_15
REMARK    6  A    between atoms: C_16  and  O_17
REMARK                            x       y       z     vdW  Elec       q    Type
REMARK                         _______ _______ _______ _____ _____    ______ ____
ROOT
ATOM      1  O   UNL     1       5.619   5.465  19.354  0.00  0.00    +0.000 OA
ATOM      2  C   UNL     1       5.089   4.681  18.569  0.00  0.00    +0.000 C 
ENDROOT
BRANCH   2   3
ATOM      3  C   UNL     1       3.744   4.137  18.936  0.00  0.00    +0.000 A 
ATOM      4  C   UNL     1       2.750   4.108  17.936  0.00  0.00    +0.000 A 
ATOM      5  C   UNL     1       1.469   3.617  18.204  0.00  0.00    +0.000 A 
ATOM      6  C   UNL     1       1.182   3.158  19.480  0.00  0.00    +0.000 A 
ATOM      7  C   UNL     1       2.159   3.185  20.473  0.00  0.00    +0.000 A 
ATOM      8  C   UNL     1       3.439   3.668  20.218  0.00  0.00    +0.000 A 
BRANCH   6   9
ATOM      9  O   UNL     1      -0.050   2.669  19.813  0.00  0.00    +0.000 OA
ATOM     10  H   UNL     1       0.070   1.794  20.221  0.00  0.00    +0.000 HD
ENDBRANCH   6   9
BRANCH   7  11
ATOM     11  O   UNL     1       1.862   2.733  21.727  0.00  0.00    +0.000 OA
ATOM     12  H   UNL     1       0.991   2.297  21.633  0.00  0.00    +0.000 HD
ENDBRANCH   7  11
ENDBRANCH   2   3
BRANCH   2  13
ATOM     13  C   UNL     1       5.723   4.227  17.261  0.00  0.00    +0.000 C 
BRANCH  13  14
ATOM     14  S   UNL     1       6.692   5.574  16.499  0.00  0.00    +0.000 S 
BRANCH  14  15
ATOM     15  C   UNL     1       6.825   4.985  14.825  0.00  0.00    +0.000 A 
ATOM     16  C   UNL     1       5.922   4.023  14.386  0.00  0.00    +0.000 A 
ATOM     17  C   UNL     1       5.994   3.583  13.066  0.00  0.00    +0.000 A 
ATOM     18  C   UNL     1       6.966   4.114  12.230  0.00  0.00    +0.000 A 
ATOM     19  C   UNL     1       7.833   5.059  12.752  0.00  0.00    +0.000 A 
ATOM     20  N   UNL     1       7.786   5.505  14.027  0.00  0.00    +0.000 NA
ENDBRANCH  14  15
ENDBRANCH  13  14
ENDBRANCH   2  13
TORSDOF 6
ENDMDL
MODEL 7
REMARK VINA RESULT:      -6.7      3.950      6.276
REMARK  Name = 
REMARK  6 active torsions:
REMARK  status: ('A' for Active; 'I' for Inactive)
REMARK    1  A    between atoms: C_2  and  C_3
REMARK    2  A    between atoms: C_2  and  C_11
REMARK    3  A    between atoms: C_3  and  S_4
REMARK    4  A    between atoms: S_4  and  C_5
REMARK    5  A    between atoms: C_14  and  O_15
REMARK    6  A    between atoms: C_16  and  O_17
REMARK                            x       y       z     vdW  Elec       q    Type
REMARK                         _______ _______ _______ _____ _____    ______ ____
ROOT
ATOM      1  O   UNL     1       5.329   5.425  18.561  0.00  0.00    +0.000 OA
ATOM      2  C   UNL     1       4.212   5.478  18.048  0.00  0.00    +0.000 C 
ENDROOT
BRANCH   2   3
ATOM      3  C   UNL     1       3.305   6.588  18.480  0.00  0.00    +0.000 A 
ATOM      4  C   UNL     1       2.676   6.473  19.736  0.00  0.00    +0.000 A 
ATOM      5  C   UNL     1       1.812   7.467  20.206  0.00  0.00    +0.000 A 
ATOM      6  C   UNL     1       1.576   8.578  19.411  0.00  0.00    +0.000 A 
ATOM      7  C   UNL     1       2.193   8.696  18.167  0.00  0.00    +0.000 A 
ATOM      8  C   UNL     1       3.057   7.715  17.690  0.00  0.00    +0.000 A 
BRANCH   6   9
ATOM      9  O   UNL     1       0.740   9.584  19.806  0.00  0.00    +0.000 OA
ATOM     10  H   UNL     1       0.085   9.730  19.100  0.00  0.00    +0.000 HD
ENDBRANCH   6   9
BRANCH   7  11
ATOM     11  O   UNL     1       1.948   9.794  17.393  0.00  0.00    +0.000 OA
ATOM     12  H   UNL     1       1.165  10.216  17.802  0.00  0.00    +0.000 HD
ENDBRANCH   7  11
ENDBRANCH   2   3
BRANCH   2  13
ATOM     13  C   UNL     1       3.700   4.482  17.018  0.00  0.00    +0.000 C 
BRANCH  13  14
ATOM     14  S   UNL     1       3.832   2.770  17.638  0.00  0.00    +0.000 S 
BRANCH  14  15
ATOM     15  C   UNL     1       2.858   2.875  19.124  0.00  0.00    +0.000 A 
ATOM     16  C   UNL     1       1.493   3.112  19.007  0.00  0.00    +0.000 A 
ATOM     17  C   UNL     1       0.716   3.159  20.162  0.00  0.00    +0.000 A 
ATOM     18  C   UNL     1       1.326   2.973  21.395  0.00  0.00    +0.000 A 
ATOM     19  C   UNL     1       2.693   2.755  21.421  0.00  0.00    +0.000 A 
ATOM     20  N   UNL     1       3.472   2.704  20.317  0.00  0.00    +0.000 NA
ENDBRANCH  14  15
ENDBRANCH  13  14
ENDBRANCH   2  13
TORSDOF 6
ENDMDL
MODEL 8
REMARK VINA RESULT:      -6.7      1.448      1.768
REMARK  Name = 
REMARK  6 active torsions:
REMARK  status: ('A' for Active; 'I' for Inactive)
REMARK    1  A    between atoms: C_2  and  C_3
REMARK    2  A    between atoms: C_2  and  C_11
REMARK    3  A    between atoms: C_3  and  S_4
REMARK    4  A    between atoms: S_4  and  C_5
REMARK    5  A    between atoms: C_14  and  O_15
REMARK    6  A    between atoms: C_16  and  O_17
REMARK                            x       y       z     vdW  Elec       q    Type
REMARK                         _______ _______ _______ _____ _____    ______ ____
ROOT
ATOM      1  O   UNL     1       3.727   7.202  18.332  0.00  0.00    +0.000 OA
ATOM      2  C   UNL     1       4.098   6.291  17.594  0.00  0.00    +0.000 C 
ENDROOT
BRANCH   2   3
ATOM      3  C   UNL     1       3.709   4.895  17.967  0.00  0.00    +0.000 A 
ATOM      4  C   UNL     1       2.431   4.442  17.581  0.00  0.00    +0.000 A 
ATOM      5  C   UNL     1       1.996   3.152  17.896  0.00  0.00    +0.000 A 
ATOM      6  C   UNL     1       2.843   2.314  18.605  0.00  0.00    +0.000 A 
ATOM      7  C   UNL     1       4.107   2.756  18.991  0.00  0.00    +0.000 A 
ATOM      8  C   UNL     1       4.553   4.037  18.680  0.00  0.00    +0.000 A 
BRANCH   6   9
ATOM      9  O   UNL     1       2.480   1.043  18.950  0.00  0.00    +0.000 OA
ATOM     10  H   UNL     1       2.263   0.557  18.135  0.00  0.00    +0.000 HD
ENDBRANCH   6   9
BRANCH   7  11
ATOM     11  O   UNL     1       4.930   1.922  19.693  0.00  0.00    +0.000 OA
ATOM     12  H   UNL     1       5.234   2.457  20.453  0.00  0.00    +0.000 HD
ENDBRANCH   7  11
ENDBRANCH   2   3
BRANCH   2  13
ATOM     13  C   UNL     1       4.934   6.501  16.339  0.00  0.00    +0.000 C 
BRANCH  13  14
ATOM     14  S   UNL     1       6.541   5.646  16.470  0.00  0.00    +0.000 S 
BRANCH  14  15
ATOM     15  C   UNL     1       6.722   5.015  14.815  0.00  0.00    +0.000 A 
ATOM     16  C   UNL     1       5.815   4.061  14.366  0.00  0.00    +0.000 A 
ATOM     17  C   UNL     1       5.925   3.588  13.061  0.00  0.00    +0.000 A 
ATOM     18  C   UNL     1       6.937   4.079  12.248  0.00  0.00    +0.000 A 
ATOM     19  C   UNL     1       7.805   5.018  12.780  0.00  0.00    +0.000 A 
ATOM     20  N   UNL     1       7.722   5.495  14.042  0.00  0.00    +0.000 NA
ENDBRANCH  14  15
ENDBRANCH  13  14
ENDBRANCH   2  13
TORSDOF 6
ENDMDL
MODEL 9
REMARK VINA RESULT:      -6.6      1.356      1.622
REMARK  Name = 
REMARK  6 active torsions:
REMARK  status: ('A' for Active; 'I' for Inactive)
REMARK    1  A    between atoms: C_2  and  C_3
REMARK    2  A    between atoms: C_2  and  C_11
REMARK    3  A    between atoms: C_3  and  S_4
REMARK    4  A    between atoms: S_4  and  C_5
REMARK    5  A    between atoms: C_14  and  O_15
REMARK    6  A    between atoms: C_16  and  O_17
REMARK                            x       y       z     vdW  Elec       q    Type
REMARK                         _______ _______ _______ _____ _____    ______ ____
ROOT
ATOM      1  O   UNL     1       3.921   5.727  17.020  0.00  0.00    +0.000 OA
ATOM      2  C   UNL     1       4.443   4.754  17.562  0.00  0.00    +0.000 C 
ENDROOT
BRANCH   2   3
ATOM      3  C   UNL     1       3.714   4.125  18.707  0.00  0.00    +0.000 A 
ATOM      4  C   UNL     1       4.388   3.138  19.454  0.00  0.00    +0.000 A 
ATOM      5  C   UNL     1       3.770   2.503  20.536  0.00  0.00    +0.000 A 
ATOM      6  C   UNL     1       2.472   2.856  20.867  0.00  0.00    +0.000 A 
ATOM      7  C   UNL     1       1.799   3.829  20.131  0.00  0.00    +0.000 A 
ATOM      8  C   UNL     1       2.404   4.471  19.054  0.00  0.00    +0.000 A 
BRANCH   6   9
ATOM      9  O   UNL     1       1.807   2.272  21.909  0.00  0.00    +0.000 OA
ATOM     10  H   UNL     1       2.420   1.663  22.357  0.00  0.00    +0.000 HD
ENDBRANCH   6   9
BRANCH   7  11
ATOM     11  O   UNL     1       0.518   4.164  20.465  0.00  0.00    +0.000 OA
ATOM     12  H   UNL     1       0.529   4.241  21.441  0.00  0.00    +0.000 HD
ENDBRANCH   7  11
ENDBRANCH   2   3
BRANCH   2  13
ATOM     13  C   UNL     1       5.784   4.166  17.144  0.00  0.00    +0.000 C 
BRANCH  13  14
ATOM     14  S   UNL     1       6.872   5.449  16.437  0.00  0.00    +0.000 S 
BRANCH  14  15
ATOM     15  C   UNL     1       6.947   4.927  14.737  0.00  0.00    +0.000 A 
ATOM     16  C   UNL     1       6.061   3.946  14.305  0.00  0.00    +0.000 A 
ATOM     17  C   UNL     1       6.087   3.556  12.968  0.00  0.00    +0.000 A 
ATOM     18  C   UNL     1       6.997   4.155  12.108  0.00  0.00    +0.000 A 
ATOM     19  C   UNL     1       7.851   5.114  12.624  0.00  0.00    +0.000 A 
ATOM     20  N   UNL     1       7.848   5.512  13.916  0.00  0.00    +0.000 NA
ENDBRANCH  14  15
ENDBRANCH  13  14
ENDBRANCH   2  13
TORSDOF 6
ENDMDL
