MODEL 1
REMARK VINA RESULT:      -7.8      0.000      0.000
REMARK  Name = 
REMARK  9 active torsions:
REMARK  status: ('A' for Active; 'I' for Inactive)
REMARK    1  A    between atoms: C_1  and  C_2
REMARK    2  A    between atoms: C_4  and  C_5
REMARK    3  A    between atoms: C_6  and  C_7
REMARK    4  A    between atoms: C_7  and  N_8
REMARK    5  A    between atoms: C_9  and  C_11
REMARK    6  A    between atoms: C_13  and  C_14
REMARK    7  A    between atoms: N_21  and  C_22
REMARK    8  A    between atoms: C_22  and  C_23
REMARK    9  A    between atoms: C_22  and  C_24
REMARK                            x       y       z     vdW  Elec       q    Type
REMARK                         _______ _______ _______ _____ _____    ______ ____
ROOT
ATOM      1  N   UNL     1       1.449   7.732  20.803  0.00  0.00    +0.000 N 
ATOM      2  C   UNL     1       2.009   7.395  19.589  0.00  0.00    +0.000 C 
ATOM      3  O   UNL     1       2.598   8.222  18.894  0.00  0.00    +0.000 OA
ATOM      4  H   UNL     1       1.079   7.011  21.411  0.00  0.00    +0.000 HD
ENDROOT
BRANCH   2   5
ATOM      5  C   UNL     1       1.907   5.965  19.093  0.00  0.00    +0.000 A 
ATOM      6  C   UNL     1       1.543   5.111  20.128  0.00  0.00    +0.000 A 
ATOM      7  C   UNL     1       2.476   4.160  20.576  0.00  0.00    +0.000 A 
ATOM      8  C   UNL     1       3.785   4.153  20.034  0.00  0.00    +0.000 A 
ATOM      9  C   UNL     1       4.041   4.921  18.896  0.00  0.00    +0.000 A 
ATOM     10  C   UNL     1       2.913   5.462  18.277  0.00  0.00    +0.000 A 
ATOM     11  C   UNL     1       2.665   4.299  17.254  0.00  0.00    +0.000 C 
ATOM     12  C   UNL     1       4.087   3.695  17.064  0.00  0.00    +0.000 C 
ATOM     13  N   UNL     1       5.038   4.500  17.888  0.00  0.00    +0.000 N 
BRANCH  13  14
ATOM     14  C   UNL     1       5.554   5.701  17.122  0.00  0.00    +0.000 C 
ATOM     15  C   UNL     1       6.864   6.240  17.703  0.00  0.00    +0.000 C 
ATOM     16  C   UNL     1       5.778   5.357  15.643  0.00  0.00    +0.000 C 
ENDBRANCH  13  14
BRANCH   7  17
ATOM     17  C   UNL     1       2.040   3.171  21.519  0.00  0.00    +0.000 C 
ATOM     18  N   UNL     1       1.613   2.444  22.317  0.00  0.00    +0.000 NA
ENDBRANCH   7  17
ENDBRANCH   2   5
BRANCH   1  19
ATOM     19  C   UNL     1       1.738   9.031  21.410  0.00  0.00    +0.000 C 
BRANCH  19  25
ATOM     20  C   UNL     1      -2.852  12.464  22.447  0.00  0.00    +0.000 C 
ATOM     21  C   UNL     1      -1.682  11.602  22.084  0.00  0.00    +0.000 A 
ATOM     22  C   UNL     1      -1.200  11.487  20.839  0.00  0.00    +0.000 A 
ATOM     23  C   UNL     1      -0.052  10.635  20.556  0.00  0.00    +0.000 A 
ATOM     24  C   UNL     1       0.457  10.688  19.139  0.00  0.00    +0.000 C 
ATOM     25  C   UNL     1       0.513   9.894  21.539  0.00  0.00    +0.000 A 
ATOM     26  C   UNL     1      -0.031  10.031  22.928  0.00  0.00    +0.000 A 
ATOM     27  O   UNL     1       0.454   9.422  23.879  0.00  0.00    +0.000 OA
ATOM     28  N   UNL     1      -1.094  10.883  23.093  0.00  0.00    +0.000 N 
ATOM     29  H   UNL     1      -1.438  10.969  24.041  0.00  0.00    +0.000 HD
ENDBRANCH  19  25
ENDBRANCH   1  19
TORSDOF 5
ENDMDL
MODEL 2
REMARK VINA RESULT:      -7.8      1.987      4.256
REMARK  Name = 
REMARK  9 active torsions:
REMARK  status: ('A' for Active; 'I' for Inactive)
REMARK    1  A    between atoms: C_1  and  C_2
REMARK    2  A    between atoms: C_4  and  C_5
REMARK    3  A    between atoms: C_6  and  C_7
REMARK    4  A    between atoms: C_7  and  N_8
REMARK    5  A    between atoms: C_9  and  C_11
REMARK    6  A    between atoms: C_13  and  C_14
REMARK    7  A    between atoms: N_21  and  C_22
REMARK    8  A    between atoms: C_22  and  C_23
REMARK    9  A    between atoms: C_22  and  C_24
REMARK                            x       y       z     vdW  Elec       q    Type
REMARK                         _______ _______ _______ _____ _____    ______ ____
ROOT
ATOM      1  N   UNL     1       2.570   7.764  18.609  0.00  0.00    +0.000 N 
ATOM      2  C   UNL     1       3.430   7.406  17.592  0.00  0.00    +0.000 C 
ATOM      3  O   UNL     1       3.374   7.930  16.480  0.00  0.00    +0.000 OA
ATOM      4  H   UNL     1       2.713   7.410  19.547  0.00  0.00    +0.000 HD
ENDROOT
BRANCH   2   5
ATOM      5  C   UNL     1       4.483   6.343  17.847  0.00  0.00    +0.000 A 
ATOM      6  C   UNL     1       5.125   5.995  16.664  0.00  0.00    +0.000 A 
ATOM      7  C   UNL     1       4.934   4.701  16.150  0.00  0.00    +0.000 A 
ATOM      8  C   UNL     1       4.029   3.819  16.791  0.00  0.00    +0.000 A 
ATOM      9  C   UNL     1       3.540   4.164  18.052  0.00  0.00    +0.000 A 
ATOM     10  C   UNL     1       4.164   5.258  18.653  0.00  0.00    +0.000 A 
ATOM     11  C   UNL     1       5.247   4.459  19.457  0.00  0.00    +0.000 C 
ATOM     12  C   UNL     1       4.572   3.072  19.666  0.00  0.00    +0.000 C 
ATOM     13  N   UNL     1       3.208   3.135  19.061  0.00  0.00    +0.000 N 
BRANCH  13  14
ATOM     14  C   UNL     1       2.188   3.670  20.046  0.00  0.00    +0.000 C 
ATOM     15  C   UNL     1       0.750   3.417  19.587  0.00  0.00    +0.000 C 
ATOM     16  C   UNL     1       2.379   3.039  21.433  0.00  0.00    +0.000 C 
ENDBRANCH  13  14
BRANCH   7  17
ATOM     17  C   UNL     1       5.730   4.289  15.031  0.00  0.00    +0.000 C 
ATOM     18  N   UNL     1       6.364   3.853  14.161  0.00  0.00    +0.000 NA
ENDBRANCH   7  17
ENDBRANCH   2   5
BRANCH   1  19
ATOM     19  C   UNL     1       1.714   8.942  18.466  0.00  0.00    +0.000 C 
BRANCH  19  25
ATOM     20  C   UNL     1      -1.162  10.818  23.170  0.00  0.00    +0.000 C 
ATOM     21  C   UNL     1      -0.397  10.256  22.012  0.00  0.00    +0.000 A 
ATOM     22  C   UNL     1       0.187   9.050  22.022  0.00  0.00    +0.000 A 
ATOM     23  C   UNL     1       0.911   8.559  20.857  0.00  0.00    +0.000 A 
ATOM     24  C   UNL     1       1.420   7.145  20.961  0.00  0.00    +0.000 C 
ATOM     25  C   UNL     1       1.059   9.340  19.760  0.00  0.00    +0.000 A 
ATOM     26  C   UNL     1       0.400  10.686  19.757  0.00  0.00    +0.000 A 
ATOM     27  O   UNL     1       0.455  11.434  18.784  0.00  0.00    +0.000 OA
ATOM     28  N   UNL     1      -0.285  11.040  20.893  0.00  0.00    +0.000 N 
ATOM     29  H   UNL     1      -0.732  11.947  20.865  0.00  0.00    +0.000 HD
ENDBRANCH  19  25
ENDBRANCH   1  19
TORSDOF 5
ENDMDL
MODEL 3
REMARK VINA RESULT:      -7.7      1.111      1.221
REMARK  Name = 
REMARK  9 active torsions:
REMARK  status: ('A' for Active; 'I' for Inactive)
REMARK    1  A    between atoms: C_1  and  C_2
REMARK    2  A    between atoms: C_4  and  C_5
REMARK    3  A    between atoms: C_6  and  C_7
REMARK    4  A    between atoms: C_7  and  N_8
REMARK    5  A    between atoms: C_9  and  C_11
REMARK    6  A    between atoms: C_13  and  C_14
REMARK    7  A    between atoms: N_21  and  C_22
REMARK    8  A    between atoms: C_22  and  C_23
REMARK    9  A    between atoms: C_22  and  C_24
REMARK                            x       y       z     vdW  Elec       q    Type
REMARK                         _______ _______ _______ _____ _____    ______ ____
ROOT
ATOM      1  N   UNL     1       1.701   8.186  19.248  0.00  0.00    +0.000 N 
ATOM      2  C   UNL     1       2.316   7.602  18.161  0.00  0.00    +0.000 C 
ATOM      3  O   UNL     1       2.794   8.275  17.248  0.00  0.00    +0.000 OA
ATOM      4  H   UNL     1       1.425   7.620  20.042  0.00  0.00    +0.000 HD
ENDROOT
BRANCH   2   5
ATOM      5  C   UNL     1       2.419   6.091  18.085  0.00  0.00    +0.000 A 
ATOM      6  C   UNL     1       2.000   5.509  19.277  0.00  0.00    +0.000 A 
ATOM      7  C   UNL     1       2.949   4.844  20.071  0.00  0.00    +0.000 A 
ATOM      8  C   UNL     1       4.314   4.859  19.693  0.00  0.00    +0.000 A 
ATOM      9  C   UNL     1       4.649   5.317  18.416  0.00  0.00    +0.000 A 
ATOM     10  C   UNL     1       3.570   5.520  17.555  0.00  0.00    +0.000 A 
ATOM     11  C   UNL     1       3.574   4.102  16.885  0.00  0.00    +0.000 C 
ATOM     12  C   UNL     1       5.059   3.657  17.024  0.00  0.00    +0.000 C 
ATOM     13  N   UNL     1       5.809   4.771  17.679  0.00  0.00    +0.000 N 
BRANCH  13  14
ATOM     14  C   UNL     1       6.308   5.776  16.661  0.00  0.00    +0.000 C 
ATOM     15  C   UNL     1       7.327   6.750  17.259  0.00  0.00    +0.000 C 
ATOM     16  C   UNL     1       6.952   5.069  15.459  0.00  0.00    +0.000 C 
ENDBRANCH  13  14
BRANCH   7  17
ATOM     17  C   UNL     1       2.485   4.100  21.206  0.00  0.00    +0.000 C 
ATOM     18  N   UNL     1       2.045   3.441  22.055  0.00  0.00    +0.000 NA
ENDBRANCH   7  17
ENDBRANCH   2   5
BRANCH   1  19
ATOM     19  C   UNL     1       1.800   9.629  19.462  0.00  0.00    +0.000 C 
BRANCH  19  25
ATOM     20  C   UNL     1      -2.102  11.613  23.305  0.00  0.00    +0.000 C 
ATOM     21  C   UNL     1      -1.147  11.153  22.247  0.00  0.00    +0.000 A 
ATOM     22  C   UNL     1      -1.197  11.561  20.971  0.00  0.00    +0.000 A 
ATOM     23  C   UNL     1      -0.231  11.079  19.993  0.00  0.00    +0.000 A 
ATOM     24  C   UNL     1      -0.329  11.705  18.626  0.00  0.00    +0.000 C 
ATOM     25  C   UNL     1       0.701  10.160  20.341  0.00  0.00    +0.000 A 
ATOM     26  C   UNL     1       0.751   9.712  21.770  0.00  0.00    +0.000 A 
ATOM     27  O   UNL     1       1.593   8.912  22.171  0.00  0.00    +0.000 OA
ATOM     28  N   UNL     1      -0.184  10.250  22.619  0.00  0.00    +0.000 N 
ATOM     29  H   UNL     1      -0.125   9.943  23.581  0.00  0.00    +0.000 HD
ENDBRANCH  19  25
ENDBRANCH   1  19
TORSDOF 5
ENDMDL
MODEL 4
REMARK VINA RESULT:      -7.6      1.889      4.154
REMARK  Name = 
REMARK  9 active torsions:
REMARK  status: ('A' for Active; 'I' for Inactive)
REMARK    1  A    between atoms: C_1  and  C_2
REMARK    2  A    between atoms: C_4  and  C_5
REMARK    3  A    between atoms: C_6  and  C_7
REMARK    4  A    between atoms: C_7  and  N_8
REMARK    5  A    between atoms: C_9  and  C_11
REMARK    6  A    between atoms: C_13  and  C_14
REMARK    7  A    between atoms: N_21  and  C_22
REMARK    8  A    between atoms: C_22  and  C_23
REMARK    9  A    between atoms: C_22  and  C_24
REMARK                            x       y       z     vdW  Elec       q    Type
REMARK                         _______ _______ _______ _____ _____    ______ ____
ROOT
ATOM      1  N   UNL     1       2.638   7.759  18.418  0.00  0.00    +0.000 N 
ATOM      2  C   UNL     1       3.537   7.384  17.441  0.00  0.00    +0.000 C 
ATOM      3  O   UNL     1       3.537   7.906  16.326  0.00  0.00    +0.000 OA
ATOM      4  H   UNL     1       2.735   7.405  19.362  0.00  0.00    +0.000 HD
ENDROOT
BRANCH   2   5
ATOM      5  C   UNL     1       4.561   6.307  17.744  0.00  0.00    +0.000 A 
ATOM      6  C   UNL     1       5.216   5.912  16.582  0.00  0.00    +0.000 A 
ATOM      7  C   UNL     1       5.006   4.609  16.102  0.00  0.00    +0.000 A 
ATOM      8  C   UNL     1       4.070   3.765  16.750  0.00  0.00    +0.000 A 
ATOM      9  C   UNL     1       3.567   4.156  17.992  0.00  0.00    +0.000 A 
ATOM     10  C   UNL     1       4.204   5.253  18.574  0.00  0.00    +0.000 A 
ATOM     11  C   UNL     1       5.256   4.452  19.419  0.00  0.00    +0.000 C 
ATOM     12  C   UNL     1       4.546   3.088  19.654  0.00  0.00    +0.000 C 
ATOM     13  N   UNL     1       3.195   3.162  19.023  0.00  0.00    +0.000 N 
BRANCH  13  14
ATOM     14  C   UNL     1       2.170   3.746  19.974  0.00  0.00    +0.000 C 
ATOM     15  C   UNL     1       0.734   3.457  19.529  0.00  0.00    +0.000 C 
ATOM     16  C   UNL     1       2.363   3.198  21.396  0.00  0.00    +0.000 C 
ENDBRANCH  13  14
BRANCH   7  17
ATOM     17  C   UNL     1       5.812   4.148  15.009  0.00  0.00    +0.000 C 
ATOM     18  N   UNL     1       6.375   3.729  14.084  0.00  0.00    +0.000 NA
ENDBRANCH   7  17
ENDBRANCH   2   5
BRANCH   1  19
ATOM     19  C   UNL     1       1.807   8.949  18.235  0.00  0.00    +0.000 C 
BRANCH  19  25
ATOM     20  C   UNL     1      -0.717  10.103  23.356  0.00  0.00    +0.000 C 
ATOM     21  C   UNL     1      -0.109   9.889  22.004  0.00  0.00    +0.000 A 
ATOM     22  C   UNL     1      -0.226  10.757  20.989  0.00  0.00    +0.000 A 
ATOM     23  C   UNL     1       0.397  10.490  19.700  0.00  0.00    +0.000 A 
ATOM     24  C   UNL     1       0.285  11.598  18.687  0.00  0.00    +0.000 C 
ATOM     25  C   UNL     1       1.058   9.327  19.483  0.00  0.00    +0.000 A 
ATOM     26  C   UNL     1       1.186   8.364  20.624  0.00  0.00    +0.000 A 
ATOM     27  O   UNL     1       1.804   7.308  20.516  0.00  0.00    +0.000 OA
ATOM     28  N   UNL     1       0.588   8.725  21.806  0.00  0.00    +0.000 N 
ATOM     29  H   UNL     1       0.697   8.066  22.566  0.00  0.00    +0.000 HD
ENDBRANCH  19  25
ENDBRANCH   1  19
TORSDOF 5
ENDMDL
MODEL 5
REMARK VINA RESULT:      -7.5      1.508      1.875
REMARK  Name = 
REMARK  9 active torsions:
REMARK  status: ('A' for Active; 'I' for Inactive)
REMARK    1  A    between atoms: C_1  and  C_2
REMARK    2  A    between atoms: C_4  and  C_5
REMARK    3  A    between atoms: C_6  and  C_7
REMARK    4  A    between atoms: C_7  and  N_8
REMARK    5  A    between atoms: C_9  and  C_11
REMARK    6  A    between atoms: C_13  and  C_14
REMARK    7  A    between atoms: N_21  and  C_22
REMARK    8  A    between atoms: C_22  and  C_23
REMARK    9  A    between atoms: C_22  and  C_24
REMARK                            x       y       z     vdW  Elec       q    Type
REMARK                         _______ _______ _______ _____ _____    ______ ____
ROOT
ATOM      1  N   UNL     1       1.464   7.541  20.395  0.00  0.00    +0.000 N 
ATOM      2  C   UNL     1       2.201   6.955  19.388  0.00  0.00    +0.000 C 
ATOM      3  O   UNL     1       3.076   7.572  18.782  0.00  0.00    +0.000 OA
ATOM      4  H   UNL     1       0.837   6.980  20.961  0.00  0.00    +0.000 HD
ENDROOT
BRANCH   2   5
ATOM      5  C   UNL     1       1.939   5.507  19.017  0.00  0.00    +0.000 A 
ATOM      6  C   UNL     1       1.482   4.793  20.120  0.00  0.00    +0.000 A 
ATOM      7  C   UNL     1       2.302   3.787  20.657  0.00  0.00    +0.000 A 
ATOM      8  C   UNL     1       3.601   3.586  20.130  0.00  0.00    +0.000 A 
ATOM      9  C   UNL     1       3.941   4.217  18.932  0.00  0.00    +0.000 A 
ATOM     10  C   UNL     1       2.881   4.825  18.258  0.00  0.00    +0.000 A 
ATOM     11  C   UNL     1       2.503   3.613  17.337  0.00  0.00    +0.000 C 
ATOM     12  C   UNL     1       3.848   2.838  17.214  0.00  0.00    +0.000 C 
ATOM     13  N   UNL     1       4.884   3.601  17.973  0.00  0.00    +0.000 N 
BRANCH  13  14
ATOM     14  C   UNL     1       5.532   4.665  17.110  0.00  0.00    +0.000 C 
ATOM     15  C   UNL     1       6.899   5.095  17.649  0.00  0.00    +0.000 C 
ATOM     16  C   UNL     1       5.705   4.173  15.666  0.00  0.00    +0.000 C 
ENDBRANCH  13  14
BRANCH   7  17
ATOM     17  C   UNL     1       1.758   2.939  21.678  0.00  0.00    +0.000 C 
ATOM     18  N   UNL     1       1.273   2.194  22.425  0.00  0.00    +0.000 NA
ENDBRANCH   7  17
ENDBRANCH   2   5
BRANCH   1  19
ATOM     19  C   UNL     1       1.856   8.844  20.930  0.00  0.00    +0.000 C 
BRANCH  19  25
ATOM     20  C   UNL     1      -2.517  12.612  20.153  0.00  0.00    +0.000 C 
ATOM     21  C   UNL     1      -1.416  11.642  20.449  0.00  0.00    +0.000 A 
ATOM     22  C   UNL     1      -1.200  11.108  21.659  0.00  0.00    +0.000 A 
ATOM     23  C   UNL     1      -0.113  10.162  21.877  0.00  0.00    +0.000 A 
ATOM     24  C   UNL     1      -0.054   9.552  23.252  0.00  0.00    +0.000 C 
ATOM     25  C   UNL     1       0.740   9.852  20.871  0.00  0.00    +0.000 A 
ATOM     26  C   UNL     1       0.489  10.451  19.521  0.00  0.00    +0.000 A 
ATOM     27  O   UNL     1       1.195  10.186  18.551  0.00  0.00    +0.000 OA
ATOM     28  N   UNL     1      -0.580  11.305  19.415  0.00  0.00    +0.000 N 
ATOM     29  H   UNL     1      -0.738  11.689  18.492  0.00  0.00    +0.000 HD
ENDBRANCH  19  25
ENDBRANCH   1  19
TORSDOF 5
ENDMDL
MODEL 6
REMARK VINA RESULT:      -7.3      1.595      1.994
REMARK  Name = 
REMARK  9 active torsions:
REMARK  status: ('A' for Active; 'I' for Inactive)
REMARK    1  A    between atoms: C_1  and  C_2
REMARK    2  A    between atoms: C_4  and  C_5
REMARK    3  A    between atoms: C_6  and  C_7
REMARK    4  A    between atoms: C_7  and  N_8
REMARK    5  A    between atoms: C_9  and  C_11
REMARK    6  A    between atoms: C_13  and  C_14
REMARK    7  A    between atoms: N_21  and  C_22
REMARK    8  A    between atoms: C_22  and  C_23
REMARK    9  A    between atoms: C_22  and  C_24
REMARK                            x       y       z     vdW  Elec       q    Type
REMARK                         _______ _______ _______ _____ _____    ______ ____
ROOT
ATOM      1  N   UNL     1       1.471   8.340  18.830  0.00  0.00    +0.000 N 
ATOM      2  C   UNL     1       2.381   7.733  17.990  0.00  0.00    +0.000 C 
ATOM      3  O   UNL     1       3.123   8.387  17.258  0.00  0.00    +0.000 OA
ATOM      4  H   UNL     1       0.959   7.790  19.510  0.00  0.00    +0.000 HD
ENDROOT
BRANCH   2   5
ATOM      5  C   UNL     1       2.482   6.220  17.968  0.00  0.00    +0.000 A 
ATOM      6  C   UNL     1       2.023   5.680  19.165  0.00  0.00    +0.000 A 
ATOM      7  C   UNL     1       2.944   5.041  20.012  0.00  0.00    +0.000 A 
ATOM      8  C   UNL     1       4.321   5.041  19.677  0.00  0.00    +0.000 A 
ATOM      9  C   UNL     1       4.697   5.454  18.397  0.00  0.00    +0.000 A 
ATOM     10  C   UNL     1       3.647   5.629  17.496  0.00  0.00    +0.000 A 
ATOM     11  C   UNL     1       3.669   4.189  16.875  0.00  0.00    +0.000 C 
ATOM     12  C   UNL     1       5.147   3.747  17.076  0.00  0.00    +0.000 C 
ATOM     13  N   UNL     1       5.879   4.881  17.716  0.00  0.00    +0.000 N 
BRANCH  13  14
ATOM     14  C   UNL     1       6.414   5.850  16.682  0.00  0.00    +0.000 C 
ATOM     15  C   UNL     1       7.422   6.836  17.277  0.00  0.00    +0.000 C 
ATOM     16  C   UNL     1       7.085   5.101  15.521  0.00  0.00    +0.000 C 
ENDBRANCH  13  14
BRANCH   7  17
ATOM     17  C   UNL     1       2.442   4.336  21.156  0.00  0.00    +0.000 C 
ATOM     18  N   UNL     1       2.071   3.674  22.034  0.00  0.00    +0.000 NA
ENDBRANCH   7  17
ENDBRANCH   2   5
BRANCH   1  19
ATOM     19  C   UNL     1       1.520   9.786  19.046  0.00  0.00    +0.000 C 
BRANCH  19  25
ATOM     20  C   UNL     1      -2.068  11.662  23.232  0.00  0.00    +0.000 C 
ATOM     21  C   UNL     1      -1.107  11.118  22.222  0.00  0.00    +0.000 A 
ATOM     22  C   UNL     1      -0.260  10.109  22.469  0.00  0.00    +0.000 A 
ATOM     23  C   UNL     1       0.646   9.622  21.437  0.00  0.00    +0.000 A 
ATOM     24  C   UNL     1       1.460   8.411  21.811  0.00  0.00    +0.000 C 
ATOM     25  C   UNL     1       0.692  10.223  20.224  0.00  0.00    +0.000 A 
ATOM     26  C   UNL     1      -0.260  11.348  19.956  0.00  0.00    +0.000 A 
ATOM     27  O   UNL     1      -0.305  11.915  18.867  0.00  0.00    +0.000 OA
ATOM     28  N   UNL     1      -1.094  11.709  20.985  0.00  0.00    +0.000 N 
ATOM     29  H   UNL     1      -1.736  12.463  20.779  0.00  0.00    +0.000 HD
ENDBRANCH  19  25
ENDBRANCH   1  19
TORSDOF 5
ENDMDL
MODEL 7
REMARK VINA RESULT:      -7.2      1.409      1.584
REMARK  Name = 
REMARK  9 active torsions:
REMARK  status: ('A' for Active; 'I' for Inactive)
REMARK    1  A    between atoms: C_1  and  C_2
REMARK    2  A    between atoms: C_4  and  C_5
REMARK    3  A    between atoms: C_6  and  C_7
REMARK    4  A    between atoms: C_7  and  N_8
REMARK    5  A    between atoms: C_9  and  C_11
REMARK    6  A    between atoms: C_13  and  C_14
REMARK    7  A    between atoms: N_21  and  C_22
REMARK    8  A    between atoms: C_22  and  C_23
REMARK    9  A    between atoms: C_22  and  C_24
REMARK                            x       y       z     vdW  Elec       q    Type
REMARK                         _______ _______ _______ _____ _____    ______ ____
ROOT
ATOM      1  N   UNL     1       1.556   8.222  19.135  0.00  0.00    +0.000 N 
ATOM      2  C   UNL     1       2.400   7.601  18.239  0.00  0.00    +0.000 C 
ATOM      3  O   UNL     1       3.165   8.242  17.518  0.00  0.00    +0.000 OA
ATOM      4  H   UNL     1       1.027   7.672  19.801  0.00  0.00    +0.000 HD
ENDROOT
BRANCH   2   5
ATOM      5  C   UNL     1       2.399   6.088  18.139  0.00  0.00    +0.000 A 
ATOM      6  C   UNL     1       1.963   5.517  19.330  0.00  0.00    +0.000 A 
ATOM      7  C   UNL     1       2.879   4.777  20.096  0.00  0.00    +0.000 A 
ATOM      8  C   UNL     1       4.235   4.706  19.692  0.00  0.00    +0.000 A 
ATOM      9  C   UNL     1       4.576   5.160  18.417  0.00  0.00    +0.000 A 
ATOM     10  C   UNL     1       3.498   5.449  17.579  0.00  0.00    +0.000 A 
ATOM     11  C   UNL     1       3.395   4.044  16.888  0.00  0.00    +0.000 C 
ATOM     12  C   UNL     1       4.848   3.498  16.993  0.00  0.00    +0.000 C 
ATOM     13  N   UNL     1       5.683   4.548  17.649  0.00  0.00    +0.000 N 
BRANCH  13  14
ATOM     14  C   UNL     1       6.232   5.533  16.637  0.00  0.00    +0.000 C 
ATOM     15  C   UNL     1       7.158   6.570  17.279  0.00  0.00    +0.000 C 
ATOM     16  C   UNL     1       7.003   4.808  15.525  0.00  0.00    +0.000 C 
ENDBRANCH  13  14
BRANCH   7  17
ATOM     17  C   UNL     1       2.385   4.048  21.228  0.00  0.00    +0.000 C 
ATOM     18  N   UNL     1       2.050   3.375  22.113  0.00  0.00    +0.000 NA
ENDBRANCH   7  17
ENDBRANCH   2   5
BRANCH   1  19
ATOM     19  C   UNL     1       1.708   9.649  19.421  0.00  0.00    +0.000 C 
BRANCH  19  25
ATOM     20  C   UNL     1      -3.117  12.715  20.538  0.00  0.00    +0.000 C 
ATOM     21  C   UNL     1      -1.924  11.887  20.173  0.00  0.00    +0.000 A 
ATOM     22  C   UNL     1      -1.861  11.111  19.082  0.00  0.00    +0.000 A 
ATOM     23  C   UNL     1      -0.665  10.336  18.782  0.00  0.00    +0.000 A 
ATOM     24  C   UNL     1      -0.685   9.600  17.468  0.00  0.00    +0.000 C 
ATOM     25  C   UNL     1       0.388  10.338  19.635  0.00  0.00    +0.000 A 
ATOM     26  C   UNL     1       0.310  11.211  20.850  0.00  0.00    +0.000 A 
ATOM     27  O   UNL     1       1.240  11.297  21.648  0.00  0.00    +0.000 OA
ATOM     28  N   UNL     1      -0.849  11.925  21.024  0.00  0.00    +0.000 N 
ATOM     29  H   UNL     1      -0.875  12.516  21.845  0.00  0.00    +0.000 HD
ENDBRANCH  19  25
ENDBRANCH   1  19
TORSDOF 5
ENDMDL
MODEL 8
REMARK VINA RESULT:      -7.1      2.113      4.221
REMARK  Name = 
REMARK  9 active torsions:
REMARK  status: ('A' for Active; 'I' for Inactive)
REMARK    1  A    between atoms: C_1  and  C_2
REMARK    2  A    between atoms: C_4  and  C_5
REMARK    3  A    between atoms: C_6  and  C_7
REMARK    4  A    between atoms: C_7  and  N_8
REMARK    5  A    between atoms: C_9  and  C_11
REMARK    6  A    between atoms: C_13  and  C_14
REMARK    7  A    between atoms: N_21  and  C_22
REMARK    8  A    between atoms: C_22  and  C_23
REMARK    9  A    between atoms: C_22  and  C_24
REMARK                            x       y       z     vdW  Elec       q    Type
REMARK                         _______ _______ _______ _____ _____    ______ ____
ROOT
ATOM      1  N   UNL     1       2.646   8.928  18.250  0.00  0.00    +0.000 N 
ATOM      2  C   UNL     1       2.593   7.566  18.041  0.00  0.00    +0.000 C 
ATOM      3  O   UNL     1       1.566   7.009  17.654  0.00  0.00    +0.000 OA
ATOM      4  H   UNL     1       3.532   9.379  18.449  0.00  0.00    +0.000 HD
ENDROOT
BRANCH   2   5
ATOM      5  C   UNL     1       3.832   6.725  18.283  0.00  0.00    +0.000 A 
ATOM      6  C   UNL     1       4.653   6.725  17.160  0.00  0.00    +0.000 A 
ATOM      7  C   UNL     1       4.819   5.526  16.448  0.00  0.00    +0.000 A 
ATOM      8  C   UNL     1       4.083   4.376  16.829  0.00  0.00    +0.000 A 
ATOM      9  C   UNL     1       3.404   4.392  18.049  0.00  0.00    +0.000 A 
ATOM     10  C   UNL     1       3.694   5.477  18.877  0.00  0.00    +0.000 A 
ATOM     11  C   UNL     1       4.848   4.803  19.699  0.00  0.00    +0.000 C 
ATOM     12  C   UNL     1       4.494   3.290  19.617  0.00  0.00    +0.000 C 
ATOM     13  N   UNL     1       3.221   3.161  18.848  0.00  0.00    +0.000 N 
BRANCH  13  14
ATOM     14  C   UNL     1       2.011   3.293  19.751  0.00  0.00    +0.000 C 
ATOM     15  C   UNL     1       0.771   2.615  19.164  0.00  0.00    +0.000 C 
ATOM     16  C   UNL     1       2.291   2.690  21.136  0.00  0.00    +0.000 C 
ENDBRANCH  13  14
BRANCH   7  17
ATOM     17  C   UNL     1       5.797   5.487  15.400  0.00  0.00    +0.000 C 
ATOM     18  N   UNL     1       6.657   5.509  14.619  0.00  0.00    +0.000 NA
ENDBRANCH   7  17
ENDBRANCH   2   5
BRANCH   1  19
ATOM     19  C   UNL     1       1.550   9.784  17.799  0.00  0.00    +0.000 C 
BRANCH  19  25
ATOM     20  C   UNL     1       0.106  13.489  22.055  0.00  0.00    +0.000 C 
ATOM     21  C   UNL     1       0.527  12.611  20.918  0.00  0.00    +0.000 A 
ATOM     22  C   UNL     1       1.339  13.010  19.929  0.00  0.00    +0.000 A 
ATOM     23  C   UNL     1       1.715  12.101  18.855  0.00  0.00    +0.000 A 
ATOM     24  C   UNL     1       2.723  12.641  17.875  0.00  0.00    +0.000 C 
ATOM     25  C   UNL     1       1.199  10.849  18.801  0.00  0.00    +0.000 A 
ATOM     26  C   UNL     1       0.294  10.410  19.912  0.00  0.00    +0.000 A 
ATOM     27  O   UNL     1      -0.180   9.277  19.954  0.00  0.00    +0.000 OA
ATOM     28  N   UNL     1       0.028  11.333  20.893  0.00  0.00    +0.000 N 
ATOM     29  H   UNL     1      -0.576  11.012  21.638  0.00  0.00    +0.000 HD
ENDBRANCH  19  25
ENDBRANCH   1  19
TORSDOF 5
ENDMDL
MODEL 9
REMARK VINA RESULT:      -7.1      2.456      4.427
REMARK  Name = 
REMARK  9 active torsions:
REMARK  status: ('A' for Active; 'I' for Inactive)
REMARK    1  A    between atoms: C_1  and  C_2
REMARK    2  A    between atoms: C_4  and  C_5
REMARK    3  A    between atoms: C_6  and  C_7
REMARK    4  A    between atoms: C_7  and  N_8
REMARK    5  A    between atoms: C_9  and  C_11
REMARK    6  A    between atoms: C_13  and  C_14
REMARK    7  A    between atoms: N_21  and  C_22
REMARK    8  A    between atoms: C_22  and  C_23
REMARK    9  A    between atoms: C_22  and  C_24
REMARK                            x       y       z     vdW  Elec       q    Type
REMARK                         _______ _______ _______ _____ _____    ______ ____
ROOT
ATOM      1  N   UNL     1       2.543   8.759  18.559  0.00  0.00    +0.000 N 
ATOM      2  C   UNL     1       2.589   7.478  18.050  0.00  0.00    +0.000 C 
ATOM      3  O   UNL     1       1.651   6.999  17.413  0.00  0.00    +0.000 OA
ATOM      4  H   UNL     1       3.370   9.173  18.972  0.00  0.00    +0.000 HD
ENDROOT
BRANCH   2   5
ATOM      5  C   UNL     1       3.830   6.633  18.268  0.00  0.00    +0.000 A 
ATOM      6  C   UNL     1       4.645   6.658  17.141  0.00  0.00    +0.000 A 
ATOM      7  C   UNL     1       4.808   5.474  16.403  0.00  0.00    +0.000 A 
ATOM      8  C   UNL     1       4.075   4.316  16.763  0.00  0.00    +0.000 A 
ATOM      9  C   UNL     1       3.402   4.305  17.986  0.00  0.00    +0.000 A 
ATOM     10  C   UNL     1       3.695   5.372  18.836  0.00  0.00    +0.000 A 
ATOM     11  C   UNL     1       4.853   4.682  19.638  0.00  0.00    +0.000 C 
ATOM     12  C   UNL     1       4.500   3.171  19.525  0.00  0.00    +0.000 C 
ATOM     13  N   UNL     1       3.223   3.057  18.759  0.00  0.00    +0.000 N 
BRANCH  13  14
ATOM     14  C   UNL     1       2.018   3.169  19.671  0.00  0.00    +0.000 C 
ATOM     15  C   UNL     1       0.778   2.495  19.079  0.00  0.00    +0.000 C 
ATOM     16  C   UNL     1       2.307   2.545  21.044  0.00  0.00    +0.000 C 
ENDBRANCH  13  14
BRANCH   7  17
ATOM     17  C   UNL     1       5.782   5.458  15.349  0.00  0.00    +0.000 C 
ATOM     18  N   UNL     1       6.589   5.341  14.522  0.00  0.00    +0.000 NA
ENDBRANCH   7  17
ENDBRANCH   2   5
BRANCH   1  19
ATOM     19  C   UNL     1       1.469   9.669  18.162  0.00  0.00    +0.000 C 
BRANCH  19  25
ATOM     20  C   UNL     1       0.652  14.281  21.624  0.00  0.00    +0.000 C 
ATOM     21  C   UNL     1       0.812  13.041  20.800  0.00  0.00    +0.000 A 
ATOM     22  C   UNL     1       0.257  11.862  21.114  0.00  0.00    +0.000 A 
ATOM     23  C   UNL     1       0.447  10.695  20.262  0.00  0.00    +0.000 A 
ATOM     24  C   UNL     1      -0.325   9.467  20.668  0.00  0.00    +0.000 C 
ATOM     25  C   UNL     1       1.241  10.765  19.166  0.00  0.00    +0.000 A 
ATOM     26  C   UNL     1       1.854  12.088  18.822  0.00  0.00    +0.000 A 
ATOM     27  O   UNL     1       2.552  12.240  17.822  0.00  0.00    +0.000 OA
ATOM     28  N   UNL     1       1.587  13.132  19.673  0.00  0.00    +0.000 N 
ATOM     29  H   UNL     1       2.002  14.018  19.415  0.00  0.00    +0.000 HD
ENDBRANCH  19  25
ENDBRANCH   1  19
TORSDOF 5
ENDMDL
