MODEL 1
REMARK VINA RESULT:      -7.5      0.000      0.000
REMARK  Name = 
REMARK  6 active torsions:
REMARK  status: ('A' for Active; 'I' for Inactive)
REMARK    1  A    between atoms: C_1  and  C_2
REMARK    2  A    between atoms: C_2  and  C_3
REMARK    3  A    between atoms: C_2  and  N_4
REMARK    4  A    between atoms: C_2  and  C_16
REMARK    5  A    between atoms: N_6  and  C_7
REMARK    6  A    between atoms: N_9  and  C_10
REMARK                            x       y       z     vdW  Elec       q    Type
REMARK                         _______ _______ _______ _____ _____    ______ ____
ROOT
ATOM      1  N   UNL     1       5.289   4.268  16.811  0.00  0.00    +0.000 N 
ATOM      2  C   UNL     1       4.727   4.316  18.070  0.00  0.00    +0.000 C 
ATOM      3  N   UNL     1       5.107   4.788  19.209  0.00  0.00    +0.000 NA
ATOM      4  N   UNL     1       3.483   3.702  17.990  0.00  0.00    +0.000 N 
ATOM      5  H   UNL     1       5.185   3.350  16.385  0.00  0.00    +0.000 HD
ATOM      6  H   UNL     1       2.985   3.844  17.121  0.00  0.00    +0.000 HD
ENDROOT
BRANCH   4   7
ATOM      7  C   UNL     1       2.679   3.390  19.110  0.00  0.00    +0.000 A 
ATOM      8  C   UNL     1       1.405   3.937  19.256  0.00  0.00    +0.000 A 
ATOM      9  C   UNL     1       0.691   3.662  20.416  0.00  0.00    +0.000 A 
ATOM     10  N   UNL     1       1.150   2.893  21.426  0.00  0.00    +0.000 NA
ATOM     11  C   UNL     1       2.383   2.375  21.270  0.00  0.00    +0.000 A 
ATOM     12  C   UNL     1       3.162   2.584  20.147  0.00  0.00    +0.000 A 
ENDBRANCH   4   7
BRANCH   1  14
ATOM     13  C   UNL     1       6.256   6.505  16.351  0.00  0.00    +0.000 C 
ATOM     14  C   UNL     1       6.448   4.981  16.252  0.00  0.00    +0.000 C 
ATOM     15  C   UNL     1       7.727   4.442  16.930  0.00  0.00    +0.000 C 
BRANCH  14  16
ATOM     16  C   UNL     1       6.549   4.722  14.723  0.00  0.00    +0.000 A 
ATOM     17  C   UNL     1       5.708   3.775  14.100  0.00  0.00    +0.000 A 
ATOM     18  C   UNL     1       5.849   3.453  12.749  0.00  0.00    +0.000 A 
ATOM     19  C   UNL     1       6.842   4.062  11.990  0.00  0.00    +0.000 A 
ATOM     20  C   UNL     1       7.692   4.992  12.582  0.00  0.00    +0.000 A 
ATOM     21  C   UNL     1       7.553   5.315  13.936  0.00  0.00    +0.000 A 
ENDBRANCH  14  16
ENDBRANCH   1  14
BRANCH   3  22
ATOM     22  C   UNL     1       6.301   5.286  19.479  0.00  0.00    +0.000 C 
ATOM     23  N   UNL     1       7.359   5.690  19.739  0.00  0.00    +0.000 NA
ENDBRANCH   3  22
TORSDOF 4
ENDMDL
MODEL 2
REMARK VINA RESULT:      -7.4      0.128      1.026
REMARK  Name = 
REMARK  6 active torsions:
REMARK  status: ('A' for Active; 'I' for Inactive)
REMARK    1  A    between atoms: C_1  and  C_2
REMARK    2  A    between atoms: C_2  and  C_3
REMARK    3  A    between atoms: C_2  and  N_4
REMARK    4  A    between atoms: C_2  and  C_16
REMARK    5  A    between atoms: N_6  and  C_7
REMARK    6  A    between atoms: N_9  and  C_10
REMARK                            x       y       z     vdW  Elec       q    Type
REMARK                         _______ _______ _______ _____ _____    ______ ____
ROOT
ATOM      1  N   UNL     1       5.339   4.340  16.833  0.00  0.00    +0.000 N 
ATOM      2  C   UNL     1       4.804   4.413  18.103  0.00  0.00    +0.000 C 
ATOM      3  N   UNL     1       5.224   4.873  19.233  0.00  0.00    +0.000 NA
ATOM      4  N   UNL     1       3.536   3.846  18.050  0.00  0.00    +0.000 N 
ATOM      5  H   UNL     1       5.192   3.426  16.413  0.00  0.00    +0.000 HD
ATOM      6  H   UNL     1       3.027   4.004  17.191  0.00  0.00    +0.000 HD
ENDROOT
BRANCH   4   7
ATOM      7  C   UNL     1       2.744   3.567  19.187  0.00  0.00    +0.000 A 
ATOM      8  C   UNL     1       3.137   2.607  20.119  0.00  0.00    +0.000 A 
ATOM      9  C   UNL     1       2.281   2.315  21.175  0.00  0.00    +0.000 A 
ATOM     10  N   UNL     1       1.080   2.902  21.363  0.00  0.00    +0.000 NA
ATOM     11  C   UNL     1       0.715   3.824  20.453  0.00  0.00    +0.000 A 
ATOM     12  C   UNL     1       1.505   4.189  19.378  0.00  0.00    +0.000 A 
ENDBRANCH   4   7
BRANCH   1  14
ATOM     13  C   UNL     1       6.376   6.538  16.340  0.00  0.00    +0.000 C 
ATOM     14  C   UNL     1       6.512   5.008  16.249  0.00  0.00    +0.000 C 
ATOM     15  C   UNL     1       7.783   4.428  16.909  0.00  0.00    +0.000 C 
BRANCH  14  16
ATOM     16  C   UNL     1       6.577   4.735  14.720  0.00  0.00    +0.000 A 
ATOM     17  C   UNL     1       5.703   3.801  14.122  0.00  0.00    +0.000 A 
ATOM     18  C   UNL     1       5.811   3.465  12.771  0.00  0.00    +0.000 A 
ATOM     19  C   UNL     1       6.800   4.047  11.988  0.00  0.00    +0.000 A 
ATOM     20  C   UNL     1       7.683   4.962  12.555  0.00  0.00    +0.000 A 
ATOM     21  C   UNL     1       7.577   5.299  13.908  0.00  0.00    +0.000 A 
ENDBRANCH  14  16
ENDBRANCH   1  14
BRANCH   3  22
ATOM     22  C   UNL     1       6.442   5.327  19.478  0.00  0.00    +0.000 C 
ATOM     23  N   UNL     1       7.514   5.699  19.725  0.00  0.00    +0.000 NA
ENDBRANCH   3  22
TORSDOF 4
ENDMDL
MODEL 3
REMARK VINA RESULT:      -7.3      0.086      1.054
REMARK  Name = 
REMARK  6 active torsions:
REMARK  status: ('A' for Active; 'I' for Inactive)
REMARK    1  A    between atoms: C_1  and  C_2
REMARK    2  A    between atoms: C_2  and  C_3
REMARK    3  A    between atoms: C_2  and  N_4
REMARK    4  A    between atoms: C_2  and  C_16
REMARK    5  A    between atoms: N_6  and  C_7
REMARK    6  A    between atoms: N_9  and  C_10
REMARK                            x       y       z     vdW  Elec       q    Type
REMARK                         _______ _______ _______ _____ _____    ______ ____
ROOT
ATOM      1  N   UNL     1       5.313   4.212  16.795  0.00  0.00    +0.000 N 
ATOM      2  C   UNL     1       4.727   4.286  18.042  0.00  0.00    +0.000 C 
ATOM      3  N   UNL     1       5.087   4.779  19.178  0.00  0.00    +0.000 NA
ATOM      4  N   UNL     1       3.484   3.672  17.950  0.00  0.00    +0.000 N 
ATOM      5  H   UNL     1       5.216   3.287  16.385  0.00  0.00    +0.000 HD
ATOM      6  H   UNL     1       3.003   3.797  17.069  0.00  0.00    +0.000 HD
ENDROOT
BRANCH   4   7
ATOM      7  C   UNL     1       2.659   3.383  19.061  0.00  0.00    +0.000 A 
ATOM      8  C   UNL     1       1.413   3.993  19.209  0.00  0.00    +0.000 A 
ATOM      9  C   UNL     1       0.679   3.735  20.362  0.00  0.00    +0.000 A 
ATOM     10  N   UNL     1       1.093   2.926  21.360  0.00  0.00    +0.000 NA
ATOM     11  C   UNL     1       2.298   2.348  21.202  0.00  0.00    +0.000 A 
ATOM     12  C   UNL     1       3.093   2.536  20.086  0.00  0.00    +0.000 A 
ENDBRANCH   4   7
BRANCH   1  14
ATOM     13  C   UNL     1       6.267   6.437  16.254  0.00  0.00    +0.000 C 
ATOM     14  C   UNL     1       6.484   4.913  16.244  0.00  0.00    +0.000 C 
ATOM     15  C   UNL     1       7.742   4.431  16.999  0.00  0.00    +0.000 C 
BRANCH  14  16
ATOM     16  C   UNL     1       6.649   4.576  14.736  0.00  0.00    +0.000 A 
ATOM     17  C   UNL     1       7.606   5.254  13.950  0.00  0.00    +0.000 A 
ATOM     18  C   UNL     1       7.702   5.040  12.575  0.00  0.00    +0.000 A 
ATOM     19  C   UNL     1       6.837   4.151  11.948  0.00  0.00    +0.000 A 
ATOM     20  C   UNL     1       5.877   3.477  12.696  0.00  0.00    +0.000 A 
ATOM     21  C   UNL     1       5.778   3.691  14.075  0.00  0.00    +0.000 A 
ENDBRANCH  14  16
ENDBRANCH   1  14
BRANCH   3  22
ATOM     22  C   UNL     1       6.276   5.282  19.462  0.00  0.00    +0.000 C 
ATOM     23  N   UNL     1       7.337   5.704  19.677  0.00  0.00    +0.000 NA
ENDBRANCH   3  22
TORSDOF 4
ENDMDL
MODEL 4
REMARK VINA RESULT:      -7.2      0.202      1.465
REMARK  Name = 
REMARK  6 active torsions:
REMARK  status: ('A' for Active; 'I' for Inactive)
REMARK    1  A    between atoms: C_1  and  C_2
REMARK    2  A    between atoms: C_2  and  C_3
REMARK    3  A    between atoms: C_2  and  N_4
REMARK    4  A    between atoms: C_2  and  C_16
REMARK    5  A    between atoms: N_6  and  C_7
REMARK    6  A    between atoms: N_9  and  C_10
REMARK                            x       y       z     vdW  Elec       q    Type
REMARK                         _______ _______ _______ _____ _____    ______ ____
ROOT
ATOM      1  N   UNL     1       5.375   4.288  16.816  0.00  0.00    +0.000 N 
ATOM      2  C   UNL     1       4.810   4.381  18.071  0.00  0.00    +0.000 C 
ATOM      3  N   UNL     1       5.205   4.857  19.204  0.00  0.00    +0.000 NA
ATOM      4  N   UNL     1       3.542   3.816  17.996  0.00  0.00    +0.000 N 
ATOM      5  H   UNL     1       5.236   3.368  16.405  0.00  0.00    +0.000 HD
ATOM      6  H   UNL     1       3.054   3.963  17.123  0.00  0.00    +0.000 HD
ENDROOT
BRANCH   4   7
ATOM      7  C   UNL     1       2.723   3.556  19.118  0.00  0.00    +0.000 A 
ATOM      8  C   UNL     1       2.984   2.479  19.965  0.00  0.00    +0.000 A 
ATOM      9  C   UNL     1       2.099   2.221  21.005  0.00  0.00    +0.000 A 
ATOM     10  N   UNL     1       0.989   2.948  21.256  0.00  0.00    +0.000 NA
ATOM     11  C   UNL     1       0.751   3.981  20.428  0.00  0.00    +0.000 A 
ATOM     12  C   UNL     1       1.580   4.321  19.374  0.00  0.00    +0.000 A 
ENDBRANCH   4   7
BRANCH   1  14
ATOM     13  C   UNL     1       6.402   6.475  16.257  0.00  0.00    +0.000 C 
ATOM     14  C   UNL     1       6.564   4.945  16.250  0.00  0.00    +0.000 C 
ATOM     15  C   UNL     1       7.812   4.420  16.993  0.00  0.00    +0.000 C 
BRANCH  14  16
ATOM     16  C   UNL     1       6.700   4.596  14.741  0.00  0.00    +0.000 A 
ATOM     17  C   UNL     1       7.648   5.262  13.935  0.00  0.00    +0.000 A 
ATOM     18  C   UNL     1       7.719   5.039  12.559  0.00  0.00    +0.000 A 
ATOM     19  C   UNL     1       6.837   4.152  11.953  0.00  0.00    +0.000 A 
ATOM     20  C   UNL     1       5.884   3.490  12.723  0.00  0.00    +0.000 A 
ATOM     21  C   UNL     1       5.811   3.713  14.102  0.00  0.00    +0.000 A 
ENDBRANCH  14  16
ENDBRANCH   1  14
BRANCH   3  22
ATOM     22  C   UNL     1       6.417   5.311  19.471  0.00  0.00    +0.000 C 
ATOM     23  N   UNL     1       7.477   5.699  19.745  0.00  0.00    +0.000 NA
ENDBRANCH   3  22
TORSDOF 4
ENDMDL
MODEL 5
REMARK VINA RESULT:      -7.1      3.489      4.999
REMARK  Name = 
REMARK  6 active torsions:
REMARK  status: ('A' for Active; 'I' for Inactive)
REMARK    1  A    between atoms: C_1  and  C_2
REMARK    2  A    between atoms: C_2  and  C_3
REMARK    3  A    between atoms: C_2  and  N_4
REMARK    4  A    between atoms: C_2  and  C_16
REMARK    5  A    between atoms: N_6  and  C_7
REMARK    6  A    between atoms: N_9  and  C_10
REMARK                            x       y       z     vdW  Elec       q    Type
REMARK                         _______ _______ _______ _____ _____    ______ ____
ROOT
ATOM      1  N   UNL     1       3.129   5.632  18.581  0.00  0.00    +0.000 N 
ATOM      2  C   UNL     1       2.301   6.120  19.572  0.00  0.00    +0.000 C 
ATOM      3  N   UNL     1       1.537   5.575  20.457  0.00  0.00    +0.000 NA
ATOM      4  N   UNL     1       2.379   7.507  19.527  0.00  0.00    +0.000 N 
ATOM      5  H   UNL     1       3.010   6.134  17.706  0.00  0.00    +0.000 HD
ATOM      6  H   UNL     1       3.287   7.882  19.286  0.00  0.00    +0.000 HD
ENDROOT
BRANCH   4   7
ATOM      7  C   UNL     1       1.536   8.372  20.262  0.00  0.00    +0.000 A 
ATOM      8  C   UNL     1       0.748   9.325  19.618  0.00  0.00    +0.000 A 
ATOM      9  C   UNL     1       0.000  10.204  20.393  0.00  0.00    +0.000 A 
ATOM     10  N   UNL     1      -0.015  10.201  21.743  0.00  0.00    +0.000 NA
ATOM     11  C   UNL     1       0.754   9.277  22.348  0.00  0.00    +0.000 A 
ATOM     12  C   UNL     1       1.521   8.355  21.661  0.00  0.00    +0.000 A 
ENDBRANCH   4   7
BRANCH   1  14
ATOM     13  C   UNL     1       4.189   3.657  19.644  0.00  0.00    +0.000 C 
ATOM     14  C   UNL     1       3.639   4.272  18.345  0.00  0.00    +0.000 C 
ATOM     15  C   UNL     1       2.530   3.448  17.654  0.00  0.00    +0.000 C 
BRANCH  14  16
ATOM     16  C   UNL     1       4.879   4.322  17.408  0.00  0.00    +0.000 A 
ATOM     17  C   UNL     1       6.166   4.561  17.935  0.00  0.00    +0.000 A 
ATOM     18  C   UNL     1       7.277   4.710  17.104  0.00  0.00    +0.000 A 
ATOM     19  C   UNL     1       7.127   4.635  15.724  0.00  0.00    +0.000 A 
ATOM     20  C   UNL     1       5.867   4.411  15.177  0.00  0.00    +0.000 A 
ATOM     21  C   UNL     1       4.752   4.262  16.008  0.00  0.00    +0.000 A 
ENDBRANCH  14  16
ENDBRANCH   1  14
BRANCH   3  22
ATOM     22  C   UNL     1       1.259   4.286  20.550  0.00  0.00    +0.000 C 
ATOM     23  N   UNL     1       1.019   3.157  20.673  0.00  0.00    +0.000 NA
ENDBRANCH   3  22
TORSDOF 4
ENDMDL
MODEL 6
REMARK VINA RESULT:      -7.1      3.650      4.994
REMARK  Name = 
REMARK  6 active torsions:
REMARK  status: ('A' for Active; 'I' for Inactive)
REMARK    1  A    between atoms: C_1  and  C_2
REMARK    2  A    between atoms: C_2  and  C_3
REMARK    3  A    between atoms: C_2  and  N_4
REMARK    4  A    between atoms: C_2  and  C_16
REMARK    5  A    between atoms: N_6  and  C_7
REMARK    6  A    between atoms: N_9  and  C_10
REMARK                            x       y       z     vdW  Elec       q    Type
REMARK                         _______ _______ _______ _____ _____    ______ ____
ROOT
ATOM      1  N   UNL     1       2.995   6.032  18.574  0.00  0.00    +0.000 N 
ATOM      2  C   UNL     1       2.190   6.430  19.622  0.00  0.00    +0.000 C 
ATOM      3  N   UNL     1       1.507   5.806  20.521  0.00  0.00    +0.000 NA
ATOM      4  N   UNL     1       2.181   7.820  19.630  0.00  0.00    +0.000 N 
ATOM      5  H   UNL     1       2.801   6.558  17.726  0.00  0.00    +0.000 HD
ATOM      6  H   UNL     1       3.050   8.260  19.360  0.00  0.00    +0.000 HD
ENDROOT
BRANCH   4   7
ATOM      7  C   UNL     1       1.325   8.602  20.439  0.00  0.00    +0.000 A 
ATOM      8  C   UNL     1       0.423   9.501  19.871  0.00  0.00    +0.000 A 
ATOM      9  C   UNL     1      -0.336  10.304  20.714  0.00  0.00    +0.000 A 
ATOM     10  N   UNL     1      -0.260  10.276  22.062  0.00  0.00    +0.000 NA
ATOM     11  C   UNL     1       0.618   9.404  22.593  0.00  0.00    +0.000 A 
ATOM     12  C   UNL     1       1.406   8.558  21.835  0.00  0.00    +0.000 A 
ENDBRANCH   4   7
BRANCH   1  14
ATOM     13  C   UNL     1       4.242   4.097  19.500  0.00  0.00    +0.000 C 
ATOM     14  C   UNL     1       3.574   4.717  18.259  0.00  0.00    +0.000 C 
ATOM     15  C   UNL     1       2.479   3.844  17.606  0.00  0.00    +0.000 C 
BRANCH  14  16
ATOM     16  C   UNL     1       4.748   4.877  17.252  0.00  0.00    +0.000 A 
ATOM     17  C   UNL     1       4.856   4.021  16.135  0.00  0.00    +0.000 A 
ATOM     18  C   UNL     1       5.954   4.081  15.275  0.00  0.00    +0.000 A 
ATOM     19  C   UNL     1       6.976   4.991  15.517  0.00  0.00    +0.000 A 
ATOM     20  C   UNL     1       6.901   5.839  16.617  0.00  0.00    +0.000 A 
ATOM     21  C   UNL     1       5.802   5.780  17.481  0.00  0.00    +0.000 A 
ENDBRANCH  14  16
ENDBRANCH   1  14
BRANCH   3  22
ATOM     22  C   UNL     1       1.313   4.499  20.576  0.00  0.00    +0.000 C 
ATOM     23  N   UNL     1       1.103   3.358  20.616  0.00  0.00    +0.000 NA
ENDBRANCH   3  22
TORSDOF 4
ENDMDL
MODEL 7
REMARK VINA RESULT:      -7.0      3.535      5.053
REMARK  Name = 
REMARK  6 active torsions:
REMARK  status: ('A' for Active; 'I' for Inactive)
REMARK    1  A    between atoms: C_1  and  C_2
REMARK    2  A    between atoms: C_2  and  C_3
REMARK    3  A    between atoms: C_2  and  N_4
REMARK    4  A    between atoms: C_2  and  C_16
REMARK    5  A    between atoms: N_6  and  C_7
REMARK    6  A    between atoms: N_9  and  C_10
REMARK                            x       y       z     vdW  Elec       q    Type
REMARK                         _______ _______ _______ _____ _____    ______ ____
ROOT
ATOM      1  N   UNL     1       3.088   5.814  18.600  0.00  0.00    +0.000 N 
ATOM      2  C   UNL     1       2.260   6.278  19.601  0.00  0.00    +0.000 C 
ATOM      3  N   UNL     1       1.506   5.712  20.482  0.00  0.00    +0.000 NA
ATOM      4  N   UNL     1       2.321   7.666  19.576  0.00  0.00    +0.000 N 
ATOM      5  H   UNL     1       2.959   6.327  17.732  0.00  0.00    +0.000 HD
ATOM      6  H   UNL     1       3.223   8.056  19.335  0.00  0.00    +0.000 HD
ENDROOT
BRANCH   4   7
ATOM      7  C   UNL     1       1.471   8.511  20.326  0.00  0.00    +0.000 A 
ATOM      8  C   UNL     1       1.455   8.460  21.720  0.00  0.00    +0.000 A 
ATOM      9  C   UNL     1       0.542   9.254  22.404  0.00  0.00    +0.000 A 
ATOM     10  N   UNL     1      -0.342  10.081  21.807  0.00  0.00    +0.000 NA
ATOM     11  C   UNL     1      -0.315  10.116  20.462  0.00  0.00    +0.000 A 
ATOM     12  C   UNL     1       0.565   9.371  19.697  0.00  0.00    +0.000 A 
ENDBRANCH   4   7
BRANCH   1  14
ATOM     13  C   UNL     1       4.161   3.830  19.634  0.00  0.00    +0.000 C 
ATOM     14  C   UNL     1       3.613   4.463  18.342  0.00  0.00    +0.000 C 
ATOM     15  C   UNL     1       2.517   3.641  17.629  0.00  0.00    +0.000 C 
BRANCH  14  16
ATOM     16  C   UNL     1       4.859   4.542  17.415  0.00  0.00    +0.000 A 
ATOM     17  C   UNL     1       4.734   4.318  16.027  0.00  0.00    +0.000 A 
ATOM     18  C   UNL     1       5.851   4.284  15.191  0.00  0.00    +0.000 A 
ATOM     19  C   UNL     1       7.122   4.462  15.724  0.00  0.00    +0.000 A 
ATOM     20  C   UNL     1       7.275   4.674  17.091  0.00  0.00    +0.000 A 
ATOM     21  C   UNL     1       6.157   4.708  17.931  0.00  0.00    +0.000 A 
ENDBRANCH  14  16
ENDBRANCH   1  14
BRANCH   3  22
ATOM     22  C   UNL     1       1.244   4.419  20.559  0.00  0.00    +0.000 C 
ATOM     23  N   UNL     1       1.001   3.288  20.665  0.00  0.00    +0.000 NA
ENDBRANCH   3  22
TORSDOF 4
ENDMDL
MODEL 8
REMARK VINA RESULT:      -7.0      3.484      5.081
REMARK  Name = 
REMARK  6 active torsions:
REMARK  status: ('A' for Active; 'I' for Inactive)
REMARK    1  A    between atoms: C_1  and  C_2
REMARK    2  A    between atoms: C_2  and  C_3
REMARK    3  A    between atoms: C_2  and  N_4
REMARK    4  A    between atoms: C_2  and  C_16
REMARK    5  A    between atoms: N_6  and  C_7
REMARK    6  A    between atoms: N_9  and  C_10
REMARK                            x       y       z     vdW  Elec       q    Type
REMARK                         _______ _______ _______ _____ _____    ______ ____
ROOT
ATOM      1  N   UNL     1       3.115   5.677  18.560  0.00  0.00    +0.000 N 
ATOM      2  C   UNL     1       2.288   6.179  19.543  0.00  0.00    +0.000 C 
ATOM      3  N   UNL     1       1.519   5.647  20.432  0.00  0.00    +0.000 NA
ATOM      4  N   UNL     1       2.373   7.565  19.486  0.00  0.00    +0.000 N 
ATOM      5  H   UNL     1       3.001   6.172  17.679  0.00  0.00    +0.000 HD
ATOM      6  H   UNL     1       3.283   7.933  19.243  0.00  0.00    +0.000 HD
ENDROOT
BRANCH   4   7
ATOM      7  C   UNL     1       1.532   8.441  20.210  0.00  0.00    +0.000 A 
ATOM      8  C   UNL     1       1.464   8.385  21.602  0.00  0.00    +0.000 A 
ATOM      9  C   UNL     1       0.560   9.213  22.258  0.00  0.00    +0.000 A 
ATOM     10  N   UNL     1      -0.267  10.079  21.634  0.00  0.00    +0.000 NA
ATOM     11  C   UNL     1      -0.189  10.119  20.291  0.00  0.00    +0.000 A 
ATOM     12  C   UNL     1       0.686   9.341  19.554  0.00  0.00    +0.000 A 
ENDBRANCH   4   7
BRANCH   1  14
ATOM     13  C   UNL     1       4.163   3.707  19.644  0.00  0.00    +0.000 C 
ATOM     14  C   UNL     1       3.619   4.313  18.337  0.00  0.00    +0.000 C 
ATOM     15  C   UNL     1       2.508   3.487  17.651  0.00  0.00    +0.000 C 
BRANCH  14  16
ATOM     16  C   UNL     1       4.862   4.347  17.403  0.00  0.00    +0.000 A 
ATOM     17  C   UNL     1       6.152   4.564  17.935  0.00  0.00    +0.000 A 
ATOM     18  C   UNL     1       7.267   4.700  17.107  0.00  0.00    +0.000 A 
ATOM     19  C   UNL     1       7.119   4.633  15.727  0.00  0.00    +0.000 A 
ATOM     20  C   UNL     1       5.857   4.431  15.175  0.00  0.00    +0.000 A 
ATOM     21  C   UNL     1       4.738   4.296  16.003  0.00  0.00    +0.000 A 
ENDBRANCH  14  16
ENDBRANCH   1  14
BRANCH   3  22
ATOM     22  C   UNL     1       1.234   4.360  20.537  0.00  0.00    +0.000 C 
ATOM     23  N   UNL     1       0.944   3.239  20.625  0.00  0.00    +0.000 NA
ENDBRANCH   3  22
TORSDOF 4
ENDMDL
MODEL 9
REMARK VINA RESULT:      -7.0      3.698      5.143
REMARK  Name = 
REMARK  6 active torsions:
REMARK  status: ('A' for Active; 'I' for Inactive)
REMARK    1  A    between atoms: C_1  and  C_2
REMARK    2  A    between atoms: C_2  and  C_3
REMARK    3  A    between atoms: C_2  and  N_4
REMARK    4  A    between atoms: C_2  and  C_16
REMARK    5  A    between atoms: N_6  and  C_7
REMARK    6  A    between atoms: N_9  and  C_10
REMARK                            x       y       z     vdW  Elec       q    Type
REMARK                         _______ _______ _______ _____ _____    ______ ____
ROOT
ATOM      1  N   UNL     1       2.828   6.099  18.520  0.00  0.00    +0.000 N 
ATOM      2  C   UNL     1       2.133   6.537  19.630  0.00  0.00    +0.000 C 
ATOM      3  N   UNL     1       1.562   5.948  20.625  0.00  0.00    +0.000 NA
ATOM      4  N   UNL     1       2.098   7.925  19.573  0.00  0.00    +0.000 N 
ATOM      5  H   UNL     1       2.533   6.581  17.675  0.00  0.00    +0.000 HD
ATOM      6  H   UNL     1       2.925   8.364  19.190  0.00  0.00    +0.000 HD
ENDROOT
BRANCH   4   7
ATOM      7  C   UNL     1       1.320   8.734  20.433  0.00  0.00    +0.000 A 
ATOM      8  C   UNL     1       1.424   8.618  21.818  0.00  0.00    +0.000 A 
ATOM      9  C   UNL     1       0.577   9.379  22.615  0.00  0.00    +0.000 A 
ATOM     10  N   UNL     1      -0.353  10.232  22.136  0.00  0.00    +0.000 NA
ATOM     11  C   UNL     1      -0.442  10.330  20.797  0.00  0.00    +0.000 A 
ATOM     12  C   UNL     1       0.365   9.622  19.925  0.00  0.00    +0.000 A 
ENDBRANCH   4   7
BRANCH   1  14
ATOM     13  C   UNL     1       4.221   4.239  19.387  0.00  0.00    +0.000 C 
ATOM     14  C   UNL     1       3.395   4.779  18.206  0.00  0.00    +0.000 C 
ATOM     15  C   UNL     1       2.249   3.854  17.737  0.00  0.00    +0.000 C 
BRANCH  14  16
ATOM     16  C   UNL     1       4.434   4.903  17.056  0.00  0.00    +0.000 A 
ATOM     17  C   UNL     1       4.739   6.165  16.499  0.00  0.00    +0.000 A 
ATOM     18  C   UNL     1       5.591   6.289  15.401  0.00  0.00    +0.000 A 
ATOM     19  C   UNL     1       6.153   5.155  14.826  0.00  0.00    +0.000 A 
ATOM     20  C   UNL     1       5.860   3.898  15.348  0.00  0.00    +0.000 A 
ATOM     21  C   UNL     1       5.006   3.771  16.448  0.00  0.00    +0.000 A 
ENDBRANCH  14  16
ENDBRANCH   1  14
BRANCH   3  22
ATOM     22  C   UNL     1       1.400   4.643  20.762  0.00  0.00    +0.000 C 
ATOM     23  N   UNL     1       1.229   3.504  20.909  0.00  0.00    +0.000 NA
ENDBRANCH   3  22
TORSDOF 4
ENDMDL
