MODEL 1
REMARK VINA RESULT:      -7.2      0.000      0.000
REMARK  Name = 
REMARK  3 active torsions:
REMARK  status: ('A' for Active; 'I' for Inactive)
REMARK    1  A    between atoms: C_1  and  O_2
REMARK    2  A    between atoms: O_2  and  C_3
REMARK    3  A    between atoms: C_8  and  N_9
REMARK                            x       y       z     vdW  Elec       q    Type
REMARK                         _______ _______ _______ _____ _____    ______ ____
ROOT
ATOM      1  N   UNL     1       3.862   7.051  17.356  0.00  0.00    +0.000 N 
ATOM      2  C   UNL     1       3.292   6.830  18.601  0.00  0.00    +0.000 C 
ATOM      3  O   UNL     1       3.616   5.857  19.301  0.00  0.00    +0.000 OA
ATOM      4  N   UNL     1       2.328   7.750  19.063  0.00  0.00    +0.000 N 
ATOM      5  S   UNL     1       1.733   7.453  20.681  0.00  0.00    +0.000 S 
ATOM      6  C   UNL     1       0.817   8.944  20.683  0.00  0.00    +0.000 A 
ATOM      7  C   UNL     1       0.121   9.466  21.768  0.00  0.00    +0.000 A 
ATOM      8  C   UNL     1      -0.568  10.665  21.602  0.00  0.00    +0.000 A 
ATOM      9  C   UNL     1      -0.568  11.305  20.357  0.00  0.00    +0.000 A 
ATOM     10  C   UNL     1       0.151  10.775  19.272  0.00  0.00    +0.000 A 
ATOM     11  C   UNL     1       0.862   9.594  19.459  0.00  0.00    +0.000 A 
ATOM     12  C   UNL     1       1.770   8.910  18.478  0.00  0.00    +0.000 A 
ATOM     13  O   UNL     1       2.003   9.361  17.369  0.00  0.00    +0.000 OA
ATOM     14  H   UNL     1       3.992   8.016  17.077  0.00  0.00    +0.000 HD
ENDROOT
BRANCH   1  20
ATOM     15  C   UNL     1       6.171   6.432  16.708  0.00  0.00    +0.000 A 
ATOM     16  C   UNL     1       7.075   5.444  16.278  0.00  0.00    +0.000 A 
ATOM     17  C   UNL     1       6.644   4.143  16.005  0.00  0.00    +0.000 A 
ATOM     18  C   UNL     1       5.302   3.820  16.133  0.00  0.00    +0.000 A 
ATOM     19  C   UNL     1       4.392   4.797  16.538  0.00  0.00    +0.000 A 
ATOM     20  C   UNL     1       4.810   6.105  16.848  0.00  0.00    +0.000 A 
BRANCH  15  22
ATOM     21  C   UNL     1       7.792   7.788  17.768  0.00  0.00    +0.000 C 
ATOM     22  O   UNL     1       6.555   7.705  17.057  0.00  0.00    +0.000 OA
ENDBRANCH  15  22
ENDBRANCH   1  20
TORSDOF 2
ENDMDL
MODEL 2
REMARK VINA RESULT:      -7.2      1.855      3.383
REMARK  Name = 
REMARK  3 active torsions:
REMARK  status: ('A' for Active; 'I' for Inactive)
REMARK    1  A    between atoms: C_1  and  O_2
REMARK    2  A    between atoms: O_2  and  C_3
REMARK    3  A    between atoms: C_8  and  N_9
REMARK                            x       y       z     vdW  Elec       q    Type
REMARK                         _______ _______ _______ _____ _____    ______ ____
ROOT
ATOM      1  N   UNL     1       2.642   7.082  19.025  0.00  0.00    +0.000 N 
ATOM      2  C   UNL     1       2.092   8.266  18.557  0.00  0.00    +0.000 C 
ATOM      3  O   UNL     1       2.218   8.618  17.374  0.00  0.00    +0.000 OA
ATOM      4  N   UNL     1       1.372   9.069  19.466  0.00  0.00    +0.000 N 
ATOM      5  S   UNL     1       0.628  10.492  18.773  0.00  0.00    +0.000 S 
ATOM      6  C   UNL     1      -0.191  10.870  20.273  0.00  0.00    +0.000 A 
ATOM      7  C   UNL     1      -1.119  11.889  20.456  0.00  0.00    +0.000 A 
ATOM      8  C   UNL     1      -1.675  12.063  21.721  0.00  0.00    +0.000 A 
ATOM      9  C   UNL     1      -1.279  11.237  22.779  0.00  0.00    +0.000 A 
ATOM     10  C   UNL     1      -0.350  10.202  22.578  0.00  0.00    +0.000 A 
ATOM     11  C   UNL     1       0.174  10.016  21.304  0.00  0.00    +0.000 A 
ATOM     12  C   UNL     1       1.094   8.922  20.845  0.00  0.00    +0.000 A 
ATOM     13  O   UNL     1       1.474   8.027  21.582  0.00  0.00    +0.000 OA
ATOM     14  H   UNL     1       2.127   6.592  19.748  0.00  0.00    +0.000 HD
ENDROOT
BRANCH   1  20
ATOM     15  C   UNL     1       3.023   4.964  17.801  0.00  0.00    +0.000 A 
ATOM     16  C   UNL     1       3.774   4.238  16.858  0.00  0.00    +0.000 A 
ATOM     17  C   UNL     1       4.889   4.805  16.235  0.00  0.00    +0.000 A 
ATOM     18  C   UNL     1       5.283   6.093  16.565  0.00  0.00    +0.000 A 
ATOM     19  C   UNL     1       4.559   6.815  17.515  0.00  0.00    +0.000 A 
ATOM     20  C   UNL     1       3.415   6.274  18.131  0.00  0.00    +0.000 A 
BRANCH  15  22
ATOM     21  C   UNL     1       1.693   3.067  18.270  0.00  0.00    +0.000 C 
ATOM     22  O   UNL     1       1.879   4.478  18.388  0.00  0.00    +0.000 OA
ENDBRANCH  15  22
ENDBRANCH   1  20
TORSDOF 2
ENDMDL
MODEL 3
REMARK VINA RESULT:      -7.0      2.112      2.535
REMARK  Name = 
REMARK  3 active torsions:
REMARK  status: ('A' for Active; 'I' for Inactive)
REMARK    1  A    between atoms: C_1  and  O_2
REMARK    2  A    between atoms: O_2  and  C_3
REMARK    3  A    between atoms: C_8  and  N_9
REMARK                            x       y       z     vdW  Elec       q    Type
REMARK                         _______ _______ _______ _____ _____    ______ ____
ROOT
ATOM      1  N   UNL     1       2.597   6.405  18.385  0.00  0.00    +0.000 N 
ATOM      2  C   UNL     1       1.990   6.881  19.537  0.00  0.00    +0.000 C 
ATOM      3  O   UNL     1       1.802   6.151  20.522  0.00  0.00    +0.000 OA
ATOM      4  N   UNL     1       1.592   8.234  19.567  0.00  0.00    +0.000 N 
ATOM      5  S   UNL     1       0.926   8.778  21.090  0.00  0.00    +0.000 S 
ATOM      6  C   UNL     1       0.847  10.436  20.532  0.00  0.00    +0.000 A 
ATOM      7  C   UNL     1       0.489  11.535  21.305  0.00  0.00    +0.000 A 
ATOM      8  C   UNL     1       0.467  12.792  20.705  0.00  0.00    +0.000 A 
ATOM      9  C   UNL     1       0.778  12.924  19.346  0.00  0.00    +0.000 A 
ATOM     10  C   UNL     1       1.152  11.807  18.579  0.00  0.00    +0.000 A 
ATOM     11  C   UNL     1       1.202  10.561  19.197  0.00  0.00    +0.000 A 
ATOM     12  C   UNL     1       1.666   9.265  18.601  0.00  0.00    +0.000 A 
ATOM     13  O   UNL     1       2.090   9.176  17.461  0.00  0.00    +0.000 OA
ATOM     14  H   UNL     1       3.179   7.056  17.871  0.00  0.00    +0.000 HD
ENDROOT
BRANCH   1  20
ATOM     15  C   UNL     1       4.177   4.560  18.867  0.00  0.00    +0.000 A 
ATOM     16  C   UNL     1       4.461   3.182  18.842  0.00  0.00    +0.000 A 
ATOM     17  C   UNL     1       3.555   2.270  18.294  0.00  0.00    +0.000 A 
ATOM     18  C   UNL     1       2.368   2.725  17.741  0.00  0.00    +0.000 A 
ATOM     19  C   UNL     1       2.085   4.092  17.741  0.00  0.00    +0.000 A 
ATOM     20  C   UNL     1       2.969   5.023  18.315  0.00  0.00    +0.000 A 
BRANCH  15  22
ATOM     21  C   UNL     1       6.388   5.349  19.146  0.00  0.00    +0.000 C 
ATOM     22  O   UNL     1       5.001   5.488  19.458  0.00  0.00    +0.000 OA
ENDBRANCH  15  22
ENDBRANCH   1  20
TORSDOF 2
ENDMDL
MODEL 4
REMARK VINA RESULT:      -6.9      3.985      9.165
REMARK  Name = 
REMARK  3 active torsions:
REMARK  status: ('A' for Active; 'I' for Inactive)
REMARK    1  A    between atoms: C_1  and  O_2
REMARK    2  A    between atoms: O_2  and  C_3
REMARK    3  A    between atoms: C_8  and  N_9
REMARK                            x       y       z     vdW  Elec       q    Type
REMARK                         _______ _______ _______ _____ _____    ______ ____
ROOT
ATOM      1  N   UNL     1      -1.142  12.073  21.956  0.00  0.00    +0.000 N 
ATOM      2  C   UNL     1      -0.410  10.954  22.321  0.00  0.00    +0.000 C 
ATOM      3  O   UNL     1      -0.386  10.547  23.494  0.00  0.00    +0.000 OA
ATOM      4  N   UNL     1       0.311  10.275  21.317  0.00  0.00    +0.000 N 
ATOM      5  S   UNL     1       1.125   8.819  21.843  0.00  0.00    +0.000 S 
ATOM      6  C   UNL     1       1.599   8.420  20.205  0.00  0.00    +0.000 A 
ATOM      7  C   UNL     1       2.235   7.249  19.807  0.00  0.00    +0.000 A 
ATOM      8  C   UNL     1       2.553   7.089  18.461  0.00  0.00    +0.000 A 
ATOM      9  C   UNL     1       2.253   8.105  17.546  0.00  0.00    +0.000 A 
ATOM     10  C   UNL     1       1.598   9.278  17.958  0.00  0.00    +0.000 A 
ATOM     11  C   UNL     1       1.256   9.413  19.299  0.00  0.00    +0.000 A 
ATOM     12  C   UNL     1       0.472  10.524  19.934  0.00  0.00    +0.000 A 
ATOM     13  O   UNL     1       0.014  11.457  19.296  0.00  0.00    +0.000 OA
ATOM     14  H   UNL     1      -1.557  12.068  21.031  0.00  0.00    +0.000 HD
ENDROOT
BRANCH   1  20
ATOM     15  C   UNL     1      -1.328  13.996  23.506  0.00  0.00    +0.000 A 
ATOM     16  C   UNL     1      -2.093  14.717  24.440  0.00  0.00    +0.000 A 
ATOM     17  C   UNL     1      -3.362  14.277  24.826  0.00  0.00    +0.000 A 
ATOM     18  C   UNL     1      -3.871  13.099  24.303  0.00  0.00    +0.000 A 
ATOM     19  C   UNL     1      -3.113  12.362  23.392  0.00  0.00    +0.000 A 
ATOM     20  C   UNL     1      -1.846  12.804  22.968  0.00  0.00    +0.000 A 
BRANCH  15  22
ATOM     21  C   UNL     1      -0.060  15.792  22.638  0.00  0.00    +0.000 C 
ATOM     22  O   UNL     1      -0.107  14.423  23.041  0.00  0.00    +0.000 OA
ENDBRANCH  15  22
ENDBRANCH   1  20
TORSDOF 2
ENDMDL
MODEL 5
REMARK VINA RESULT:      -6.9      2.451      3.855
REMARK  Name = 
REMARK  3 active torsions:
REMARK  status: ('A' for Active; 'I' for Inactive)
REMARK    1  A    between atoms: C_1  and  O_2
REMARK    2  A    between atoms: O_2  and  C_3
REMARK    3  A    between atoms: C_8  and  N_9
REMARK                            x       y       z     vdW  Elec       q    Type
REMARK                         _______ _______ _______ _____ _____    ______ ____
ROOT
ATOM      1  N   UNL     1       2.556   6.608  20.163  0.00  0.00    +0.000 N 
ATOM      2  C   UNL     1       2.160   7.555  19.232  0.00  0.00    +0.000 C 
ATOM      3  O   UNL     1       2.405   7.421  18.023  0.00  0.00    +0.000 OA
ATOM      4  N   UNL     1       1.456   8.687  19.694  0.00  0.00    +0.000 N 
ATOM      5  S   UNL     1       0.907   9.782  18.445  0.00  0.00    +0.000 S 
ATOM      6  C   UNL     1       0.022  10.753  19.600  0.00  0.00    +0.000 A 
ATOM      7  C   UNL     1      -0.814  11.820  19.291  0.00  0.00    +0.000 A 
ATOM      8  C   UNL     1      -1.442  12.498  20.333  0.00  0.00    +0.000 A 
ATOM      9  C   UNL     1      -1.206  12.116  21.659  0.00  0.00    +0.000 A 
ATOM     10  C   UNL     1      -0.370  11.026  21.958  0.00  0.00    +0.000 A 
ATOM     11  C   UNL     1       0.226  10.336  20.908  0.00  0.00    +0.000 A 
ATOM     12  C   UNL     1       1.066   9.095  20.991  0.00  0.00    +0.000 A 
ATOM     13  O   UNL     1       1.302   8.527  22.044  0.00  0.00    +0.000 OA
ATOM     14  H   UNL     1       1.945   6.463  20.959  0.00  0.00    +0.000 HD
ENDROOT
BRANCH   1  20
ATOM     15  C   UNL     1       2.719   4.203  19.596  0.00  0.00    +0.000 A 
ATOM     16  C   UNL     1       3.483   3.137  19.085  0.00  0.00    +0.000 A 
ATOM     17  C   UNL     1       4.809   3.326  18.687  0.00  0.00    +0.000 A 
ATOM     18  C   UNL     1       5.397   4.575  18.820  0.00  0.00    +0.000 A 
ATOM     19  C   UNL     1       4.657   5.635  19.345  0.00  0.00    +0.000 A 
ATOM     20  C   UNL     1       3.311   5.473  19.722  0.00  0.00    +0.000 A 
BRANCH  15  22
ATOM     21  C   UNL     1       1.102   3.071  20.896  0.00  0.00    +0.000 C 
ATOM     22  O   UNL     1       1.392   4.086  19.933  0.00  0.00    +0.000 OA
ENDBRANCH  15  22
ENDBRANCH   1  20
TORSDOF 2
ENDMDL
MODEL 6
REMARK VINA RESULT:      -6.8      1.122      2.134
REMARK  Name = 
REMARK  3 active torsions:
REMARK  status: ('A' for Active; 'I' for Inactive)
REMARK    1  A    between atoms: C_1  and  O_2
REMARK    2  A    between atoms: O_2  and  C_3
REMARK    3  A    between atoms: C_8  and  N_9
REMARK                            x       y       z     vdW  Elec       q    Type
REMARK                         _______ _______ _______ _____ _____    ______ ____
ROOT
ATOM      1  N   UNL     1       3.734   7.046  17.613  0.00  0.00    +0.000 N 
ATOM      2  C   UNL     1       3.158   6.951  18.871  0.00  0.00    +0.000 C 
ATOM      3  O   UNL     1       3.496   6.068  19.676  0.00  0.00    +0.000 OA
ATOM      4  N   UNL     1       2.171   7.895  19.223  0.00  0.00    +0.000 N 
ATOM      5  S   UNL     1       1.569   7.765  20.860  0.00  0.00    +0.000 S 
ATOM      6  C   UNL     1       0.622   9.228  20.692  0.00  0.00    +0.000 A 
ATOM      7  C   UNL     1      -0.095   9.851  21.707  0.00  0.00    +0.000 A 
ATOM      8  C   UNL     1      -0.807  11.009  21.406  0.00  0.00    +0.000 A 
ATOM      9  C   UNL     1      -0.810  11.508  20.098  0.00  0.00    +0.000 A 
ATOM     10  C   UNL     1      -0.070  10.876  19.083  0.00  0.00    +0.000 A 
ATOM     11  C   UNL     1       0.663   9.739  19.403  0.00  0.00    +0.000 A 
ATOM     12  C   UNL     1       1.594   8.971  18.510  0.00  0.00    +0.000 A 
ATOM     13  O   UNL     1       1.827   9.302  17.359  0.00  0.00    +0.000 OA
ATOM     14  H   UNL     1       3.846   7.977  17.230  0.00  0.00    +0.000 HD
ENDROOT
BRANCH   1  20
ATOM     15  C   UNL     1       4.332   4.757  16.879  0.00  0.00    +0.000 A 
ATOM     16  C   UNL     1       5.314   3.859  16.422  0.00  0.00    +0.000 A 
ATOM     17  C   UNL     1       6.646   4.257  16.286  0.00  0.00    +0.000 A 
ATOM     18  C   UNL     1       7.019   5.548  16.629  0.00  0.00    +0.000 A 
ATOM     19  C   UNL     1       6.058   6.442  17.103  0.00  0.00    +0.000 A 
ATOM     20  C   UNL     1       4.706   6.070  17.218  0.00  0.00    +0.000 A 
BRANCH  15  22
ATOM     21  C   UNL     1       2.711   3.224  17.659  0.00  0.00    +0.000 C 
ATOM     22  O   UNL     1       2.998   4.437  16.962  0.00  0.00    +0.000 OA
ENDBRANCH  15  22
ENDBRANCH   1  20
TORSDOF 2
ENDMDL
MODEL 7
REMARK VINA RESULT:      -6.8      2.288      2.982
REMARK  Name = 
REMARK  3 active torsions:
REMARK  status: ('A' for Active; 'I' for Inactive)
REMARK    1  A    between atoms: C_1  and  O_2
REMARK    2  A    between atoms: O_2  and  C_3
REMARK    3  A    between atoms: C_8  and  N_9
REMARK                            x       y       z     vdW  Elec       q    Type
REMARK                         _______ _______ _______ _____ _____    ______ ____
ROOT
ATOM      1  N   UNL     1       2.195   6.159  19.324  0.00  0.00    +0.000 N 
ATOM      2  C   UNL     1       2.270   7.327  18.579  0.00  0.00    +0.000 C 
ATOM      3  O   UNL     1       2.735   7.336  17.429  0.00  0.00    +0.000 OA
ATOM      4  N   UNL     1       1.792   8.519  19.163  0.00  0.00    +0.000 N 
ATOM      5  S   UNL     1       1.831   9.924  18.122  0.00  0.00    +0.000 S 
ATOM      6  C   UNL     1       0.987  10.899  19.305  0.00  0.00    +0.000 A 
ATOM      7  C   UNL     1       0.541  12.202  19.113  0.00  0.00    +0.000 A 
ATOM      8  C   UNL     1      -0.109  12.845  20.163  0.00  0.00    +0.000 A 
ATOM      9  C   UNL     1      -0.279  12.188  21.387  0.00  0.00    +0.000 A 
ATOM     10  C   UNL     1       0.165  10.867  21.565  0.00  0.00    +0.000 A 
ATOM     11  C   UNL     1       0.783  10.223  20.499  0.00  0.00    +0.000 A 
ATOM     12  C   UNL     1       1.240   8.794  20.436  0.00  0.00    +0.000 A 
ATOM     13  O   UNL     1       1.084   8.010  21.357  0.00  0.00    +0.000 OA
ATOM     14  H   UNL     1       1.406   6.067  19.953  0.00  0.00    +0.000 HD
ENDROOT
BRANCH   1  20
ATOM     15  C   UNL     1       4.069   4.592  18.913  0.00  0.00    +0.000 A 
ATOM     16  C   UNL     1       4.513   3.354  18.416  0.00  0.00    +0.000 A 
ATOM     17  C   UNL     1       3.628   2.466  17.798  0.00  0.00    +0.000 A 
ATOM     18  C   UNL     1       2.296   2.816  17.644  0.00  0.00    +0.000 A 
ATOM     19  C   UNL     1       1.847   4.051  18.114  0.00  0.00    +0.000 A 
ATOM     20  C   UNL     1       2.715   4.946  18.767  0.00  0.00    +0.000 A 
BRANCH  15  22
ATOM     21  C   UNL     1       6.269   5.385  19.258  0.00  0.00    +0.000 C 
ATOM     22  O   UNL     1       4.882   5.468  19.592  0.00  0.00    +0.000 OA
ENDBRANCH  15  22
ENDBRANCH   1  20
TORSDOF 2
ENDMDL
MODEL 8
REMARK VINA RESULT:      -6.7      1.730      2.728
REMARK  Name = 
REMARK  3 active torsions:
REMARK  status: ('A' for Active; 'I' for Inactive)
REMARK    1  A    between atoms: C_1  and  O_2
REMARK    2  A    between atoms: O_2  and  C_3
REMARK    3  A    between atoms: C_8  and  N_9
REMARK                            x       y       z     vdW  Elec       q    Type
REMARK                         _______ _______ _______ _____ _____    ______ ____
ROOT
ATOM      1  N   UNL     1       2.689   7.277  18.171  0.00  0.00    +0.000 N 
ATOM      2  C   UNL     1       2.293   7.367  19.497  0.00  0.00    +0.000 C 
ATOM      3  O   UNL     1       2.695   6.562  20.351  0.00  0.00    +0.000 OA
ATOM      4  N   UNL     1       1.418   8.412  19.860  0.00  0.00    +0.000 N 
ATOM      5  S   UNL     1       1.049   8.513  21.567  0.00  0.00    +0.000 S 
ATOM      6  C   UNL     1       0.166  10.009  21.349  0.00  0.00    +0.000 A 
ATOM      7  C   UNL     1      -0.365  10.793  22.368  0.00  0.00    +0.000 A 
ATOM      8  C   UNL     1      -1.050  11.955  22.024  0.00  0.00    +0.000 A 
ATOM      9  C   UNL     1      -1.212  12.300  20.677  0.00  0.00    +0.000 A 
ATOM     10  C   UNL     1      -0.659  11.507  19.658  0.00  0.00    +0.000 A 
ATOM     11  C   UNL     1       0.052  10.365  20.013  0.00  0.00    +0.000 A 
ATOM     12  C   UNL     1       0.803   9.437  19.104  0.00  0.00    +0.000 A 
ATOM     13  O   UNL     1       0.888   9.617  17.901  0.00  0.00    +0.000 OA
ATOM     14  H   UNL     1       2.795   8.148  17.664  0.00  0.00    +0.000 HD
ENDROOT
BRANCH   1  20
ATOM     15  C   UNL     1       3.032   4.907  17.540  0.00  0.00    +0.000 A 
ATOM     16  C   UNL     1       3.897   3.900  17.074  0.00  0.00    +0.000 A 
ATOM     17  C   UNL     1       5.246   4.168  16.823  0.00  0.00    +0.000 A 
ATOM     18  C   UNL     1       5.752   5.437  17.060  0.00  0.00    +0.000 A 
ATOM     19  C   UNL     1       4.909   6.439  17.542  0.00  0.00    +0.000 A 
ATOM     20  C   UNL     1       3.542   6.198  17.772  0.00  0.00    +0.000 A 
BRANCH  15  22
ATOM     21  C   UNL     1       1.350   3.634  18.606  0.00  0.00    +0.000 C 
ATOM     22  O   UNL     1       1.685   4.714  17.733  0.00  0.00    +0.000 OA
ENDBRANCH  15  22
ENDBRANCH   1  20
TORSDOF 2
ENDMDL
MODEL 9
REMARK VINA RESULT:      -6.7      1.824      7.359
REMARK  Name = 
REMARK  3 active torsions:
REMARK  status: ('A' for Active; 'I' for Inactive)
REMARK    1  A    between atoms: C_1  and  O_2
REMARK    2  A    between atoms: O_2  and  C_3
REMARK    3  A    between atoms: C_8  and  N_9
REMARK                            x       y       z     vdW  Elec       q    Type
REMARK                         _______ _______ _______ _____ _____    ______ ____
ROOT
ATOM      1  N   UNL     1       1.805   8.586  19.755  0.00  0.00    +0.000 N 
ATOM      2  C   UNL     1       2.081   7.234  19.890  0.00  0.00    +0.000 C 
ATOM      3  O   UNL     1       1.585   6.558  20.804  0.00  0.00    +0.000 OA
ATOM      4  N   UNL     1       2.944   6.635  18.949  0.00  0.00    +0.000 N 
ATOM      5  S   UNL     1       3.160   4.909  19.132  0.00  0.00    +0.000 S 
ATOM      6  C   UNL     1       4.093   4.808  17.654  0.00  0.00    +0.000 A 
ATOM      7  C   UNL     1       4.548   3.635  17.061  0.00  0.00    +0.000 A 
ATOM      8  C   UNL     1       5.288   3.728  15.886  0.00  0.00    +0.000 A 
ATOM      9  C   UNL     1       5.580   4.983  15.339  0.00  0.00    +0.000 A 
ATOM     10  C   UNL     1       5.103   6.160  15.941  0.00  0.00    +0.000 A 
ATOM     11  C   UNL     1       4.336   6.054  17.097  0.00  0.00    +0.000 A 
ATOM     12  C   UNL     1       3.649   7.161  17.841  0.00  0.00    +0.000 A 
ATOM     13  O   UNL     1       3.678   8.323  17.471  0.00  0.00    +0.000 OA
ATOM     14  H   UNL     1       1.766   8.954  18.811  0.00  0.00    +0.000 HD
ENDROOT
BRANCH   1  20
ATOM     15  C   UNL     1      -0.062  10.104  20.341  0.00  0.00    +0.000 A 
ATOM     16  C   UNL     1      -0.907  10.645  21.327  0.00  0.00    +0.000 A 
ATOM     17  C   UNL     1      -0.750  10.310  22.674  0.00  0.00    +0.000 A 
ATOM     18  C   UNL     1       0.269   9.451  23.057  0.00  0.00    +0.000 A 
ATOM     19  C   UNL     1       1.128   8.924  22.091  0.00  0.00    +0.000 A 
ATOM     20  C   UNL     1       0.967   9.225  20.725  0.00  0.00    +0.000 A 
BRANCH  15  22
ATOM     21  C   UNL     1      -1.573  10.343  18.539  0.00  0.00    +0.000 C 
ATOM     22  O   UNL     1      -0.220  10.346  18.997  0.00  0.00    +0.000 OA
ENDBRANCH  15  22
ENDBRANCH   1  20
TORSDOF 2
ENDMDL
