MODEL 1
REMARK VINA RESULT:      -6.7      0.000      0.000
REMARK  Name = 
REMARK  5 active torsions:
REMARK  status: ('A' for Active; 'I' for Inactive)
REMARK    1  A    between atoms: C_1  and  C_2
REMARK    2  A    between atoms: C_2  and  O_3
REMARK    3  A    between atoms: O_3  and  C_4
REMARK    4  A    between atoms: N_9  and  C_10
REMARK    5  A    between atoms: C_10  and  C_11
REMARK                            x       y       z     vdW  Elec       q    Type
REMARK                         _______ _______ _______ _____ _____    ______ ____
ROOT
ATOM      1  C   UNL     1       6.712   4.689  14.843  0.00  0.00    +0.000 C 
ATOM      2  O   UNL     1       7.825   5.156  14.630  0.00  0.00    +0.000 OA
ATOM      3  N   UNL     1       6.204   4.429  16.095  0.00  0.00    +0.000 N 
ATOM      4  C   UNL     1       6.974   4.807  17.274  0.00  0.00    +0.000 C 
ATOM      5  C   UNL     1       6.229   5.870  18.115  0.00  0.00    +0.000 C 
ATOM      6  N   UNL     1       4.817   5.531  18.439  0.00  0.00    +0.000 NA
ATOM      7  C   UNL     1       4.119   5.205  17.170  0.00  0.00    +0.000 C 
ATOM      8  C   UNL     1       4.796   4.096  16.340  0.00  0.00    +0.000 C 
ENDROOT
BRANCH   1   9
ATOM      9  O   UNL     1       5.808   4.419  13.860  0.00  0.00    +0.000 OA
BRANCH   9  11
ATOM     10  C   UNL     1       5.090   3.216  11.932  0.00  0.00    +0.000 C 
ATOM     11  C   UNL     1       6.284   3.603  12.784  0.00  0.00    +0.000 C 
ENDBRANCH   9  11
ENDBRANCH   1   9
BRANCH   6  12
ATOM     12  C   UNL     1       4.776   4.430  19.423  0.00  0.00    +0.000 C 
BRANCH  12  13
ATOM     13  C   UNL     1       3.382   3.992  19.784  0.00  0.00    +0.000 A 
ATOM     14  C   UNL     1       2.415   4.682  20.488  0.00  0.00    +0.000 A 
ATOM     15  C   UNL     1       1.223   3.919  20.661  0.00  0.00    +0.000 A 
ATOM     16  C   UNL     1       1.314   2.677  20.081  0.00  0.00    +0.000 A 
ATOM     17  S   UNL     1       2.833   2.427  19.341  0.00  0.00    +0.000 S 
ENDBRANCH  12  13
ENDBRANCH   6  12
TORSDOF 4
ENDMDL
MODEL 2
REMARK VINA RESULT:      -6.4      0.896      1.064
REMARK  Name = 
REMARK  5 active torsions:
REMARK  status: ('A' for Active; 'I' for Inactive)
REMARK    1  A    between atoms: C_1  and  C_2
REMARK    2  A    between atoms: C_2  and  O_3
REMARK    3  A    between atoms: O_3  and  C_4
REMARK    4  A    between atoms: N_9  and  C_10
REMARK    5  A    between atoms: C_10  and  C_11
REMARK                            x       y       z     vdW  Elec       q    Type
REMARK                         _______ _______ _______ _____ _____    ______ ____
ROOT
ATOM      1  C   UNL     1       6.752   4.629  14.819  0.00  0.00    +0.000 C 
ATOM      2  O   UNL     1       7.736   5.286  14.497  0.00  0.00    +0.000 OA
ATOM      3  N   UNL     1       6.269   4.531  16.105  0.00  0.00    +0.000 N 
ATOM      4  C   UNL     1       6.887   5.320  17.165  0.00  0.00    +0.000 C 
ATOM      5  C   UNL     1       5.886   6.334  17.766  0.00  0.00    +0.000 C 
ATOM      6  N   UNL     1       4.578   5.753  18.172  0.00  0.00    +0.000 NA
ATOM      7  C   UNL     1       4.023   5.012  17.012  0.00  0.00    +0.000 C 
ATOM      8  C   UNL     1       4.967   3.940  16.433  0.00  0.00    +0.000 C 
ENDROOT
BRANCH   1   9
ATOM      9  O   UNL     1       5.973   3.954  13.929  0.00  0.00    +0.000 OA
BRANCH   9  11
ATOM     10  C   UNL     1       5.605   2.843  11.854  0.00  0.00    +0.000 C 
ATOM     11  C   UNL     1       6.557   3.720  12.644  0.00  0.00    +0.000 C 
ENDBRANCH   9  11
ENDBRANCH   1   9
BRANCH   6  12
ATOM     12  C   UNL     1       4.752   4.908  19.372  0.00  0.00    +0.000 C 
BRANCH  12  13
ATOM     13  C   UNL     1       3.479   4.264  19.850  0.00  0.00    +0.000 A 
ATOM     14  C   UNL     1       3.176   2.920  19.950  0.00  0.00    +0.000 A 
ATOM     15  C   UNL     1       1.846   2.698  20.416  0.00  0.00    +0.000 A 
ATOM     16  C   UNL     1       1.179   3.875  20.659  0.00  0.00    +0.000 A 
ATOM     17  S   UNL     1       2.148   5.240  20.320  0.00  0.00    +0.000 S 
ENDBRANCH  12  13
ENDBRANCH   6  12
TORSDOF 4
ENDMDL
MODEL 3
REMARK VINA RESULT:      -6.2      1.510      1.866
REMARK  Name = 
REMARK  5 active torsions:
REMARK  status: ('A' for Active; 'I' for Inactive)
REMARK    1  A    between atoms: C_1  and  C_2
REMARK    2  A    between atoms: C_2  and  O_3
REMARK    3  A    between atoms: O_3  and  C_4
REMARK    4  A    between atoms: N_9  and  C_10
REMARK    5  A    between atoms: C_10  and  C_11
REMARK                            x       y       z     vdW  Elec       q    Type
REMARK                         _______ _______ _______ _____ _____    ______ ____
ROOT
ATOM      1  C   UNL     1       7.181   4.781  16.392  0.00  0.00    +0.000 C 
ATOM      2  O   UNL     1       8.074   4.188  16.985  0.00  0.00    +0.000 OA
ATOM      3  N   UNL     1       5.866   4.815  16.798  0.00  0.00    +0.000 N 
ATOM      4  C   UNL     1       5.490   4.192  18.061  0.00  0.00    +0.000 C 
ATOM      5  C   UNL     1       4.946   5.238  19.064  0.00  0.00    +0.000 C 
ATOM      6  N   UNL     1       3.881   6.124  18.522  0.00  0.00    +0.000 NA
ATOM      7  C   UNL     1       4.383   6.734  17.266  0.00  0.00    +0.000 C 
ATOM      8  C   UNL     1       4.865   5.716  16.215  0.00  0.00    +0.000 C 
ENDROOT
BRANCH   1   9
ATOM      9  O   UNL     1       7.389   5.537  15.277  0.00  0.00    +0.000 OA
BRANCH   9  11
ATOM     10  C   UNL     1       8.123   5.517  13.010  0.00  0.00    +0.000 C 
ATOM     11  C   UNL     1       7.206   4.864  14.027  0.00  0.00    +0.000 C 
ENDBRANCH   9  11
ENDBRANCH   1   9
BRANCH   6  12
ATOM     12  C   UNL     1       2.632   5.356  18.336  0.00  0.00    +0.000 C 
BRANCH  12  13
ATOM     13  C   UNL     1       2.306   4.443  19.488  0.00  0.00    +0.000 A 
ATOM     14  C   UNL     1       2.219   4.746  20.832  0.00  0.00    +0.000 A 
ATOM     15  C   UNL     1       1.920   3.601  21.627  0.00  0.00    +0.000 A 
ATOM     16  C   UNL     1       1.785   2.464  20.868  0.00  0.00    +0.000 A 
ATOM     17  S   UNL     1       2.026   2.773  19.205  0.00  0.00    +0.000 S 
ENDBRANCH  12  13
ENDBRANCH   6  12
TORSDOF 4
ENDMDL
MODEL 4
REMARK VINA RESULT:      -6.0      1.713      2.131
REMARK  Name = 
REMARK  5 active torsions:
REMARK  status: ('A' for Active; 'I' for Inactive)
REMARK    1  A    between atoms: C_1  and  C_2
REMARK    2  A    between atoms: C_2  and  O_3
REMARK    3  A    between atoms: O_3  and  C_4
REMARK    4  A    between atoms: N_9  and  C_10
REMARK    5  A    between atoms: C_10  and  C_11
REMARK                            x       y       z     vdW  Elec       q    Type
REMARK                         _______ _______ _______ _____ _____    ______ ____
ROOT
ATOM      1  C   UNL     1       7.200   4.802  16.345  0.00  0.00    +0.000 C 
ATOM      2  O   UNL     1       8.064   4.187  16.959  0.00  0.00    +0.000 OA
ATOM      3  N   UNL     1       5.873   4.848  16.706  0.00  0.00    +0.000 N 
ATOM      4  C   UNL     1       5.444   4.211  17.945  0.00  0.00    +0.000 C 
ATOM      5  C   UNL     1       4.880   5.248  18.945  0.00  0.00    +0.000 C 
ATOM      6  N   UNL     1       3.846   6.158  18.381  0.00  0.00    +0.000 NA
ATOM      7  C   UNL     1       4.401   6.780  17.153  0.00  0.00    +0.000 C 
ATOM      8  C   UNL     1       4.906   5.772  16.103  0.00  0.00    +0.000 C 
ENDROOT
BRANCH   1   9
ATOM      9  O   UNL     1       7.458   5.572  15.251  0.00  0.00    +0.000 OA
BRANCH   9  11
ATOM     10  C   UNL     1       8.224   5.598  12.995  0.00  0.00    +0.000 C 
ATOM     11  C   UNL     1       7.289   4.928  13.984  0.00  0.00    +0.000 C 
ENDBRANCH   9  11
ENDBRANCH   1   9
BRANCH   6  12
ATOM     12  C   UNL     1       2.595   5.410  18.139  0.00  0.00    +0.000 C 
BRANCH  12  13
ATOM     13  C   UNL     1       2.252   4.434  19.232  0.00  0.00    +0.000 A 
ATOM     14  C   UNL     1       2.060   3.069  19.141  0.00  0.00    +0.000 A 
ATOM     15  C   UNL     1       1.713   2.486  20.395  0.00  0.00    +0.000 A 
ATOM     16  C   UNL     1       1.655   3.420  21.402  0.00  0.00    +0.000 A 
ATOM     17  S   UNL     1       2.009   4.992  20.837  0.00  0.00    +0.000 S 
ENDBRANCH  12  13
ENDBRANCH   6  12
TORSDOF 4
ENDMDL
MODEL 5
REMARK VINA RESULT:      -5.4      2.945      3.997
REMARK  Name = 
REMARK  5 active torsions:
REMARK  status: ('A' for Active; 'I' for Inactive)
REMARK    1  A    between atoms: C_1  and  C_2
REMARK    2  A    between atoms: C_2  and  O_3
REMARK    3  A    between atoms: O_3  and  C_4
REMARK    4  A    between atoms: N_9  and  C_10
REMARK    5  A    between atoms: C_10  and  C_11
REMARK                            x       y       z     vdW  Elec       q    Type
REMARK                         _______ _______ _______ _____ _____    ______ ____
ROOT
ATOM      1  C   UNL     1       7.569   6.720  18.061  0.00  0.00    +0.000 C 
ATOM      2  O   UNL     1       8.299   6.422  18.998  0.00  0.00    +0.000 OA
ATOM      3  N   UNL     1       6.362   6.114  17.791  0.00  0.00    +0.000 N 
ATOM      4  C   UNL     1       5.843   5.110  18.712  0.00  0.00    +0.000 C 
ATOM      5  C   UNL     1       4.510   5.568  19.350  0.00  0.00    +0.000 C 
ATOM      6  N   UNL     1       3.486   6.041  18.381  0.00  0.00    +0.000 NA
ATOM      7  C   UNL     1       4.107   7.085  17.527  0.00  0.00    +0.000 C 
ATOM      8  C   UNL     1       5.399   6.637  16.816  0.00  0.00    +0.000 C 
ENDROOT
BRANCH   1   9
ATOM      9  O   UNL     1       7.833   7.737  17.194  0.00  0.00    +0.000 OA
BRANCH   9  11
ATOM     10  C   UNL     1       8.781   9.587  18.360  0.00  0.00    +0.000 C 
ATOM     11  C   UNL     1       7.538   9.054  17.672  0.00  0.00    +0.000 C 
ENDBRANCH   9  11
ENDBRANCH   1   9
BRANCH   6  12
ATOM     12  C   UNL     1       2.956   4.898  17.609  0.00  0.00    +0.000 C 
BRANCH  12  13
ATOM     13  C   UNL     1       2.290   3.850  18.459  0.00  0.00    +0.000 A 
ATOM     14  C   UNL     1       2.275   2.480  18.287  0.00  0.00    +0.000 A 
ATOM     15  C   UNL     1       1.503   1.817  19.286  0.00  0.00    +0.000 A 
ATOM     16  C   UNL     1       0.958   2.698  20.189  0.00  0.00    +0.000 A 
ATOM     17  S   UNL     1       1.367   4.317  19.829  0.00  0.00    +0.000 S 
ENDBRANCH  12  13
ENDBRANCH   6  12
TORSDOF 4
ENDMDL
MODEL 6
REMARK VINA RESULT:      -5.3      2.520      3.363
REMARK  Name = 
REMARK  5 active torsions:
REMARK  status: ('A' for Active; 'I' for Inactive)
REMARK    1  A    between atoms: C_1  and  C_2
REMARK    2  A    between atoms: C_2  and  O_3
REMARK    3  A    between atoms: O_3  and  C_4
REMARK    4  A    between atoms: N_9  and  C_10
REMARK    5  A    between atoms: C_10  and  C_11
REMARK                            x       y       z     vdW  Elec       q    Type
REMARK                         _______ _______ _______ _____ _____    ______ ____
ROOT
ATOM      1  C   UNL     1       7.192   5.456  17.565  0.00  0.00    +0.000 C 
ATOM      2  O   UNL     1       7.935   4.853  18.331  0.00  0.00    +0.000 OA
ATOM      3  N   UNL     1       5.822   5.320  17.542  0.00  0.00    +0.000 N 
ATOM      4  C   UNL     1       5.168   4.484  18.541  0.00  0.00    +0.000 C 
ATOM      5  C   UNL     1       4.225   5.317  19.441  0.00  0.00    +0.000 C 
ATOM      6  N   UNL     1       3.268   6.186  18.705  0.00  0.00    +0.000 NA
ATOM      7  C   UNL     1       4.042   7.019  17.751  0.00  0.00    +0.000 C 
ATOM      8  C   UNL     1       4.937   6.216  16.788  0.00  0.00    +0.000 C 
ENDROOT
BRANCH   1   9
ATOM      9  O   UNL     1       7.628   6.386  16.671  0.00  0.00    +0.000 OA
BRANCH   9  11
ATOM     10  C   UNL     1       8.310   7.815  18.452  0.00  0.00    +0.000 C 
ATOM     11  C   UNL     1       7.588   7.745  17.119  0.00  0.00    +0.000 C 
ENDBRANCH   9  11
ENDBRANCH   1   9
BRANCH   6  12
ATOM     12  C   UNL     1       2.237   5.357  18.048  0.00  0.00    +0.000 C 
BRANCH  12  13
ATOM     13  C   UNL     1       1.739   4.221  18.901  0.00  0.00    +0.000 A 
ATOM     14  C   UNL     1       1.201   4.267  20.172  0.00  0.00    +0.000 A 
ATOM     15  C   UNL     1       0.876   2.971  20.670  0.00  0.00    +0.000 A 
ATOM     16  C   UNL     1       1.171   1.980  19.765  0.00  0.00    +0.000 A 
ATOM     17  S   UNL     1       1.844   2.607  18.327  0.00  0.00    +0.000 S 
ENDBRANCH  12  13
ENDBRANCH   6  12
TORSDOF 4
ENDMDL
MODEL 7
REMARK VINA RESULT:      -5.3      1.368      2.027
REMARK  Name = 
REMARK  5 active torsions:
REMARK  status: ('A' for Active; 'I' for Inactive)
REMARK    1  A    between atoms: C_1  and  C_2
REMARK    2  A    between atoms: C_2  and  O_3
REMARK    3  A    between atoms: O_3  and  C_4
REMARK    4  A    between atoms: N_9  and  C_10
REMARK    5  A    between atoms: C_10  and  C_11
REMARK                            x       y       z     vdW  Elec       q    Type
REMARK                         _______ _______ _______ _____ _____    ______ ____
ROOT
ATOM      1  C   UNL     1       5.702   4.873  14.780  0.00  0.00    +0.000 C 
ATOM      2  O   UNL     1       5.145   4.149  13.963  0.00  0.00    +0.000 OA
ATOM      3  N   UNL     1       5.269   5.063  16.073  0.00  0.00    +0.000 N 
ATOM      4  C   UNL     1       4.130   4.300  16.568  0.00  0.00    +0.000 C 
ATOM      5  C   UNL     1       4.539   3.372  17.736  0.00  0.00    +0.000 C 
ATOM      6  N   UNL     1       5.297   4.043  18.828  0.00  0.00    +0.000 NA
ATOM      7  C   UNL     1       6.451   4.750  18.219  0.00  0.00    +0.000 C 
ATOM      8  C   UNL     1       6.071   5.739  17.100  0.00  0.00    +0.000 C 
ENDROOT
BRANCH   1   9
ATOM      9  O   UNL     1       6.862   5.541  14.527  0.00  0.00    +0.000 OA
BRANCH   9  11
ATOM     10  C   UNL     1       7.871   5.597  12.370  0.00  0.00    +0.000 C 
ATOM     11  C   UNL     1       7.803   4.858  13.692  0.00  0.00    +0.000 C 
ENDBRANCH   9  11
ENDBRANCH   1   9
BRANCH   6  12
ATOM     12  C   UNL     1       4.400   4.939  19.587  0.00  0.00    +0.000 C 
BRANCH  12  13
ATOM     13  C   UNL     1       3.101   4.295  19.991  0.00  0.00    +0.000 A 
ATOM     14  C   UNL     1       1.812   4.722  19.744  0.00  0.00    +0.000 A 
ATOM     15  C   UNL     1       0.834   3.859  20.320  0.00  0.00    +0.000 A 
ATOM     16  C   UNL     1       1.406   2.800  20.984  0.00  0.00    +0.000 A 
ATOM     17  S   UNL     1       3.112   2.852  20.920  0.00  0.00    +0.000 S 
ENDBRANCH  12  13
ENDBRANCH   6  12
TORSDOF 4
ENDMDL
MODEL 8
REMARK VINA RESULT:      -5.3      2.124      3.727
REMARK  Name = 
REMARK  5 active torsions:
REMARK  status: ('A' for Active; 'I' for Inactive)
REMARK    1  A    between atoms: C_1  and  C_2
REMARK    2  A    between atoms: C_2  and  O_3
REMARK    3  A    between atoms: O_3  and  C_4
REMARK    4  A    between atoms: N_9  and  C_10
REMARK    5  A    between atoms: C_10  and  C_11
REMARK                            x       y       z     vdW  Elec       q    Type
REMARK                         _______ _______ _______ _____ _____    ______ ____
ROOT
ATOM      1  C   UNL     1       7.248   6.729  16.797  0.00  0.00    +0.000 C 
ATOM      2  O   UNL     1       7.848   6.675  15.730  0.00  0.00    +0.000 OA
ATOM      3  N   UNL     1       6.053   6.095  17.050  0.00  0.00    +0.000 N 
ATOM      4  C   UNL     1       5.478   5.218  16.037  0.00  0.00    +0.000 C 
ATOM      5  C   UNL     1       5.391   3.758  16.542  0.00  0.00    +0.000 C 
ATOM      6  N   UNL     1       4.746   3.596  17.873  0.00  0.00    +0.000 NA
ATOM      7  C   UNL     1       5.433   4.499  18.830  0.00  0.00    +0.000 C 
ATOM      8  C   UNL     1       5.473   5.976  18.393  0.00  0.00    +0.000 C 
ENDROOT
BRANCH   1   9
ATOM      9  O   UNL     1       7.721   7.382  17.895  0.00  0.00    +0.000 OA
BRANCH   9  11
ATOM     10  C   UNL     1       8.901   9.280  18.722  0.00  0.00    +0.000 C 
ATOM     11  C   UNL     1       7.808   8.806  17.782  0.00  0.00    +0.000 C 
ENDBRANCH   9  11
ENDBRANCH   1   9
BRANCH   6  12
ATOM     12  C   UNL     1       3.296   3.858  17.765  0.00  0.00    +0.000 C 
BRANCH  12  13
ATOM     13  C   UNL     1       2.546   3.655  19.054  0.00  0.00    +0.000 A 
ATOM     14  C   UNL     1       1.420   4.311  19.510  0.00  0.00    +0.000 A 
ATOM     15  C   UNL     1       1.019   3.863  20.804  0.00  0.00    +0.000 A 
ATOM     16  C   UNL     1       1.847   2.881  21.291  0.00  0.00    +0.000 A 
ATOM     17  S   UNL     1       3.106   2.506  20.200  0.00  0.00    +0.000 S 
ENDBRANCH  12  13
ENDBRANCH   6  12
TORSDOF 4
ENDMDL
MODEL 9
REMARK VINA RESULT:      -5.2      1.471      2.023
REMARK  Name = 
REMARK  5 active torsions:
REMARK  status: ('A' for Active; 'I' for Inactive)
REMARK    1  A    between atoms: C_1  and  C_2
REMARK    2  A    between atoms: C_2  and  O_3
REMARK    3  A    between atoms: O_3  and  C_4
REMARK    4  A    between atoms: N_9  and  C_10
REMARK    5  A    between atoms: C_10  and  C_11
REMARK                            x       y       z     vdW  Elec       q    Type
REMARK                         _______ _______ _______ _____ _____    ______ ____
ROOT
ATOM      1  C   UNL     1       6.189   4.468  14.706  0.00  0.00    +0.000 C 
ATOM      2  O   UNL     1       6.372   3.286  14.443  0.00  0.00    +0.000 OA
ATOM      3  N   UNL     1       5.289   4.927  15.642  0.00  0.00    +0.000 N 
ATOM      4  C   UNL     1       4.553   3.969  16.458  0.00  0.00    +0.000 C 
ATOM      5  C   UNL     1       4.904   4.122  17.957  0.00  0.00    +0.000 C 
ATOM      6  N   UNL     1       4.810   5.512  18.480  0.00  0.00    +0.000 NA
ATOM      7  C   UNL     1       5.625   6.390  17.603  0.00  0.00    +0.000 C 
ATOM      8  C   UNL     1       5.253   6.317  16.110  0.00  0.00    +0.000 C 
ENDROOT
BRANCH   1   9
ATOM      9  O   UNL     1       6.901   5.484  14.143  0.00  0.00    +0.000 OA
BRANCH   9  11
ATOM     10  C   UNL     1       8.807   5.994  12.807  0.00  0.00    +0.000 C 
ATOM     11  C   UNL     1       7.527   5.184  12.891  0.00  0.00    +0.000 C 
ENDBRANCH   9  11
ENDBRANCH   1   9
BRANCH   6  12
ATOM     12  C   UNL     1       3.394   5.926  18.561  0.00  0.00    +0.000 C 
BRANCH  12  13
ATOM     13  C   UNL     1       2.526   4.966  19.331  0.00  0.00    +0.000 A 
ATOM     14  C   UNL     1       2.476   4.752  20.694  0.00  0.00    +0.000 A 
ATOM     15  C   UNL     1       1.546   3.730  21.048  0.00  0.00    +0.000 A 
ATOM     16  C   UNL     1       0.915   3.201  19.947  0.00  0.00    +0.000 A 
ATOM     17  S   UNL     1       1.447   3.927  18.495  0.00  0.00    +0.000 S 
ENDBRANCH  12  13
ENDBRANCH   6  12
TORSDOF 4
ENDMDL
