MODEL 1
REMARK VINA RESULT:      -7.7      0.000      0.000
REMARK  Name = 
REMARK  6 active torsions:
REMARK  status: ('A' for Active; 'I' for Inactive)
REMARK    1  A    between atoms: C_1  and  C_2
REMARK    2  A    between atoms: N_4  and  C_5
REMARK    3  A    between atoms: C_8  and  S_9
REMARK    4  A    between atoms: S_9  and  N_12
REMARK    5  A    between atoms: C_15  and  C_16
REMARK    6  A    between atoms: C_16  and  C_17
REMARK                            x       y       z     vdW  Elec       q    Type
REMARK                         _______ _______ _______ _____ _____    ______ ____
ROOT
ATOM      1  N   UNL     1       5.728   5.004  18.061  0.00  0.00    +0.000 NA
ATOM      2  C   UNL     1       5.917   5.560  16.711  0.00  0.00    +0.000 C 
ATOM      3  C   UNL     1       7.324   6.095  16.473  0.00  0.00    +0.000 C 
ATOM      4  C   UNL     1       7.846   7.024  17.573  0.00  0.00    +0.000 C 
ATOM      5  C   UNL     1       7.792   6.225  18.886  0.00  0.00    +0.000 C 
ATOM      6  C   UNL     1       6.460   5.549  19.217  0.00  0.00    +0.000 C 
ENDROOT
BRANCH   1   7
ATOM      7  S   UNL     1       4.212   4.289  18.392  0.00  0.00    +0.000 S 
ATOM      8  O   UNL     1       4.433   3.154  19.226  0.00  0.00    +0.000 OA
ATOM      9  O   UNL     1       3.515   4.168  17.114  0.00  0.00    +0.000 OA
BRANCH   7  17
ATOM     10  C   UNL     1       2.161   3.822  21.289  0.00  0.00    +0.000 C 
ATOM     11  C   UNL     1       2.373   5.037  20.467  0.00  0.00    +0.000 A 
ATOM     12  N   UNL     1       1.690   6.120  20.863  0.00  0.00    +0.000 NA
ATOM     13  N   UNL     1       2.017   7.065  19.971  0.00  0.00    +0.000 N 
ATOM     14  C   UNL     1       1.433   8.374  20.119  0.00  0.00    +0.000 C 
ATOM     15  C   UNL     1       2.896   6.626  19.034  0.00  0.00    +0.000 A 
ATOM     16 CL   UNL     1       3.434   7.681  17.813  0.00  0.00    +0.000 Cl
ATOM     17  C   UNL     1       3.181   5.313  19.322  0.00  0.00    +0.000 A 
ENDBRANCH   7  17
ENDBRANCH   1   7
BRANCH   4  18
ATOM     18  C   UNL     1       7.224   8.442  17.729  0.00  0.00    +0.000 C 
BRANCH  18  19
ATOM     19  C   UNL     1       8.159   9.572  18.126  0.00  0.00    +0.000 A 
ATOM     20  C   UNL     1       9.078   9.420  19.176  0.00  0.00    +0.000 A 
ATOM     21  C   UNL     1       9.820  10.508  19.649  0.00  0.00    +0.000 A 
ATOM     22  C   UNL     1       9.709  11.742  19.018  0.00  0.00    +0.000 A 
ATOM     23 CL   UNL     1      10.545  13.104  19.650  0.00  0.00    +0.000 Cl
ATOM     24  C   UNL     1       8.914  11.874  17.884  0.00  0.00    +0.000 A 
ATOM     25  C   UNL     1       8.142  10.795  17.440  0.00  0.00    +0.000 A 
ENDBRANCH  18  19
ENDBRANCH   4  18
TORSDOF 4
ENDMDL
MODEL 2
REMARK VINA RESULT:      -7.4      3.518      7.217
REMARK  Name = 
REMARK  6 active torsions:
REMARK  status: ('A' for Active; 'I' for Inactive)
REMARK    1  A    between atoms: C_1  and  C_2
REMARK    2  A    between atoms: N_4  and  C_5
REMARK    3  A    between atoms: C_8  and  S_9
REMARK    4  A    between atoms: S_9  and  N_12
REMARK    5  A    between atoms: C_15  and  C_16
REMARK    6  A    between atoms: C_16  and  C_17
REMARK                            x       y       z     vdW  Elec       q    Type
REMARK                         _______ _______ _______ _____ _____    ______ ____
ROOT
ATOM      1  N   UNL     1       3.887   5.352  19.123  0.00  0.00    +0.000 NA
ATOM      2  C   UNL     1       3.073   4.892  20.261  0.00  0.00    +0.000 C 
ATOM      3  C   UNL     1       1.629   5.376  20.202  0.00  0.00    +0.000 C 
ATOM      4  C   UNL     1       1.471   6.875  19.932  0.00  0.00    +0.000 C 
ATOM      5  C   UNL     1       2.186   7.160  18.601  0.00  0.00    +0.000 C 
ATOM      6  C   UNL     1       3.622   6.649  18.476  0.00  0.00    +0.000 C 
ENDROOT
BRANCH   1   7
ATOM      7  S   UNL     1       5.494   4.780  19.047  0.00  0.00    +0.000 S 
ATOM      8  O   UNL     1       5.459   3.356  19.116  0.00  0.00    +0.000 OA
ATOM      9  O   UNL     1       6.268   5.567  20.004  0.00  0.00    +0.000 OA
BRANCH   7  17
ATOM     10  C   UNL     1       7.810   7.258  17.900  0.00  0.00    +0.000 C 
ATOM     11  C   UNL     1       7.161   6.153  17.154  0.00  0.00    +0.000 A 
ATOM     12  N   UNL     1       7.483   6.074  15.856  0.00  0.00    +0.000 NA
ATOM     13  N   UNL     1       6.770   5.037  15.397  0.00  0.00    +0.000 N 
ATOM     14  C   UNL     1       6.892   4.687  14.005  0.00  0.00    +0.000 C 
ATOM     15  C   UNL     1       6.019   4.444  16.361  0.00  0.00    +0.000 A 
ATOM     16 CL   UNL     1       5.043   3.106  15.976  0.00  0.00    +0.000 Cl
ATOM     17  C   UNL     1       6.253   5.119  17.536  0.00  0.00    +0.000 A 
ENDBRANCH   7  17
ENDBRANCH   1   7
BRANCH   4  18
ATOM     18  C   UNL     1       1.874   7.893  21.039  0.00  0.00    +0.000 C 
BRANCH  18  19
ATOM     19  C   UNL     1       0.854   8.957  21.408  0.00  0.00    +0.000 A 
ATOM     20  C   UNL     1       0.406   9.894  20.464  0.00  0.00    +0.000 A 
ATOM     21  C   UNL     1      -0.402  10.971  20.844  0.00  0.00    +0.000 A 
ATOM     22  C   UNL     1      -0.838  11.073  22.160  0.00  0.00    +0.000 A 
ATOM     23 CL   UNL     1      -1.754  12.441  22.655  0.00  0.00    +0.000 Cl
ATOM     24  C   UNL     1      -0.524  10.074  23.075  0.00  0.00    +0.000 A 
ATOM     25  C   UNL     1       0.319   9.021  22.703  0.00  0.00    +0.000 A 
ENDBRANCH  18  19
ENDBRANCH   4  18
TORSDOF 4
ENDMDL
MODEL 3
REMARK VINA RESULT:      -6.6      1.278      1.834
REMARK  Name = 
REMARK  6 active torsions:
REMARK  status: ('A' for Active; 'I' for Inactive)
REMARK    1  A    between atoms: C_1  and  C_2
REMARK    2  A    between atoms: N_4  and  C_5
REMARK    3  A    between atoms: C_8  and  S_9
REMARK    4  A    between atoms: S_9  and  N_12
REMARK    5  A    between atoms: C_15  and  C_16
REMARK    6  A    between atoms: C_16  and  C_17
REMARK                            x       y       z     vdW  Elec       q    Type
REMARK                         _______ _______ _______ _____ _____    ______ ____
ROOT
ATOM      1  N   UNL     1       5.656   5.342  18.050  0.00  0.00    +0.000 NA
ATOM      2  C   UNL     1       5.854   5.957  16.727  0.00  0.00    +0.000 C 
ATOM      3  C   UNL     1       7.300   6.358  16.461  0.00  0.00    +0.000 C 
ATOM      4  C   UNL     1       7.957   7.159  17.588  0.00  0.00    +0.000 C 
ATOM      5  C   UNL     1       7.866   6.292  18.855  0.00  0.00    +0.000 C 
ATOM      6  C   UNL     1       6.483   5.738  19.203  0.00  0.00    +0.000 C 
ENDROOT
BRANCH   1   7
ATOM      7  S   UNL     1       4.086   4.769  18.404  0.00  0.00    +0.000 S 
ATOM      8  O   UNL     1       4.195   3.806  19.450  0.00  0.00    +0.000 OA
ATOM      9  O   UNL     1       3.461   4.435  17.127  0.00  0.00    +0.000 OA
BRANCH   7  17
ATOM     10  C   UNL     1       3.258   8.117  17.444  0.00  0.00    +0.000 C 
ATOM     11  C   UNL     1       2.798   7.327  18.611  0.00  0.00    +0.000 A 
ATOM     12  N   UNL     1       1.951   7.963  19.433  0.00  0.00    +0.000 NA
ATOM     13  N   UNL     1       1.700   7.075  20.405  0.00  0.00    +0.000 N 
ATOM     14  C   UNL     1       0.809   7.462  21.468  0.00  0.00    +0.000 C 
ATOM     15  C   UNL     1       2.343   5.894  20.221  0.00  0.00    +0.000 A 
ATOM     16 CL   UNL     1       2.150   4.636  21.350  0.00  0.00    +0.000 Cl
ATOM     17  C   UNL     1       3.059   5.994  19.051  0.00  0.00    +0.000 A 
ENDBRANCH   7  17
ENDBRANCH   1   7
BRANCH   4  18
ATOM     18  C   UNL     1       7.493   8.622  17.850  0.00  0.00    +0.000 C 
BRANCH  18  19
ATOM     19  C   UNL     1       8.544   9.608  18.334  0.00  0.00    +0.000 A 
ATOM     20  C   UNL     1       8.948   9.639  19.677  0.00  0.00    +0.000 A 
ATOM     21  C   UNL     1       9.788  10.651  20.154  0.00  0.00    +0.000 A 
ATOM     22  C   UNL     1      10.299  11.594  19.270  0.00  0.00    +0.000 A 
ATOM     23 CL   UNL     1      11.256  12.893  19.864  0.00  0.00    +0.000 Cl
ATOM     24  C   UNL     1      10.027  11.491  17.910  0.00  0.00    +0.000 A 
ATOM     25  C   UNL     1       9.152  10.503  17.443  0.00  0.00    +0.000 A 
ENDBRANCH  18  19
ENDBRANCH   4  18
TORSDOF 4
ENDMDL
MODEL 4
REMARK VINA RESULT:      -6.6      1.214      1.509
REMARK  Name = 
REMARK  6 active torsions:
REMARK  status: ('A' for Active; 'I' for Inactive)
REMARK    1  A    between atoms: C_1  and  C_2
REMARK    2  A    between atoms: N_4  and  C_5
REMARK    3  A    between atoms: C_8  and  S_9
REMARK    4  A    between atoms: S_9  and  N_12
REMARK    5  A    between atoms: C_15  and  C_16
REMARK    6  A    between atoms: C_16  and  C_17
REMARK                            x       y       z     vdW  Elec       q    Type
REMARK                         _______ _______ _______ _____ _____    ______ ____
ROOT
ATOM      1  N   UNL     1       4.870   3.887  17.497  0.00  0.00    +0.000 NA
ATOM      2  C   UNL     1       4.914   4.442  16.134  0.00  0.00    +0.000 C 
ATOM      3  C   UNL     1       6.307   4.888  15.711  0.00  0.00    +0.000 C 
ATOM      4  C   UNL     1       7.030   5.772  16.732  0.00  0.00    +0.000 C 
ATOM      5  C   UNL     1       7.099   4.968  18.040  0.00  0.00    +0.000 C 
ATOM      6  C   UNL     1       5.783   4.375  18.545  0.00  0.00    +0.000 C 
ENDROOT
BRANCH   1   7
ATOM      7  S   UNL     1       3.369   3.268  18.027  0.00  0.00    +0.000 S 
ATOM      8  O   UNL     1       3.612   2.024  18.680  0.00  0.00    +0.000 OA
ATOM      9  O   UNL     1       2.450   3.365  16.896  0.00  0.00    +0.000 OA
BRANCH   7  17
ATOM     10  C   UNL     1       1.631   2.606  21.086  0.00  0.00    +0.000 C 
ATOM     11  C   UNL     1       1.932   3.901  20.431  0.00  0.00    +0.000 A 
ATOM     12  N   UNL     1       1.480   4.986  21.077  0.00  0.00    +0.000 NA
ATOM     13  N   UNL     1       1.844   6.013  20.298  0.00  0.00    +0.000 N 
ATOM     14  C   UNL     1       1.495   7.346  20.719  0.00  0.00    +0.000 C 
ATOM     15  C   UNL     1       2.524   5.622  19.190  0.00  0.00    +0.000 A 
ATOM     16 CL   UNL     1       3.072   6.783  18.074  0.00  0.00    +0.000 Cl
ATOM     17  C   UNL     1       2.630   4.252  19.236  0.00  0.00    +0.000 A 
ENDBRANCH   7  17
ENDBRANCH   1   7
BRANCH   4  18
ATOM     18  C   UNL     1       6.526   7.226  16.968  0.00  0.00    +0.000 C 
BRANCH  18  19
ATOM     19  C   UNL     1       7.492   8.198  17.626  0.00  0.00    +0.000 A 
ATOM     20  C   UNL     1       8.370   7.778  18.637  0.00  0.00    +0.000 A 
ATOM     21  C   UNL     1       9.138   8.701  19.355  0.00  0.00    +0.000 A 
ATOM     22  C   UNL     1       9.095  10.047  19.010  0.00  0.00    +0.000 A 
ATOM     23 CL   UNL     1       9.964  11.199  19.945  0.00  0.00    +0.000 Cl
ATOM     24  C   UNL     1       8.343  10.460  17.916  0.00  0.00    +0.000 A 
ATOM     25  C   UNL     1       7.543   9.541  17.227  0.00  0.00    +0.000 A 
ENDBRANCH  18  19
ENDBRANCH   4  18
TORSDOF 4
ENDMDL
MODEL 5
REMARK VINA RESULT:      -6.5      6.070      8.408
REMARK  Name = 
REMARK  6 active torsions:
REMARK  status: ('A' for Active; 'I' for Inactive)
REMARK    1  A    between atoms: C_1  and  C_2
REMARK    2  A    between atoms: N_4  and  C_5
REMARK    3  A    between atoms: C_8  and  S_9
REMARK    4  A    between atoms: S_9  and  N_12
REMARK    5  A    between atoms: C_15  and  C_16
REMARK    6  A    between atoms: C_16  and  C_17
REMARK                            x       y       z     vdW  Elec       q    Type
REMARK                         _______ _______ _______ _____ _____    ______ ____
ROOT
ATOM      1  N   UNL     1       0.361  12.147  19.543  0.00  0.00    +0.000 NA
ATOM      2  C   UNL     1       1.786  11.883  19.281  0.00  0.00    +0.000 C 
ATOM      3  C   UNL     1       2.016  10.936  18.109  0.00  0.00    +0.000 C 
ATOM      4  C   UNL     1       1.176   9.656  18.150  0.00  0.00    +0.000 C 
ATOM      5  C   UNL     1      -0.296  10.097  18.202  0.00  0.00    +0.000 C 
ATOM      6  C   UNL     1      -0.663  11.122  19.276  0.00  0.00    +0.000 C 
ENDROOT
BRANCH   1   7
ATOM      7  S   UNL     1       0.003  13.274  20.776  0.00  0.00    +0.000 S 
ATOM      8  O   UNL     1      -0.700  14.364  20.184  0.00  0.00    +0.000 OA
ATOM      9  O   UNL     1       1.238  13.484  21.527  0.00  0.00    +0.000 OA
BRANCH   7  17
ATOM     10  C   UNL     1      -0.189  10.233  22.656  0.00  0.00    +0.000 C 
ATOM     11  C   UNL     1      -1.102  11.401  22.651  0.00  0.00    +0.000 A 
ATOM     12  N   UNL     1      -2.162  11.301  23.466  0.00  0.00    +0.000 NA
ATOM     13  N   UNL     1      -2.839  12.440  23.275  0.00  0.00    +0.000 N 
ATOM     14  C   UNL     1      -4.057  12.643  24.017  0.00  0.00    +0.000 C 
ATOM     15  C   UNL     1      -2.240  13.268  22.380  0.00  0.00    +0.000 A 
ATOM     16 CL   UNL     1      -2.948  14.767  22.002  0.00  0.00    +0.000 Cl
ATOM     17  C   UNL     1      -1.088  12.648  21.956  0.00  0.00    +0.000 A 
ENDBRANCH   7  17
ENDBRANCH   1   7
BRANCH   4  18
ATOM     18  C   UNL     1       1.497   8.572  19.221  0.00  0.00    +0.000 C 
BRANCH  18  19
ATOM     19  C   UNL     1       2.487   7.486  18.834  0.00  0.00    +0.000 A 
ATOM     20  C   UNL     1       2.656   6.341  19.626  0.00  0.00    +0.000 A 
ATOM     21  C   UNL     1       3.680   5.425  19.361  0.00  0.00    +0.000 A 
ATOM     22  C   UNL     1       4.494   5.605  18.249  0.00  0.00    +0.000 A 
ATOM     23 CL   UNL     1       5.812   4.538  17.969  0.00  0.00    +0.000 Cl
ATOM     24  C   UNL     1       4.246   6.655  17.370  0.00  0.00    +0.000 A 
ATOM     25  C   UNL     1       3.248   7.593  17.661  0.00  0.00    +0.000 A 
ENDBRANCH  18  19
ENDBRANCH   4  18
TORSDOF 4
ENDMDL
MODEL 6
REMARK VINA RESULT:      -6.5      8.355     11.293
REMARK  Name = 
REMARK  6 active torsions:
REMARK  status: ('A' for Active; 'I' for Inactive)
REMARK    1  A    between atoms: C_1  and  C_2
REMARK    2  A    between atoms: N_4  and  C_5
REMARK    3  A    between atoms: C_8  and  S_9
REMARK    4  A    between atoms: S_9  and  N_12
REMARK    5  A    between atoms: C_15  and  C_16
REMARK    6  A    between atoms: C_16  and  C_17
REMARK                            x       y       z     vdW  Elec       q    Type
REMARK                         _______ _______ _______ _____ _____    ______ ____
ROOT
ATOM      1  N   UNL     1      -2.786  12.719  22.346  0.00  0.00    +0.000 NA
ATOM      2  C   UNL     1      -1.761  11.779  22.832  0.00  0.00    +0.000 C 
ATOM      3  C   UNL     1      -0.412  11.956  22.148  0.00  0.00    +0.000 C 
ATOM      4  C   UNL     1      -0.476  12.022  20.619  0.00  0.00    +0.000 C 
ATOM      5  C   UNL     1      -1.412  13.189  20.267  0.00  0.00    +0.000 C 
ATOM      6  C   UNL     1      -2.779  13.197  20.953  0.00  0.00    +0.000 C 
ENDROOT
BRANCH   1   7
ATOM      7  S   UNL     1      -4.307  12.665  23.122  0.00  0.00    +0.000 S 
ATOM      8  O   UNL     1      -4.164  11.900  24.318  0.00  0.00    +0.000 OA
ATOM      9  O   UNL     1      -5.289  12.304  22.103  0.00  0.00    +0.000 OA
BRANCH   7  17
ATOM     10  C   UNL     1      -7.364  14.510  22.858  0.00  0.00    +0.000 C 
ATOM     11  C   UNL     1      -6.082  14.891  23.496  0.00  0.00    +0.000 A 
ATOM     12  N   UNL     1      -6.061  16.111  24.051  0.00  0.00    +0.000 NA
ATOM     13  N   UNL     1      -4.818  16.238  24.533  0.00  0.00    +0.000 N 
ATOM     14  C   UNL     1      -4.466  17.465  25.199  0.00  0.00    +0.000 C 
ATOM     15  C   UNL     1      -4.053  15.137  24.319  0.00  0.00    +0.000 A 
ATOM     16 CL   UNL     1      -2.441  15.103  24.859  0.00  0.00    +0.000 Cl
ATOM     17  C   UNL     1      -4.835  14.215  23.664  0.00  0.00    +0.000 A 
ENDBRANCH   7  17
ENDBRANCH   1   7
BRANCH   4  18
ATOM     18  C   UNL     1      -0.827  10.733  19.818  0.00  0.00    +0.000 C 
BRANCH  18  19
ATOM     19  C   UNL     1       0.314   9.782  19.498  0.00  0.00    +0.000 A 
ATOM     20  C   UNL     1       0.878   9.729  18.215  0.00  0.00    +0.000 A 
ATOM     21  C   UNL     1       1.811   8.743  17.876  0.00  0.00    +0.000 A 
ATOM     22  C   UNL     1       2.250   7.850  18.847  0.00  0.00    +0.000 A 
ATOM     23 CL   UNL     1       3.324   6.578  18.418  0.00  0.00    +0.000 Cl
ATOM     24  C   UNL     1       1.811   7.980  20.160  0.00  0.00    +0.000 A 
ATOM     25  C   UNL     1       0.847   8.941  20.486  0.00  0.00    +0.000 A 
ENDBRANCH  18  19
ENDBRANCH   4  18
TORSDOF 4
ENDMDL
MODEL 7
REMARK VINA RESULT:      -6.3      6.209      9.306
REMARK  Name = 
REMARK  6 active torsions:
REMARK  status: ('A' for Active; 'I' for Inactive)
REMARK    1  A    between atoms: C_1  and  C_2
REMARK    2  A    between atoms: N_4  and  C_5
REMARK    3  A    between atoms: C_8  and  S_9
REMARK    4  A    between atoms: S_9  and  N_12
REMARK    5  A    between atoms: C_15  and  C_16
REMARK    6  A    between atoms: C_16  and  C_17
REMARK                            x       y       z     vdW  Elec       q    Type
REMARK                         _______ _______ _______ _____ _____    ______ ____
ROOT
ATOM      1  N   UNL     1       1.059  11.838  20.119  0.00  0.00    +0.000 NA
ATOM      2  C   UNL     1       1.075  10.816  19.059  0.00  0.00    +0.000 C 
ATOM      3  C   UNL     1       0.123   9.657  19.327  0.00  0.00    +0.000 C 
ATOM      4  C   UNL     1       0.233   9.055  20.731  0.00  0.00    +0.000 C 
ATOM      5  C   UNL     1      -0.024  10.200  21.723  0.00  0.00    +0.000 C 
ATOM      6  C   UNL     1       0.799  11.473  21.522  0.00  0.00    +0.000 C 
ENDROOT
BRANCH   1   7
ATOM      7  S   UNL     1       2.021  13.226  19.862  0.00  0.00    +0.000 S 
ATOM      8  O   UNL     1       2.832  12.993  18.712  0.00  0.00    +0.000 OA
ATOM      9  O   UNL     1       2.614  13.574  21.151  0.00  0.00    +0.000 OA
BRANCH   7  17
ATOM     10  C   UNL     1      -1.442  14.094  20.128  0.00  0.00    +0.000 C 
ATOM     11  C   UNL     1      -0.311  14.878  19.578  0.00  0.00    +0.000 A 
ATOM     12  N   UNL     1      -0.633  16.089  19.104  0.00  0.00    +0.000 NA
ATOM     13  N   UNL     1       0.524  16.588  18.648  0.00  0.00    +0.000 N 
ATOM     14  C   UNL     1       0.515  17.902  18.059  0.00  0.00    +0.000 C 
ATOM     15  C   UNL     1       1.572  15.744  18.831  0.00  0.00    +0.000 A 
ATOM     16 CL   UNL     1       3.128  16.198  18.318  0.00  0.00    +0.000 Cl
ATOM     17  C   UNL     1       1.088  14.619  19.455  0.00  0.00    +0.000 A 
ENDBRANCH   7  17
ENDBRANCH   1   7
BRANCH   4  18
ATOM     18  C   UNL     1       1.501   8.233  21.107  0.00  0.00    +0.000 C 
BRANCH  18  19
ATOM     19  C   UNL     1       1.844   7.043  20.225  0.00  0.00    +0.000 A 
ATOM     20  C   UNL     1       2.447   7.218  18.970  0.00  0.00    +0.000 A 
ATOM     21  C   UNL     1       2.611   6.142  18.091  0.00  0.00    +0.000 A 
ATOM     22  C   UNL     1       2.247   4.863  18.496  0.00  0.00    +0.000 A 
ATOM     23 CL   UNL     1       2.358   3.551  17.390  0.00  0.00    +0.000 Cl
ATOM     24  C   UNL     1       1.784   4.649  19.790  0.00  0.00    +0.000 A 
ATOM     25  C   UNL     1       1.582   5.733  20.651  0.00  0.00    +0.000 A 
ENDBRANCH  18  19
ENDBRANCH   4  18
TORSDOF 4
ENDMDL
MODEL 8
REMARK VINA RESULT:      -6.3      3.764      7.557
REMARK  Name = 
REMARK  6 active torsions:
REMARK  status: ('A' for Active; 'I' for Inactive)
REMARK    1  A    between atoms: C_1  and  C_2
REMARK    2  A    between atoms: N_4  and  C_5
REMARK    3  A    between atoms: C_8  and  S_9
REMARK    4  A    between atoms: S_9  and  N_12
REMARK    5  A    between atoms: C_15  and  C_16
REMARK    6  A    between atoms: C_16  and  C_17
REMARK                            x       y       z     vdW  Elec       q    Type
REMARK                         _______ _______ _______ _____ _____    ______ ____
ROOT
ATOM      1  N   UNL     1       2.180   7.219  19.047  0.00  0.00    +0.000 NA
ATOM      2  C   UNL     1       2.036   7.982  17.796  0.00  0.00    +0.000 C 
ATOM      3  C   UNL     1       2.033   9.491  18.010  0.00  0.00    +0.000 C 
ATOM      4  C   UNL     1       1.085   9.976  19.110  0.00  0.00    +0.000 C 
ATOM      5  C   UNL     1       1.502   9.253  20.401  0.00  0.00    +0.000 C 
ATOM      6  C   UNL     1       1.637   7.732  20.317  0.00  0.00    +0.000 C 
ENDROOT
BRANCH   1   7
ATOM      7  S   UNL     1       2.292   5.521  18.902  0.00  0.00    +0.000 S 
ATOM      8  O   UNL     1       1.695   5.144  17.663  0.00  0.00    +0.000 OA
ATOM      9  O   UNL     1       1.833   4.957  20.169  0.00  0.00    +0.000 OA
BRANCH   7  17
ATOM     10  C   UNL     1       4.078   2.673  20.135  0.00  0.00    +0.000 C 
ATOM     11  C   UNL     1       4.564   3.816  19.325  0.00  0.00    +0.000 A 
ATOM     12  N   UNL     1       5.867   3.781  19.013  0.00  0.00    +0.000 NA
ATOM     13  N   UNL     1       6.073   4.905  18.315  0.00  0.00    +0.000 N 
ATOM     14  C   UNL     1       7.402   5.173  17.828  0.00  0.00    +0.000 C 
ATOM     15  C   UNL     1       4.945   5.644  18.157  0.00  0.00    +0.000 A 
ATOM     16 CL   UNL     1       5.001   7.109  17.295  0.00  0.00    +0.000 Cl
ATOM     17  C   UNL     1       3.922   4.968  18.779  0.00  0.00    +0.000 A 
ENDBRANCH   7  17
ENDBRANCH   1   7
BRANCH   4  18
ATOM     18  C   UNL     1      -0.452   9.905  18.874  0.00  0.00    +0.000 C 
BRANCH  18  19
ATOM     19  C   UNL     1      -1.291  11.053  19.410  0.00  0.00    +0.000 A 
ATOM     20  C   UNL     1      -0.855  11.827  20.496  0.00  0.00    +0.000 A 
ATOM     21  C   UNL     1      -1.697  12.772  21.093  0.00  0.00    +0.000 A 
ATOM     22  C   UNL     1      -2.956  13.008  20.554  0.00  0.00    +0.000 A 
ATOM     23 CL   UNL     1      -4.031  14.099  21.337  0.00  0.00    +0.000 Cl
ATOM     24  C   UNL     1      -3.348  12.355  19.391  0.00  0.00    +0.000 A 
ATOM     25  C   UNL     1      -2.521  11.381  18.821  0.00  0.00    +0.000 A 
ENDBRANCH  18  19
ENDBRANCH   4  18
TORSDOF 4
ENDMDL
MODEL 9
REMARK VINA RESULT:      -6.3      4.208      7.921
REMARK  Name = 
REMARK  6 active torsions:
REMARK  status: ('A' for Active; 'I' for Inactive)
REMARK    1  A    between atoms: C_1  and  C_2
REMARK    2  A    between atoms: N_4  and  C_5
REMARK    3  A    between atoms: C_8  and  S_9
REMARK    4  A    between atoms: S_9  and  N_12
REMARK    5  A    between atoms: C_15  and  C_16
REMARK    6  A    between atoms: C_16  and  C_17
REMARK                            x       y       z     vdW  Elec       q    Type
REMARK                         _______ _______ _______ _____ _____    ______ ____
ROOT
ATOM      1  N   UNL     1       2.580   7.343  19.103  0.00  0.00    +0.000 NA
ATOM      2  C   UNL     1       2.627   7.940  17.757  0.00  0.00    +0.000 C 
ATOM      3  C   UNL     1       2.243   9.413  17.739  0.00  0.00    +0.000 C 
ATOM      4  C   UNL     1       0.946   9.742  18.486  0.00  0.00    +0.000 C 
ATOM      5  C   UNL     1       1.136   9.256  19.932  0.00  0.00    +0.000 C 
ATOM      6  C   UNL     1       1.612   7.813  20.108  0.00  0.00    +0.000 C 
ENDROOT
BRANCH   1   7
ATOM      7  S   UNL     1       3.090   5.719  19.242  0.00  0.00    +0.000 S 
ATOM      8  O   UNL     1       1.930   4.906  19.403  0.00  0.00    +0.000 OA
ATOM      9  O   UNL     1       4.174   5.699  20.221  0.00  0.00    +0.000 OA
BRANCH   7  17
ATOM     10  C   UNL     1       2.569   2.871  17.135  0.00  0.00    +0.000 C 
ATOM     11  C   UNL     1       3.573   3.957  17.027  0.00  0.00    +0.000 A 
ATOM     12  N   UNL     1       4.416   3.853  15.989  0.00  0.00    +0.000 NA
ATOM     13  N   UNL     1       5.228   4.911  16.112  0.00  0.00    +0.000 N 
ATOM     14  C   UNL     1       6.271   5.089  15.134  0.00  0.00    +0.000 C 
ATOM     15  C   UNL     1       4.922   5.692  17.180  0.00  0.00    +0.000 A 
ATOM     16 CL   UNL     1       5.840   7.086  17.505  0.00  0.00    +0.000 Cl
ATOM     17  C   UNL     1       3.833   5.127  17.802  0.00  0.00    +0.000 A 
ENDBRANCH   7  17
ENDBRANCH   1   7
BRANCH   4  18
ATOM     18  C   UNL     1      -0.413   9.275  17.888  0.00  0.00    +0.000 C 
BRANCH  18  19
ATOM     19  C   UNL     1      -1.610  10.190  18.088  0.00  0.00    +0.000 A 
ATOM     20  C   UNL     1      -1.524  11.336  18.892  0.00  0.00    +0.000 A 
ATOM     21  C   UNL     1      -2.663  12.084  19.209  0.00  0.00    +0.000 A 
ATOM     22  C   UNL     1      -3.889  11.737  18.653  0.00  0.00    +0.000 A 
ATOM     23 CL   UNL     1      -5.309  12.592  19.109  0.00  0.00    +0.000 Cl
ATOM     24  C   UNL     1      -3.967  10.693  17.737  0.00  0.00    +0.000 A 
ATOM     25  C   UNL     1      -2.833   9.921  17.456  0.00  0.00    +0.000 A 
ENDBRANCH  18  19
ENDBRANCH   4  18
TORSDOF 4
ENDMDL
