MODEL 1
REMARK VINA RESULT:      -6.9      0.000      0.000
REMARK  Name = 
REMARK  13 active torsions:
REMARK  status: ('A' for Active; 'I' for Inactive)
REMARK    1  A    between atoms: C_1  and  C_2
REMARK    2  A    between atoms: C_2  and  O_3
REMARK    3  A    between atoms: O_3  and  C_4
REMARK    4  A    between atoms: C_4  and  C_6
REMARK    5  A    between atoms: C_9  and  N_10
REMARK    6  A    between atoms: C_11  and  S_12
REMARK    7  A    between atoms: N_13  and  C_14
REMARK    8  A    between atoms: C_14  and  C_15
REMARK    9  A    between atoms: C_15  and  C_16
REMARK   10  A    between atoms: C_19  and  O_20
REMARK   11  A    between atoms: O_20  and  C_21
REMARK   12  A    between atoms: C_22  and  O_23
REMARK   13  A    between atoms: O_23  and  C_24
REMARK                            x       y       z     vdW  Elec       q    Type
REMARK                         _______ _______ _______ _____ _____    ______ ____
ROOT
ATOM      1  N   UNL     1       7.307   5.883  15.901  0.00  0.00    +0.000 N 
ATOM      2  C   UNL     1       6.525   6.676  16.705  0.00  0.00    +0.000 C 
ATOM      3  N   UNL     1       5.239   6.714  16.749  0.00  0.00    +0.000 NA
ATOM      4  H   UNL     1       8.278   6.160  15.856  0.00  0.00    +0.000 HD
ENDROOT
BRANCH   1   8
ATOM      5  C   UNL     1       6.020   3.394  12.734  0.00  0.00    +0.000 A 
ATOM      6  C   UNL     1       7.059   4.310  12.547  0.00  0.00    +0.000 A 
ATOM      7  C   UNL     1       7.495   5.102  13.617  0.00  0.00    +0.000 A 
ATOM      8  C   UNL     1       6.902   5.002  14.887  0.00  0.00    +0.000 A 
ATOM      9  C   UNL     1       5.891   4.054  15.066  0.00  0.00    +0.000 A 
ATOM     10  C   UNL     1       5.455   3.254  14.006  0.00  0.00    +0.000 A 
BRANCH   5  11
ATOM     11  C   UNL     1       5.490   2.660  11.554  0.00  0.00    +0.000 C 
ATOM     12  O   UNL     1       5.765   1.499  11.293  0.00  0.00    +0.000 OA
BRANCH  11  13
ATOM     13  O   UNL     1       4.766   3.509  10.785  0.00  0.00    +0.000 OA
BRANCH  13  15
ATOM     14  C   UNL     1       2.788   4.107   9.577  0.00  0.00    +0.000 C 
ATOM     15  C   UNL     1       3.368   3.219  10.664  0.00  0.00    +0.000 C 
ENDBRANCH  13  15
ENDBRANCH  11  13
ENDBRANCH   5  11
ENDBRANCH   1   8
BRANCH   2  16
ATOM     16  S   UNL     1       7.556   7.716  17.702  0.00  0.00    +0.000 S 
ATOM     17  H   UNL     1       8.696   7.444  17.056  0.00  0.00    +0.000 HD
ENDBRANCH   2  16
BRANCH   3  18
ATOM     18  C   UNL     1       4.573   7.662  17.647  0.00  0.00    +0.000 C 
BRANCH  18  19
ATOM     19  C   UNL     1       3.064   7.394  17.702  0.00  0.00    +0.000 C 
BRANCH  19  20
ATOM     20  C   UNL     1       2.798   6.126  18.486  0.00  0.00    +0.000 A 
ATOM     21  C   UNL     1       2.783   6.148  19.881  0.00  0.00    +0.000 A 
ATOM     22  C   UNL     1       2.642   4.957  20.594  0.00  0.00    +0.000 A 
ATOM     23  C   UNL     1       2.523   3.721  19.940  0.00  0.00    +0.000 A 
ATOM     24  C   UNL     1       2.533   3.683  18.534  0.00  0.00    +0.000 A 
ATOM     25  C   UNL     1       2.663   4.892  17.825  0.00  0.00    +0.000 A 
BRANCH  23  26
ATOM     26  O   UNL     1       2.417   2.682  20.828  0.00  0.00    +0.000 OA
ATOM     27  C   UNL     1       1.326   2.658  21.736  0.00  0.00    +0.000 C 
ENDBRANCH  23  26
BRANCH  24  28
ATOM     28  O   UNL     1       2.436   2.464  17.918  0.00  0.00    +0.000 OA
ATOM     29  C   UNL     1       3.631   1.752  17.628  0.00  0.00    +0.000 C 
ENDBRANCH  24  28
ENDBRANCH  19  20
ENDBRANCH  18  19
ENDBRANCH   3  18
TORSDOF 10
ENDMDL
MODEL 2
REMARK VINA RESULT:      -6.8      5.573      7.017
REMARK  Name = 
REMARK  13 active torsions:
REMARK  status: ('A' for Active; 'I' for Inactive)
REMARK    1  A    between atoms: C_1  and  C_2
REMARK    2  A    between atoms: C_2  and  O_3
REMARK    3  A    between atoms: O_3  and  C_4
REMARK    4  A    between atoms: C_4  and  C_6
REMARK    5  A    between atoms: C_9  and  N_10
REMARK    6  A    between atoms: C_11  and  S_12
REMARK    7  A    between atoms: N_13  and  C_14
REMARK    8  A    between atoms: C_14  and  C_15
REMARK    9  A    between atoms: C_15  and  C_16
REMARK   10  A    between atoms: C_19  and  O_20
REMARK   11  A    between atoms: O_20  and  C_21
REMARK   12  A    between atoms: C_22  and  O_23
REMARK   13  A    between atoms: O_23  and  C_24
REMARK                            x       y       z     vdW  Elec       q    Type
REMARK                         _______ _______ _______ _____ _____    ______ ____
ROOT
ATOM      1  N   UNL     1       3.013   6.329  18.930  0.00  0.00    +0.000 N 
ATOM      2  C   UNL     1       2.293   7.481  19.132  0.00  0.00    +0.000 C 
ATOM      3  N   UNL     1       2.131   8.455  18.306  0.00  0.00    +0.000 NA
ATOM      4  H   UNL     1       3.202   5.800  19.770  0.00  0.00    +0.000 HD
ENDROOT
BRANCH   1   8
ATOM      5  C   UNL     1       5.534   5.170  15.738  0.00  0.00    +0.000 A 
ATOM      6  C   UNL     1       4.803   4.219  16.454  0.00  0.00    +0.000 A 
ATOM      7  C   UNL     1       3.947   4.624  17.486  0.00  0.00    +0.000 A 
ATOM      8  C   UNL     1       3.808   5.980  17.828  0.00  0.00    +0.000 A 
ATOM      9  C   UNL     1       4.517   6.922  17.077  0.00  0.00    +0.000 A 
ATOM     10  C   UNL     1       5.367   6.526  16.040  0.00  0.00    +0.000 A 
BRANCH   5  11
ATOM     11  C   UNL     1       6.531   4.705  14.738  0.00  0.00    +0.000 C 
ATOM     12  O   UNL     1       7.595   5.266  14.526  0.00  0.00    +0.000 OA
BRANCH  11  13
ATOM     13  O   UNL     1       6.022   3.656  14.049  0.00  0.00    +0.000 OA
BRANCH  13  15
ATOM     14  C   UNL     1       5.055   3.258  11.895  0.00  0.00    +0.000 C 
ATOM     15  C   UNL     1       6.326   3.609  12.649  0.00  0.00    +0.000 C 
ENDBRANCH  13  15
ENDBRANCH  11  13
ENDBRANCH   5  11
ENDBRANCH   1   8
BRANCH   2  16
ATOM     16  S   UNL     1       1.604   7.476  20.765  0.00  0.00    +0.000 S 
ATOM     17  H   UNL     1       2.764   7.662  21.407  0.00  0.00    +0.000 HD
ENDBRANCH   2  16
BRANCH   3  18
ATOM     18  C   UNL     1       1.358   9.631  18.715  0.00  0.00    +0.000 C 
BRANCH  18  19
ATOM     19  C   UNL     1       0.093   9.776  17.861  0.00  0.00    +0.000 C 
BRANCH  19  20
ATOM     20  C   UNL     1      -0.943  10.584  18.615  0.00  0.00    +0.000 A 
ATOM     21  C   UNL     1      -2.206  10.801  18.065  0.00  0.00    +0.000 A 
ATOM     22  C   UNL     1      -3.116  11.633  18.719  0.00  0.00    +0.000 A 
ATOM     23  C   UNL     1      -2.788  12.274  19.923  0.00  0.00    +0.000 A 
ATOM     24  C   UNL     1      -1.519  12.063  20.491  0.00  0.00    +0.000 A 
ATOM     25  C   UNL     1      -0.614  11.211  19.830  0.00  0.00    +0.000 A 
BRANCH  23  26
ATOM     26  O   UNL     1      -3.816  13.058  20.380  0.00  0.00    +0.000 OA
ATOM     27  C   UNL     1      -5.100  12.927  19.791  0.00  0.00    +0.000 C 
ENDBRANCH  23  26
BRANCH  24  28
ATOM     28  O   UNL     1      -1.213  12.715  21.656  0.00  0.00    +0.000 OA
ATOM     29  C   UNL     1      -1.349  12.014  22.884  0.00  0.00    +0.000 C 
ENDBRANCH  24  28
ENDBRANCH  19  20
ENDBRANCH  18  19
ENDBRANCH   3  18
TORSDOF 10
ENDMDL
MODEL 3
REMARK VINA RESULT:      -6.8      5.805      7.064
REMARK  Name = 
REMARK  13 active torsions:
REMARK  status: ('A' for Active; 'I' for Inactive)
REMARK    1  A    between atoms: C_1  and  C_2
REMARK    2  A    between atoms: C_2  and  O_3
REMARK    3  A    between atoms: O_3  and  C_4
REMARK    4  A    between atoms: C_4  and  C_6
REMARK    5  A    between atoms: C_9  and  N_10
REMARK    6  A    between atoms: C_11  and  S_12
REMARK    7  A    between atoms: N_13  and  C_14
REMARK    8  A    between atoms: C_14  and  C_15
REMARK    9  A    between atoms: C_15  and  C_16
REMARK   10  A    between atoms: C_19  and  O_20
REMARK   11  A    between atoms: O_20  and  C_21
REMARK   12  A    between atoms: C_22  and  O_23
REMARK   13  A    between atoms: O_23  and  C_24
REMARK                            x       y       z     vdW  Elec       q    Type
REMARK                         _______ _______ _______ _____ _____    ______ ____
ROOT
ATOM      1  N   UNL     1       2.972   6.631  18.902  0.00  0.00    +0.000 N 
ATOM      2  C   UNL     1       2.201   7.766  18.966  0.00  0.00    +0.000 C 
ATOM      3  N   UNL     1       1.991   8.620  18.026  0.00  0.00    +0.000 NA
ATOM      4  H   UNL     1       3.190   6.221  19.800  0.00  0.00    +0.000 HD
ENDROOT
BRANCH   1   8
ATOM      5  C   UNL     1       5.503   5.163  15.849  0.00  0.00    +0.000 A 
ATOM      6  C   UNL     1       4.667   4.299  16.562  0.00  0.00    +0.000 A 
ATOM      7  C   UNL     1       3.811   4.808  17.547  0.00  0.00    +0.000 A 
ATOM      8  C   UNL     1       3.775   6.181  17.843  0.00  0.00    +0.000 A 
ATOM      9  C   UNL     1       4.590   7.035  17.095  0.00  0.00    +0.000 A 
ATOM     10  C   UNL     1       5.442   6.537  16.106  0.00  0.00    +0.000 A 
BRANCH   5  11
ATOM     11  C   UNL     1       6.494   4.583  14.904  0.00  0.00    +0.000 C 
ATOM     12  O   UNL     1       7.646   4.976  14.799  0.00  0.00    +0.000 OA
BRANCH  11  13
ATOM     13  O   UNL     1       5.886   3.654  14.128  0.00  0.00    +0.000 OA
BRANCH  13  15
ATOM     14  C   UNL     1       5.045   3.198  11.934  0.00  0.00    +0.000 C 
ATOM     15  C   UNL     1       6.249   3.651  12.742  0.00  0.00    +0.000 C 
ENDBRANCH  13  15
ENDBRANCH  11  13
ENDBRANCH   5  11
ENDBRANCH   1   8
BRANCH   2  16
ATOM     16  S   UNL     1       1.523   7.937  20.594  0.00  0.00    +0.000 S 
ATOM     17  H   UNL     1       1.405   9.270  20.557  0.00  0.00    +0.000 HD
ENDBRANCH   2  16
BRANCH   3  18
ATOM     18  C   UNL     1       1.168   9.803  18.292  0.00  0.00    +0.000 C 
BRANCH  18  19
ATOM     19  C   UNL     1      -0.276   9.580  17.825  0.00  0.00    +0.000 C 
BRANCH  19  20
ATOM     20  C   UNL     1      -1.186  10.605  18.471  0.00  0.00    +0.000 A 
ATOM     21  C   UNL     1      -0.821  11.218  19.668  0.00  0.00    +0.000 A 
ATOM     22  C   UNL     1      -1.713  12.081  20.308  0.00  0.00    +0.000 A 
ATOM     23  C   UNL     1      -2.986  12.343  19.779  0.00  0.00    +0.000 A 
ATOM     24  C   UNL     1      -3.367  11.733  18.570  0.00  0.00    +0.000 A 
ATOM     25  C   UNL     1      -2.454  10.875  17.927  0.00  0.00    +0.000 A 
BRANCH  23  26
ATOM     26  O   UNL     1      -3.703  13.198  20.575  0.00  0.00    +0.000 OA
ATOM     27  C   UNL     1      -4.576  12.661  21.556  0.00  0.00    +0.000 C 
ENDBRANCH  23  26
BRANCH  24  28
ATOM     28  O   UNL     1      -4.621  11.987  18.084  0.00  0.00    +0.000 OA
ATOM     29  C   UNL     1      -5.637  11.014  18.281  0.00  0.00    +0.000 C 
ENDBRANCH  24  28
ENDBRANCH  19  20
ENDBRANCH  18  19
ENDBRANCH   3  18
TORSDOF 10
ENDMDL
MODEL 4
REMARK VINA RESULT:      -6.8      4.452      8.686
REMARK  Name = 
REMARK  13 active torsions:
REMARK  status: ('A' for Active; 'I' for Inactive)
REMARK    1  A    between atoms: C_1  and  C_2
REMARK    2  A    between atoms: C_2  and  O_3
REMARK    3  A    between atoms: O_3  and  C_4
REMARK    4  A    between atoms: C_4  and  C_6
REMARK    5  A    between atoms: C_9  and  N_10
REMARK    6  A    between atoms: C_11  and  S_12
REMARK    7  A    between atoms: N_13  and  C_14
REMARK    8  A    between atoms: C_14  and  C_15
REMARK    9  A    between atoms: C_15  and  C_16
REMARK   10  A    between atoms: C_19  and  O_20
REMARK   11  A    between atoms: O_20  and  C_21
REMARK   12  A    between atoms: C_22  and  O_23
REMARK   13  A    between atoms: O_23  and  C_24
REMARK                            x       y       z     vdW  Elec       q    Type
REMARK                         _______ _______ _______ _____ _____    ______ ____
ROOT
ATOM      1  N   UNL     1       1.821   6.152  20.840  0.00  0.00    +0.000 N 
ATOM      2  C   UNL     1       2.629   5.139  20.386  0.00  0.00    +0.000 C 
ATOM      3  N   UNL     1       3.491   5.197  19.432  0.00  0.00    +0.000 NA
ATOM      4  H   UNL     1       1.063   5.849  21.436  0.00  0.00    +0.000 HD
ENDROOT
BRANCH   1   8
ATOM      5  C   UNL     1       1.180  10.041  19.306  0.00  0.00    +0.000 A 
ATOM      6  C   UNL     1       0.821   9.721  20.618  0.00  0.00    +0.000 A 
ATOM      7  C   UNL     1       1.072   8.438  21.120  0.00  0.00    +0.000 A 
ATOM      8  C   UNL     1       1.677   7.450  20.325  0.00  0.00    +0.000 A 
ATOM      9  C   UNL     1       2.064   7.797  19.028  0.00  0.00    +0.000 A 
ATOM     10  C   UNL     1       1.824   9.077  18.522  0.00  0.00    +0.000 A 
BRANCH   5  11
ATOM     11  C   UNL     1       0.785  11.365  18.756  0.00  0.00    +0.000 C 
ATOM     12  O   UNL     1      -0.373  11.722  18.607  0.00  0.00    +0.000 OA
BRANCH  11  13
ATOM     13  O   UNL     1       1.893  12.036  18.359  0.00  0.00    +0.000 OA
BRANCH  13  15
ATOM     14  C   UNL     1       2.251  14.401  18.455  0.00  0.00    +0.000 C 
ATOM     15  C   UNL     1       2.337  13.091  19.220  0.00  0.00    +0.000 C 
ENDBRANCH  13  15
ENDBRANCH  11  13
ENDBRANCH   5  11
ENDBRANCH   1   8
BRANCH   2  16
ATOM     16  S   UNL     1       2.299   3.657  21.299  0.00  0.00    +0.000 S 
ATOM     17  H   UNL     1       2.471   2.817  20.271  0.00  0.00    +0.000 HD
ENDBRANCH   2  16
BRANCH   3  18
ATOM     18  C   UNL     1       4.238   3.993  19.055  0.00  0.00    +0.000 C 
BRANCH  18  19
ATOM     19  C   UNL     1       3.931   3.590  17.608  0.00  0.00    +0.000 C 
BRANCH  19  20
ATOM     20  C   UNL     1       4.968   4.189  16.680  0.00  0.00    +0.000 A 
ATOM     21  C   UNL     1       5.239   3.594  15.448  0.00  0.00    +0.000 A 
ATOM     22  C   UNL     1       6.269   4.092  14.648  0.00  0.00    +0.000 A 
ATOM     23  C   UNL     1       7.055   5.180  15.057  0.00  0.00    +0.000 A 
ATOM     24  C   UNL     1       6.790   5.791  16.296  0.00  0.00    +0.000 A 
ATOM     25  C   UNL     1       5.741   5.289  17.089  0.00  0.00    +0.000 A 
BRANCH  23  26
ATOM     26  O   UNL     1       8.018   5.490  14.132  0.00  0.00    +0.000 OA
ATOM     27  C   UNL     1       7.806   5.147  12.772  0.00  0.00    +0.000 C 
ENDBRANCH  23  26
BRANCH  24  28
ATOM     28  O   UNL     1       7.583   6.838  16.684  0.00  0.00    +0.000 OA
ATOM     29  C   UNL     1       7.764   7.076  18.073  0.00  0.00    +0.000 C 
ENDBRANCH  24  28
ENDBRANCH  19  20
ENDBRANCH  18  19
ENDBRANCH   3  18
TORSDOF 10
ENDMDL
MODEL 5
REMARK VINA RESULT:      -6.7      5.665      7.507
REMARK  Name = 
REMARK  13 active torsions:
REMARK  status: ('A' for Active; 'I' for Inactive)
REMARK    1  A    between atoms: C_1  and  C_2
REMARK    2  A    between atoms: C_2  and  O_3
REMARK    3  A    between atoms: O_3  and  C_4
REMARK    4  A    between atoms: C_4  and  C_6
REMARK    5  A    between atoms: C_9  and  N_10
REMARK    6  A    between atoms: C_11  and  S_12
REMARK    7  A    between atoms: N_13  and  C_14
REMARK    8  A    between atoms: C_14  and  C_15
REMARK    9  A    between atoms: C_15  and  C_16
REMARK   10  A    between atoms: C_19  and  O_20
REMARK   11  A    between atoms: O_20  and  C_21
REMARK   12  A    between atoms: C_22  and  O_23
REMARK   13  A    between atoms: O_23  and  C_24
REMARK                            x       y       z     vdW  Elec       q    Type
REMARK                         _______ _______ _______ _____ _____    ______ ____
ROOT
ATOM      1  N   UNL     1       6.995   4.823  17.725  0.00  0.00    +0.000 N 
ATOM      2  C   UNL     1       7.530   5.953  18.293  0.00  0.00    +0.000 C 
ATOM      3  N   UNL     1       7.769   7.078  17.714  0.00  0.00    +0.000 NA
ATOM      4  H   UNL     1       7.096   3.986  18.282  0.00  0.00    +0.000 HD
ENDROOT
BRANCH   1   8
ATOM      5  C   UNL     1       6.021   3.927  13.708  0.00  0.00    +0.000 A 
ATOM      6  C   UNL     1       5.166   3.559  14.751  0.00  0.00    +0.000 A 
ATOM      7  C   UNL     1       5.488   3.894  16.072  0.00  0.00    +0.000 A 
ATOM      8  C   UNL     1       6.668   4.594  16.380  0.00  0.00    +0.000 A 
ATOM      9  C   UNL     1       7.492   4.987  15.322  0.00  0.00    +0.000 A 
ATOM     10  C   UNL     1       7.174   4.664  14.000  0.00  0.00    +0.000 A 
BRANCH   5  11
ATOM     11  C   UNL     1       5.722   3.447  12.333  0.00  0.00    +0.000 C 
ATOM     12  O   UNL     1       6.577   3.101  11.532  0.00  0.00    +0.000 OA
BRANCH  11  13
ATOM     13  O   UNL     1       4.394   3.564  12.094  0.00  0.00    +0.000 OA
BRANCH  13  15
ATOM     14  C   UNL     1       3.188   4.001  10.073  0.00  0.00    +0.000 C 
ATOM     15  C   UNL     1       3.910   2.947  10.894  0.00  0.00    +0.000 C 
ENDBRANCH  13  15
ENDBRANCH  11  13
ENDBRANCH   5  11
ENDBRANCH   1   8
BRANCH   2  16
ATOM     16  S   UNL     1       7.900   5.648  19.998  0.00  0.00    +0.000 S 
ATOM     17  H   UNL     1       6.829   6.282  20.490  0.00  0.00    +0.000 HD
ENDBRANCH   2  16
BRANCH   3  18
ATOM     18  C   UNL     1       8.388   8.168  18.475  0.00  0.00    +0.000 C 
BRANCH  18  19
ATOM     19  C   UNL     1       8.150   9.518  17.788  0.00  0.00    +0.000 C 
BRANCH  19  20
ATOM     20  C   UNL     1       8.973  10.591  18.470  0.00  0.00    +0.000 A 
ATOM     21  C   UNL     1       9.417  10.414  19.780  0.00  0.00    +0.000 A 
ATOM     22  C   UNL     1      10.083  11.451  20.435  0.00  0.00    +0.000 A 
ATOM     23  C   UNL     1      10.312  12.686  19.808  0.00  0.00    +0.000 A 
ATOM     24  C   UNL     1       9.872  12.877  18.486  0.00  0.00    +0.000 A 
ATOM     25  C   UNL     1       9.213  11.820  17.831  0.00  0.00    +0.000 A 
BRANCH  23  26
ATOM     26  O   UNL     1      10.961  13.565  20.635  0.00  0.00    +0.000 OA
ATOM     27  C   UNL     1      10.202  14.506  21.377  0.00  0.00    +0.000 C 
ENDBRANCH  23  26
BRANCH  24  28
ATOM     28  O   UNL     1      10.087  14.097  17.902  0.00  0.00    +0.000 OA
ATOM     29  C   UNL     1      11.321  14.323  17.234  0.00  0.00    +0.000 C 
ENDBRANCH  24  28
ENDBRANCH  19  20
ENDBRANCH  18  19
ENDBRANCH   3  18
TORSDOF 10
ENDMDL
MODEL 6
REMARK VINA RESULT:      -6.7      4.472      8.309
REMARK  Name = 
REMARK  13 active torsions:
REMARK  status: ('A' for Active; 'I' for Inactive)
REMARK    1  A    between atoms: C_1  and  C_2
REMARK    2  A    between atoms: C_2  and  O_3
REMARK    3  A    between atoms: O_3  and  C_4
REMARK    4  A    between atoms: C_4  and  C_6
REMARK    5  A    between atoms: C_9  and  N_10
REMARK    6  A    between atoms: C_11  and  S_12
REMARK    7  A    between atoms: N_13  and  C_14
REMARK    8  A    between atoms: C_14  and  C_15
REMARK    9  A    between atoms: C_15  and  C_16
REMARK   10  A    between atoms: C_19  and  O_20
REMARK   11  A    between atoms: O_20  and  C_21
REMARK   12  A    between atoms: C_22  and  O_23
REMARK   13  A    between atoms: O_23  and  C_24
REMARK                            x       y       z     vdW  Elec       q    Type
REMARK                         _______ _______ _______ _____ _____    ______ ____
ROOT
ATOM      1  N   UNL     1       1.830   5.968  20.982  0.00  0.00    +0.000 N 
ATOM      2  C   UNL     1       2.174   4.900  20.190  0.00  0.00    +0.000 C 
ATOM      3  N   UNL     1       2.355   4.900  18.915  0.00  0.00    +0.000 NA
ATOM      4  H   UNL     1       1.519   5.718  21.911  0.00  0.00    +0.000 HD
ENDROOT
BRANCH   1   8
ATOM      5  C   UNL     1       1.074   9.956  19.795  0.00  0.00    +0.000 A 
ATOM      6  C   UNL     1       1.749   9.073  18.948  0.00  0.00    +0.000 A 
ATOM      7  C   UNL     1       1.960   7.746  19.344  0.00  0.00    +0.000 A 
ATOM      8  C   UNL     1       1.511   7.277  20.590  0.00  0.00    +0.000 A 
ATOM      9  C   UNL     1       0.806   8.162  21.409  0.00  0.00    +0.000 A 
ATOM     10  C   UNL     1       0.584   9.486  21.018  0.00  0.00    +0.000 A 
BRANCH   5  11
ATOM     11  C   UNL     1       0.978  11.389  19.409  0.00  0.00    +0.000 C 
ATOM     12  O   UNL     1       1.452  12.304  20.064  0.00  0.00    +0.000 OA
BRANCH  11  13
ATOM     13  O   UNL     1       0.203  11.505  18.304  0.00  0.00    +0.000 OA
BRANCH  13  15
ATOM     14  C   UNL     1      -1.830  10.417  17.661  0.00  0.00    +0.000 C 
ATOM     15  C   UNL     1      -1.213  11.508  18.520  0.00  0.00    +0.000 C 
ENDBRANCH  13  15
ENDBRANCH  11  13
ENDBRANCH   5  11
ENDBRANCH   1   8
BRANCH   2  16
ATOM     16  S   UNL     1       2.313   3.439  21.184  0.00  0.00    +0.000 S 
ATOM     17  H   UNL     1       3.522   3.080  20.737  0.00  0.00    +0.000 HD
ENDBRANCH   2  16
BRANCH   3  18
ATOM     18  C   UNL     1       2.679   3.646  18.229  0.00  0.00    +0.000 C 
BRANCH  18  19
ATOM     19  C   UNL     1       4.091   3.173  18.593  0.00  0.00    +0.000 C 
BRANCH  19  20
ATOM     20  C   UNL     1       5.114   4.147  18.043  0.00  0.00    +0.000 A 
ATOM     21  C   UNL     1       5.904   4.903  18.908  0.00  0.00    +0.000 A 
ATOM     22  C   UNL     1       6.767   5.872  18.394  0.00  0.00    +0.000 A 
ATOM     23  C   UNL     1       6.855   6.117  17.015  0.00  0.00    +0.000 A 
ATOM     24  C   UNL     1       6.066   5.360  16.131  0.00  0.00    +0.000 A 
ATOM     25  C   UNL     1       5.209   4.377  16.660  0.00  0.00    +0.000 A 
BRANCH  23  26
ATOM     26  O   UNL     1       7.746   7.120  16.731  0.00  0.00    +0.000 OA
ATOM     27  C   UNL     1       7.878   8.204  17.638  0.00  0.00    +0.000 C 
ENDBRANCH  23  26
BRANCH  24  28
ATOM     28  O   UNL     1       6.153   5.630  14.791  0.00  0.00    +0.000 OA
ATOM     29  C   UNL     1       6.939   4.774  13.974  0.00  0.00    +0.000 C 
ENDBRANCH  24  28
ENDBRANCH  19  20
ENDBRANCH  18  19
ENDBRANCH   3  18
TORSDOF 10
ENDMDL
MODEL 7
REMARK VINA RESULT:      -6.7      5.387      6.916
REMARK  Name = 
REMARK  13 active torsions:
REMARK  status: ('A' for Active; 'I' for Inactive)
REMARK    1  A    between atoms: C_1  and  C_2
REMARK    2  A    between atoms: C_2  and  O_3
REMARK    3  A    between atoms: O_3  and  C_4
REMARK    4  A    between atoms: C_4  and  C_6
REMARK    5  A    between atoms: C_9  and  N_10
REMARK    6  A    between atoms: C_11  and  S_12
REMARK    7  A    between atoms: N_13  and  C_14
REMARK    8  A    between atoms: C_14  and  C_15
REMARK    9  A    between atoms: C_15  and  C_16
REMARK   10  A    between atoms: C_19  and  O_20
REMARK   11  A    between atoms: O_20  and  C_21
REMARK   12  A    between atoms: C_22  and  O_23
REMARK   13  A    between atoms: O_23  and  C_24
REMARK                            x       y       z     vdW  Elec       q    Type
REMARK                         _______ _______ _______ _____ _____    ______ ____
ROOT
ATOM      1  N   UNL     1       3.170   6.485  18.713  0.00  0.00    +0.000 N 
ATOM      2  C   UNL     1       2.285   7.531  18.812  0.00  0.00    +0.000 C 
ATOM      3  N   UNL     1       1.933   8.345  17.879  0.00  0.00    +0.000 NA
ATOM      4  H   UNL     1       3.479   6.112  19.600  0.00  0.00    +0.000 HD
ENDROOT
BRANCH   1   8
ATOM      5  C   UNL     1       5.660   5.237  15.531  0.00  0.00    +0.000 A 
ATOM      6  C   UNL     1       4.840   4.323  16.197  0.00  0.00    +0.000 A 
ATOM      7  C   UNL     1       3.996   4.761  17.227  0.00  0.00    +0.000 A 
ATOM      8  C   UNL     1       3.959   6.111  17.614  0.00  0.00    +0.000 A 
ATOM      9  C   UNL     1       4.758   7.018  16.912  0.00  0.00    +0.000 A 
ATOM     10  C   UNL     1       5.596   6.591  15.879  0.00  0.00    +0.000 A 
BRANCH   5  11
ATOM     11  C   UNL     1       6.639   4.728  14.534  0.00  0.00    +0.000 C 
ATOM     12  O   UNL     1       7.658   5.322  14.215  0.00  0.00    +0.000 OA
BRANCH  11  13
ATOM     13  O   UNL     1       6.164   3.587  13.979  0.00  0.00    +0.000 OA
BRANCH  13  15
ATOM     14  C   UNL     1       4.887   3.403  11.963  0.00  0.00    +0.000 C 
ATOM     15  C   UNL     1       6.284   3.477  12.555  0.00  0.00    +0.000 C 
ENDBRANCH  13  15
ENDBRANCH  11  13
ENDBRANCH   5  11
ENDBRANCH   1   8
BRANCH   2  16
ATOM     16  S   UNL     1       1.682   7.648  20.473  0.00  0.00    +0.000 S 
ATOM     17  H   UNL     1       0.669   6.787  20.316  0.00  0.00    +0.000 HD
ENDBRANCH   2  16
BRANCH   3  18
ATOM     18  C   UNL     1       1.002   9.436  18.182  0.00  0.00    +0.000 C 
BRANCH  18  19
ATOM     19  C   UNL     1       1.751  10.763  18.348  0.00  0.00    +0.000 C 
BRANCH  19  20
ATOM     20  C   UNL     1       0.948  11.697  19.230  0.00  0.00    +0.000 A 
ATOM     21  C   UNL     1       0.593  12.967  18.774  0.00  0.00    +0.000 A 
ATOM     22  C   UNL     1      -0.054  13.858  19.631  0.00  0.00    +0.000 A 
ATOM     23  C   UNL     1      -0.353  13.512  20.957  0.00  0.00    +0.000 A 
ATOM     24  C   UNL     1      -0.004  12.234  21.430  0.00  0.00    +0.000 A 
ATOM     25  C   UNL     1       0.637  11.339  20.553  0.00  0.00    +0.000 A 
BRANCH  23  26
ATOM     26  O   UNL     1      -0.969  14.538  21.626  0.00  0.00    +0.000 OA
ATOM     27  C   UNL     1      -2.370  14.479  21.843  0.00  0.00    +0.000 C 
ENDBRANCH  23  26
BRANCH  24  28
ATOM     28  O   UNL     1      -0.287  11.926  22.734  0.00  0.00    +0.000 OA
ATOM     29  C   UNL     1      -1.053  10.762  23.008  0.00  0.00    +0.000 C 
ENDBRANCH  24  28
ENDBRANCH  19  20
ENDBRANCH  18  19
ENDBRANCH   3  18
TORSDOF 10
ENDMDL
MODEL 8
REMARK VINA RESULT:      -6.7      4.545      8.464
REMARK  Name = 
REMARK  13 active torsions:
REMARK  status: ('A' for Active; 'I' for Inactive)
REMARK    1  A    between atoms: C_1  and  C_2
REMARK    2  A    between atoms: C_2  and  O_3
REMARK    3  A    between atoms: O_3  and  C_4
REMARK    4  A    between atoms: C_4  and  C_6
REMARK    5  A    between atoms: C_9  and  N_10
REMARK    6  A    between atoms: C_11  and  S_12
REMARK    7  A    between atoms: N_13  and  C_14
REMARK    8  A    between atoms: C_14  and  C_15
REMARK    9  A    between atoms: C_15  and  C_16
REMARK   10  A    between atoms: C_19  and  O_20
REMARK   11  A    between atoms: O_20  and  C_21
REMARK   12  A    between atoms: C_22  and  O_23
REMARK   13  A    between atoms: O_23  and  C_24
REMARK                            x       y       z     vdW  Elec       q    Type
REMARK                         _______ _______ _______ _____ _____    ______ ____
ROOT
ATOM      1  N   UNL     1       1.971   6.049  20.845  0.00  0.00    +0.000 N 
ATOM      2  C   UNL     1       2.326   4.918  20.151  0.00  0.00    +0.000 C 
ATOM      3  N   UNL     1       2.604   4.827  18.897  0.00  0.00    +0.000 NA
ATOM      4  H   UNL     1       1.577   5.874  21.759  0.00  0.00    +0.000 HD
ENDROOT
BRANCH   1   8
ATOM      5  C   UNL     1       1.080   9.913  19.374  0.00  0.00    +0.000 A 
ATOM      6  C   UNL     1       0.803   9.571  20.701  0.00  0.00    +0.000 A 
ATOM      7  C   UNL     1       1.136   8.297  21.180  0.00  0.00    +0.000 A 
ATOM      8  C   UNL     1       1.744   7.341  20.348  0.00  0.00    +0.000 A 
ATOM      9  C   UNL     1       2.047   7.712  19.035  0.00  0.00    +0.000 A 
ATOM     10  C   UNL     1       1.725   8.983  18.551  0.00  0.00    +0.000 A 
BRANCH   5  11
ATOM     11  C   UNL     1       0.599  11.221  18.855  0.00  0.00    +0.000 C 
ATOM     12  O   UNL     1      -0.509  11.396  18.372  0.00  0.00    +0.000 OA
BRANCH  11  13
ATOM     13  O   UNL     1       1.607  12.123  18.906  0.00  0.00    +0.000 OA
BRANCH  13  15
ATOM     14  C   UNL     1       2.593  14.187  19.612  0.00  0.00    +0.000 C 
ATOM     15  C   UNL     1       1.325  13.351  19.588  0.00  0.00    +0.000 C 
ENDBRANCH  13  15
ENDBRANCH  11  13
ENDBRANCH   5  11
ENDBRANCH   1   8
BRANCH   2  16
ATOM     16  S   UNL     1       2.320   3.522  21.242  0.00  0.00    +0.000 S 
ATOM     17  H   UNL     1       3.402   2.931  20.720  0.00  0.00    +0.000 HD
ENDBRANCH   2  16
BRANCH   3  18
ATOM     18  C   UNL     1       2.922   3.518  18.319  0.00  0.00    +0.000 C 
BRANCH  18  19
ATOM     19  C   UNL     1       4.362   3.110  18.651  0.00  0.00    +0.000 C 
BRANCH  19  20
ATOM     20  C   UNL     1       5.327   4.140  18.101  0.00  0.00    +0.000 A 
ATOM     21  C   UNL     1       5.957   5.044  18.956  0.00  0.00    +0.000 A 
ATOM     22  C   UNL     1       6.760   6.056  18.428  0.00  0.00    +0.000 A 
ATOM     23  C   UNL     1       6.946   6.197  17.044  0.00  0.00    +0.000 A 
ATOM     24  C   UNL     1       6.319   5.291  16.170  0.00  0.00    +0.000 A 
ATOM     25  C   UNL     1       5.521   4.267  16.714  0.00  0.00    +0.000 A 
BRANCH  23  26
ATOM     26  O   UNL     1       7.752   7.265  16.744  0.00  0.00    +0.000 OA
ATOM     27  C   UNL     1       8.069   8.200  17.763  0.00  0.00    +0.000 C 
ENDBRANCH  23  26
BRANCH  24  28
ATOM     28  O   UNL     1       6.498   5.461  14.823  0.00  0.00    +0.000 OA
ATOM     29  C   UNL     1       6.336   4.338  13.969  0.00  0.00    +0.000 C 
ENDBRANCH  24  28
ENDBRANCH  19  20
ENDBRANCH  18  19
ENDBRANCH   3  18
TORSDOF 10
ENDMDL
MODEL 9
REMARK VINA RESULT:      -6.6      4.559      8.402
REMARK  Name = 
REMARK  13 active torsions:
REMARK  status: ('A' for Active; 'I' for Inactive)
REMARK    1  A    between atoms: C_1  and  C_2
REMARK    2  A    between atoms: C_2  and  O_3
REMARK    3  A    between atoms: O_3  and  C_4
REMARK    4  A    between atoms: C_4  and  C_6
REMARK    5  A    between atoms: C_9  and  N_10
REMARK    6  A    between atoms: C_11  and  S_12
REMARK    7  A    between atoms: N_13  and  C_14
REMARK    8  A    between atoms: C_14  and  C_15
REMARK    9  A    between atoms: C_15  and  C_16
REMARK   10  A    between atoms: C_19  and  O_20
REMARK   11  A    between atoms: O_20  and  C_21
REMARK   12  A    between atoms: C_22  and  O_23
REMARK   13  A    between atoms: O_23  and  C_24
REMARK                            x       y       z     vdW  Elec       q    Type
REMARK                         _______ _______ _______ _____ _____    ______ ____
ROOT
ATOM      1  N   UNL     1       2.096   6.010  20.660  0.00  0.00    +0.000 N 
ATOM      2  C   UNL     1       2.494   4.893  19.967  0.00  0.00    +0.000 C 
ATOM      3  N   UNL     1       2.830   4.824  18.726  0.00  0.00    +0.000 NA
ATOM      4  H   UNL     1       1.663   5.817  21.553  0.00  0.00    +0.000 HD
ENDROOT
BRANCH   1   8
ATOM      5  C   UNL     1       1.231   9.889  19.216  0.00  0.00    +0.000 A 
ATOM      6  C   UNL     1       0.950   9.540  20.539  0.00  0.00    +0.000 A 
ATOM      7  C   UNL     1       1.275   8.261  21.010  0.00  0.00    +0.000 A 
ATOM      8  C   UNL     1       1.877   7.307  20.172  0.00  0.00    +0.000 A 
ATOM      9  C   UNL     1       2.185   7.685  18.862  0.00  0.00    +0.000 A 
ATOM     10  C   UNL     1       1.872   8.962  18.387  0.00  0.00    +0.000 A 
BRANCH   5  11
ATOM     11  C   UNL     1       0.759  11.204  18.706  0.00  0.00    +0.000 C 
ATOM     12  O   UNL     1       1.497  12.150  18.474  0.00  0.00    +0.000 OA
BRANCH  11  13
ATOM     13  O   UNL     1      -0.594  11.207  18.653  0.00  0.00    +0.000 OA
BRANCH  13  15
ATOM     14  C   UNL     1      -1.874  12.658  20.063  0.00  0.00    +0.000 C 
ATOM     15  C   UNL     1      -1.228  12.491  18.698  0.00  0.00    +0.000 C 
ENDBRANCH  13  15
ENDBRANCH  11  13
ENDBRANCH   5  11
ENDBRANCH   1   8
BRANCH   2  16
ATOM     16  S   UNL     1       2.454   3.480  21.036  0.00  0.00    +0.000 S 
ATOM     17  H   UNL     1       1.222   3.701  21.513  0.00  0.00    +0.000 HD
ENDBRANCH   2  16
BRANCH   3  18
ATOM     18  C   UNL     1       3.188   3.527  18.144  0.00  0.00    +0.000 C 
BRANCH  18  19
ATOM     19  C   UNL     1       4.628   3.145  18.505  0.00  0.00    +0.000 C 
BRANCH  19  20
ATOM     20  C   UNL     1       5.580   4.218  18.017  0.00  0.00    +0.000 A 
ATOM     21  C   UNL     1       5.937   5.277  18.852  0.00  0.00    +0.000 A 
ATOM     22  C   UNL     1       6.730   6.314  18.358  0.00  0.00    +0.000 A 
ATOM     23  C   UNL     1       7.173   6.328  17.027  0.00  0.00    +0.000 A 
ATOM     24  C   UNL     1       6.822   5.265  16.174  0.00  0.00    +0.000 A 
ATOM     25  C   UNL     1       6.034   4.218  16.687  0.00  0.00    +0.000 A 
BRANCH  23  26
ATOM     26  O   UNL     1       7.917   7.445  16.749  0.00  0.00    +0.000 OA
ATOM     27  C   UNL     1       7.921   8.521  17.673  0.00  0.00    +0.000 C 
ENDBRANCH  23  26
BRANCH  24  28
ATOM     28  O   UNL     1       7.249   5.310  14.874  0.00  0.00    +0.000 OA
ATOM     29  C   UNL     1       6.701   4.385  13.946  0.00  0.00    +0.000 C 
ENDBRANCH  24  28
ENDBRANCH  19  20
ENDBRANCH  18  19
ENDBRANCH   3  18
TORSDOF 10
ENDMDL
