MODEL 1
REMARK VINA RESULT:      -8.1      0.000      0.000
REMARK  Name = 
REMARK  3 active torsions:
REMARK  status: ('A' for Active; 'I' for Inactive)
REMARK    1  A    between atoms: C_1  and  C_2
REMARK    2  A    between atoms: N_12  and  N_13
REMARK    3  A    between atoms: C_14  and  C_16
REMARK                            x       y       z     vdW  Elec       q    Type
REMARK                         _______ _______ _______ _____ _____    ______ ____
ROOT
ATOM      1  C   UNL     1       6.480   5.015  18.705  0.00  0.00    +0.000 C 
ATOM      2  C   UNL     1       5.036   4.590  18.691  0.00  0.00    +0.000 A 
ATOM      3  N   UNL     1       4.444   4.528  19.846  0.00  0.00    +0.000 NA
ATOM      4  C   UNL     1       3.135   4.044  19.917  0.00  0.00    +0.000 A 
ATOM      5  C   UNL     1       2.557   3.880  21.179  0.00  0.00    +0.000 A 
ATOM      6  C   UNL     1       1.296   3.295  21.314  0.00  0.00    +0.000 A 
ATOM      7  C   UNL     1       0.598   2.878  20.181  0.00  0.00    +0.000 A 
ATOM      8  C   UNL     1       1.157   3.056  18.914  0.00  0.00    +0.000 A 
ATOM      9  C   UNL     1       2.425   3.638  18.790  0.00  0.00    +0.000 A 
ATOM     10  C   UNL     1       3.104   3.751  17.483  0.00  0.00    +0.000 A 
ATOM     11  O   UNL     1       2.581   3.302  16.465  0.00  0.00    +0.000 OA
ATOM     12  N   UNL     1       4.401   4.276  17.504  0.00  0.00    +0.000 N 
ENDROOT
BRANCH  12  13
ATOM     13  N   UNL     1       5.125   4.059  16.290  0.00  0.00    +0.000 N 
ATOM     14  C   UNL     1       5.452   5.096  15.434  0.00  0.00    +0.000 C 
ATOM     15  O   UNL     1       5.257   6.284  15.665  0.00  0.00    +0.000 OA
ATOM     16  H   UNL     1       4.838   3.190  15.840  0.00  0.00    +0.000 HD
BRANCH  14  17
ATOM     17  C   UNL     1       6.120   4.685  14.153  0.00  0.00    +0.000 A 
ATOM     18  C   UNL     1       5.521   3.690  13.370  0.00  0.00    +0.000 A 
ATOM     19  C   UNL     1       6.089   3.307  12.149  0.00  0.00    +0.000 A 
ATOM     20  C   UNL     1       7.256   3.922  11.702  0.00  0.00    +0.000 A 
ATOM     21  C   UNL     1       7.856   4.921  12.465  0.00  0.00    +0.000 A 
ATOM     22  C   UNL     1       7.290   5.304  13.686  0.00  0.00    +0.000 A 
ENDBRANCH  14  17
ENDBRANCH  12  13
TORSDOF 2
ENDMDL
MODEL 2
REMARK VINA RESULT:      -8.1      0.185      1.068
REMARK  Name = 
REMARK  3 active torsions:
REMARK  status: ('A' for Active; 'I' for Inactive)
REMARK    1  A    between atoms: C_1  and  C_2
REMARK    2  A    between atoms: N_12  and  N_13
REMARK    3  A    between atoms: C_14  and  C_16
REMARK                            x       y       z     vdW  Elec       q    Type
REMARK                         _______ _______ _______ _____ _____    ______ ____
ROOT
ATOM      1  C   UNL     1       6.422   4.907  18.688  0.00  0.00    +0.000 C 
ATOM      2  C   UNL     1       4.978   4.482  18.723  0.00  0.00    +0.000 A 
ATOM      3  N   UNL     1       4.428   4.411  19.899  0.00  0.00    +0.000 NA
ATOM      4  C   UNL     1       3.123   3.925  20.014  0.00  0.00    +0.000 A 
ATOM      5  C   UNL     1       2.591   3.752  21.294  0.00  0.00    +0.000 A 
ATOM      6  C   UNL     1       1.336   3.165  21.471  0.00  0.00    +0.000 A 
ATOM      7  C   UNL     1       0.598   2.755  20.361  0.00  0.00    +0.000 A 
ATOM      8  C   UNL     1       1.111   2.941  19.076  0.00  0.00    +0.000 A 
ATOM      9  C   UNL     1       2.373   3.526  18.911  0.00  0.00    +0.000 A 
ATOM     10  C   UNL     1       3.004   3.648  17.580  0.00  0.00    +0.000 A 
ATOM     11  O   UNL     1       2.445   3.206  16.579  0.00  0.00    +0.000 OA
ATOM     12  N   UNL     1       4.300   4.174  17.558  0.00  0.00    +0.000 N 
ENDROOT
BRANCH  12  13
ATOM     13  N   UNL     1       4.980   3.966  16.317  0.00  0.00    +0.000 N 
ATOM     14  C   UNL     1       5.274   5.009  15.456  0.00  0.00    +0.000 C 
ATOM     15  O   UNL     1       5.084   6.195  15.701  0.00  0.00    +0.000 OA
ATOM     16  H   UNL     1       4.680   3.099  15.873  0.00  0.00    +0.000 HD
BRANCH  14  17
ATOM     17  C   UNL     1       5.895   4.607  14.150  0.00  0.00    +0.000 A 
ATOM     18  C   UNL     1       7.134   5.159  13.794  0.00  0.00    +0.000 A 
ATOM     19  C   UNL     1       7.766   4.780  12.604  0.00  0.00    +0.000 A 
ATOM     20  C   UNL     1       7.166   3.842  11.766  0.00  0.00    +0.000 A 
ATOM     21  C   UNL     1       5.942   3.277  12.113  0.00  0.00    +0.000 A 
ATOM     22  C   UNL     1       5.308   3.655  13.302  0.00  0.00    +0.000 A 
ENDBRANCH  14  17
ENDBRANCH  12  13
TORSDOF 2
ENDMDL
MODEL 3
REMARK VINA RESULT:      -7.8      1.841      2.418
REMARK  Name = 
REMARK  3 active torsions:
REMARK  status: ('A' for Active; 'I' for Inactive)
REMARK    1  A    between atoms: C_1  and  C_2
REMARK    2  A    between atoms: N_12  and  N_13
REMARK    3  A    between atoms: C_14  and  C_16
REMARK                            x       y       z     vdW  Elec       q    Type
REMARK                         _______ _______ _______ _____ _____    ______ ____
ROOT
ATOM      1  C   UNL     1       3.713   2.157  17.665  0.00  0.00    +0.000 C 
ATOM      2  C   UNL     1       3.533   3.580  18.120  0.00  0.00    +0.000 A 
ATOM      3  N   UNL     1       2.789   3.758  19.172  0.00  0.00    +0.000 NA
ATOM      4  C   UNL     1       2.497   5.059  19.589  0.00  0.00    +0.000 A 
ATOM      5  C   UNL     1       1.608   5.229  20.653  0.00  0.00    +0.000 A 
ATOM      6  C   UNL     1       1.192   6.506  21.038  0.00  0.00    +0.000 A 
ATOM      7  C   UNL     1       1.676   7.627  20.363  0.00  0.00    +0.000 A 
ATOM      8  C   UNL     1       2.580   7.470  19.311  0.00  0.00    +0.000 A 
ATOM      9  C   UNL     1       2.985   6.184  18.930  0.00  0.00    +0.000 A 
ATOM     10  C   UNL     1       3.857   5.960  17.758  0.00  0.00    +0.000 A 
ATOM     11  O   UNL     1       4.225   6.903  17.062  0.00  0.00    +0.000 OA
ATOM     12  N   UNL     1       4.122   4.625  17.432  0.00  0.00    +0.000 N 
ENDROOT
BRANCH  12  13
ATOM     13  N   UNL     1       4.679   4.455  16.127  0.00  0.00    +0.000 N 
ATOM     14  C   UNL     1       6.046   4.424  15.909  0.00  0.00    +0.000 C 
ATOM     15  O   UNL     1       6.897   4.434  16.791  0.00  0.00    +0.000 OA
ATOM     16  H   UNL     1       4.132   4.953  15.424  0.00  0.00    +0.000 HD
BRANCH  14  17
ATOM     17  C   UNL     1       6.465   4.345  14.469  0.00  0.00    +0.000 A 
ATOM     18  C   UNL     1       5.784   3.467  13.615  0.00  0.00    +0.000 A 
ATOM     19  C   UNL     1       6.117   3.394  12.258  0.00  0.00    +0.000 A 
ATOM     20  C   UNL     1       7.128   4.203  11.745  0.00  0.00    +0.000 A 
ATOM     21  C   UNL     1       7.805   5.088  12.579  0.00  0.00    +0.000 A 
ATOM     22  C   UNL     1       7.475   5.163  13.938  0.00  0.00    +0.000 A 
ENDBRANCH  14  17
ENDBRANCH  12  13
TORSDOF 2
ENDMDL
MODEL 4
REMARK VINA RESULT:      -7.8      1.872      2.656
REMARK  Name = 
REMARK  3 active torsions:
REMARK  status: ('A' for Active; 'I' for Inactive)
REMARK    1  A    between atoms: C_1  and  C_2
REMARK    2  A    between atoms: N_12  and  N_13
REMARK    3  A    between atoms: C_14  and  C_16
REMARK                            x       y       z     vdW  Elec       q    Type
REMARK                         _______ _______ _______ _____ _____    ______ ____
ROOT
ATOM      1  C   UNL     1       3.756   2.256  17.744  0.00  0.00    +0.000 C 
ATOM      2  C   UNL     1       3.555   3.687  18.165  0.00  0.00    +0.000 A 
ATOM      3  N   UNL     1       2.833   3.877  19.230  0.00  0.00    +0.000 NA
ATOM      4  C   UNL     1       2.522   5.182  19.618  0.00  0.00    +0.000 A 
ATOM      5  C   UNL     1       1.654   5.363  20.699  0.00  0.00    +0.000 A 
ATOM      6  C   UNL     1       1.219   6.640  21.058  0.00  0.00    +0.000 A 
ATOM      7  C   UNL     1       1.662   7.752  20.342  0.00  0.00    +0.000 A 
ATOM      8  C   UNL     1       2.545   7.586  19.273  0.00  0.00    +0.000 A 
ATOM      9  C   UNL     1       2.969   6.299  18.917  0.00  0.00    +0.000 A 
ATOM     10  C   UNL     1       3.818   6.062  17.731  0.00  0.00    +0.000 A 
ATOM     11  O   UNL     1       4.148   6.994  17.001  0.00  0.00    +0.000 OA
ATOM     12  N   UNL     1       4.105   4.725  17.435  0.00  0.00    +0.000 N 
ENDROOT
BRANCH  12  13
ATOM     13  N   UNL     1       4.635   4.531  16.122  0.00  0.00    +0.000 N 
ATOM     14  C   UNL     1       5.996   4.533  15.871  0.00  0.00    +0.000 C 
ATOM     15  O   UNL     1       6.868   4.595  16.730  0.00  0.00    +0.000 OA
ATOM     16  H   UNL     1       4.056   4.991  15.419  0.00  0.00    +0.000 HD
BRANCH  14  17
ATOM     17  C   UNL     1       6.382   4.422  14.424  0.00  0.00    +0.000 A 
ATOM     18  C   UNL     1       7.446   5.201  13.948  0.00  0.00    +0.000 A 
ATOM     19  C   UNL     1       7.863   5.097  12.616  0.00  0.00    +0.000 A 
ATOM     20  C   UNL     1       7.224   4.209  11.754  0.00  0.00    +0.000 A 
ATOM     21  C   UNL     1       6.174   3.421  12.216  0.00  0.00    +0.000 A 
ATOM     22  C   UNL     1       5.754   3.524  13.548  0.00  0.00    +0.000 A 
ENDBRANCH  14  17
ENDBRANCH  12  13
TORSDOF 2
ENDMDL
MODEL 5
REMARK VINA RESULT:      -7.7      1.142      1.142
REMARK  Name = 
REMARK  3 active torsions:
REMARK  status: ('A' for Active; 'I' for Inactive)
REMARK    1  A    between atoms: C_1  and  C_2
REMARK    2  A    between atoms: N_12  and  N_13
REMARK    3  A    between atoms: C_14  and  C_16
REMARK                            x       y       z     vdW  Elec       q    Type
REMARK                         _______ _______ _______ _____ _____    ______ ____
ROOT
ATOM      1  C   UNL     1       4.988   6.863  17.733  0.00  0.00    +0.000 C 
ATOM      2  C   UNL     1       4.036   5.755  18.093  0.00  0.00    +0.000 A 
ATOM      3  N   UNL     1       3.619   5.731  19.324  0.00  0.00    +0.000 NA
ATOM      4  C   UNL     1       2.814   4.673  19.753  0.00  0.00    +0.000 A 
ATOM      5  C   UNL     1       2.470   4.608  21.105  0.00  0.00    +0.000 A 
ATOM      6  C   UNL     1       1.764   3.513  21.609  0.00  0.00    +0.000 A 
ATOM      7  C   UNL     1       1.387   2.477  20.755  0.00  0.00    +0.000 A 
ATOM      8  C   UNL     1       1.707   2.540  19.398  0.00  0.00    +0.000 A 
ATOM      9  C   UNL     1       2.421   3.640  18.905  0.00  0.00    +0.000 A 
ATOM     10  C   UNL     1       2.876   3.705  17.500  0.00  0.00    +0.000 A 
ATOM     11  O   UNL     1       2.665   2.770  16.730  0.00  0.00    +0.000 OA
ATOM     12  N   UNL     1       3.651   4.817  17.153  0.00  0.00    +0.000 N 
ENDROOT
BRANCH  12  13
ATOM     13  N   UNL     1       4.332   4.671  15.904  0.00  0.00    +0.000 N 
ATOM     14  C   UNL     1       5.655   4.273  15.830  0.00  0.00    +0.000 C 
ATOM     15  O   UNL     1       6.334   3.914  16.785  0.00  0.00    +0.000 OA
ATOM     16  H   UNL     1       4.052   5.398  15.245  0.00  0.00    +0.000 HD
BRANCH  14  17
ATOM     17  C   UNL     1       6.249   4.272  14.451  0.00  0.00    +0.000 A 
ATOM     18  C   UNL     1       5.673   3.456  13.468  0.00  0.00    +0.000 A 
ATOM     19  C   UNL     1       6.172   3.457  12.160  0.00  0.00    +0.000 A 
ATOM     20  C   UNL     1       7.245   4.279  11.826  0.00  0.00    +0.000 A 
ATOM     21  C   UNL     1       7.820   5.104  12.789  0.00  0.00    +0.000 A 
ATOM     22  C   UNL     1       7.323   5.104  14.098  0.00  0.00    +0.000 A 
ENDBRANCH  14  17
ENDBRANCH  12  13
TORSDOF 2
ENDMDL
MODEL 6
REMARK VINA RESULT:      -7.7      1.332      1.723
REMARK  Name = 
REMARK  3 active torsions:
REMARK  status: ('A' for Active; 'I' for Inactive)
REMARK    1  A    between atoms: C_1  and  C_2
REMARK    2  A    between atoms: N_12  and  N_13
REMARK    3  A    between atoms: C_14  and  C_16
REMARK                            x       y       z     vdW  Elec       q    Type
REMARK                         _______ _______ _______ _____ _____    ______ ____
ROOT
ATOM      1  C   UNL     1       4.149   7.037  17.439  0.00  0.00    +0.000 C 
ATOM      2  C   UNL     1       3.539   5.771  17.978  0.00  0.00    +0.000 A 
ATOM      3  N   UNL     1       3.133   5.810  19.213  0.00  0.00    +0.000 NA
ATOM      4  C   UNL     1       2.650   4.642  19.809  0.00  0.00    +0.000 A 
ATOM      5  C   UNL     1       2.324   4.678  21.168  0.00  0.00    +0.000 A 
ATOM      6  C   UNL     1       1.945   3.514  21.840  0.00  0.00    +0.000 A 
ATOM      7  C   UNL     1       1.879   2.303  21.152  0.00  0.00    +0.000 A 
ATOM      8  C   UNL     1       2.183   2.259  19.790  0.00  0.00    +0.000 A 
ATOM      9  C   UNL     1       2.568   3.431  19.127  0.00  0.00    +0.000 A 
ATOM     10  C   UNL     1       3.001   3.418  17.714  0.00  0.00    +0.000 A 
ATOM     11  O   UNL     1       3.066   2.361  17.089  0.00  0.00    +0.000 OA
ATOM     12  N   UNL     1       3.440   4.639  17.191  0.00  0.00    +0.000 N 
ENDROOT
BRANCH  12  13
ATOM     13  N   UNL     1       4.147   4.511  15.955  0.00  0.00    +0.000 N 
ATOM     14  C   UNL     1       5.522   4.370  15.906  0.00  0.00    +0.000 C 
ATOM     15  O   UNL     1       6.250   4.240  16.884  0.00  0.00    +0.000 OA
ATOM     16  H   UNL     1       3.738   5.105  15.233  0.00  0.00    +0.000 HD
BRANCH  14  17
ATOM     17  C   UNL     1       6.118   4.354  14.527  0.00  0.00    +0.000 A 
ATOM     18  C   UNL     1       7.242   5.151  14.269  0.00  0.00    +0.000 A 
ATOM     19  C   UNL     1       7.851   5.134  13.009  0.00  0.00    +0.000 A 
ATOM     20  C   UNL     1       7.345   4.315  12.002  0.00  0.00    +0.000 A 
ATOM     21  C   UNL     1       6.236   3.510  12.248  0.00  0.00    +0.000 A 
ATOM     22  C   UNL     1       5.624   3.526  13.508  0.00  0.00    +0.000 A 
ENDBRANCH  14  17
ENDBRANCH  12  13
TORSDOF 2
ENDMDL
MODEL 7
REMARK VINA RESULT:      -7.4      1.507      7.019
REMARK  Name = 
REMARK  3 active torsions:
REMARK  status: ('A' for Active; 'I' for Inactive)
REMARK    1  A    between atoms: C_1  and  C_2
REMARK    2  A    between atoms: N_12  and  N_13
REMARK    3  A    between atoms: C_14  and  C_16
REMARK                            x       y       z     vdW  Elec       q    Type
REMARK                         _______ _______ _______ _____ _____    ______ ____
ROOT
ATOM      1  C   UNL     1       7.232   6.294  17.916  0.00  0.00    +0.000 C 
ATOM      2  C   UNL     1       7.030   5.438  16.695  0.00  0.00    +0.000 A 
ATOM      3  N   UNL     1       7.589   5.858  15.599  0.00  0.00    +0.000 NA
ATOM      4  C   UNL     1       7.359   5.167  14.407  0.00  0.00    +0.000 A 
ATOM      5  C   UNL     1       7.878   5.698  13.223  0.00  0.00    +0.000 A 
ATOM      6  C   UNL     1       7.583   5.111  11.990  0.00  0.00    +0.000 A 
ATOM      7  C   UNL     1       6.772   3.978  11.935  0.00  0.00    +0.000 A 
ATOM      8  C   UNL     1       6.264   3.427  13.113  0.00  0.00    +0.000 A 
ATOM      9  C   UNL     1       6.561   4.027  14.344  0.00  0.00    +0.000 A 
ATOM     10  C   UNL     1       5.964   3.546  15.606  0.00  0.00    +0.000 A 
ATOM     11  O   UNL     1       5.157   2.619  15.604  0.00  0.00    +0.000 OA
ATOM     12  N   UNL     1       6.275   4.281  16.756  0.00  0.00    +0.000 N 
ENDROOT
BRANCH  12  13
ATOM     13  N   UNL     1       5.427   3.986  17.869  0.00  0.00    +0.000 N 
ATOM     14  C   UNL     1       4.199   4.600  18.040  0.00  0.00    +0.000 C 
ATOM     15  O   UNL     1       3.674   5.357  17.232  0.00  0.00    +0.000 OA
ATOM     16  H   UNL     1       5.972   3.845  18.720  0.00  0.00    +0.000 HD
BRANCH  14  17
ATOM     17  C   UNL     1       3.482   4.257  19.315  0.00  0.00    +0.000 A 
ATOM     18  C   UNL     1       2.620   5.207  19.880  0.00  0.00    +0.000 A 
ATOM     19  C   UNL     1       1.902   4.912  21.045  0.00  0.00    +0.000 A 
ATOM     20  C   UNL     1       2.038   3.664  21.648  0.00  0.00    +0.000 A 
ATOM     21  C   UNL     1       2.881   2.707  21.091  0.00  0.00    +0.000 A 
ATOM     22  C   UNL     1       3.601   3.000  19.927  0.00  0.00    +0.000 A 
ENDBRANCH  14  17
ENDBRANCH  12  13
TORSDOF 2
ENDMDL
MODEL 8
REMARK VINA RESULT:      -7.3      1.501      6.991
REMARK  Name = 
REMARK  3 active torsions:
REMARK  status: ('A' for Active; 'I' for Inactive)
REMARK    1  A    between atoms: C_1  and  C_2
REMARK    2  A    between atoms: N_12  and  N_13
REMARK    3  A    between atoms: C_14  and  C_16
REMARK                            x       y       z     vdW  Elec       q    Type
REMARK                         _______ _______ _______ _____ _____    ______ ____
ROOT
ATOM      1  C   UNL     1       7.171   6.336  17.910  0.00  0.00    +0.000 C 
ATOM      2  C   UNL     1       6.992   5.473  16.690  0.00  0.00    +0.000 A 
ATOM      3  N   UNL     1       7.573   5.886  15.603  0.00  0.00    +0.000 NA
ATOM      4  C   UNL     1       7.365   5.189  14.410  0.00  0.00    +0.000 A 
ATOM      5  C   UNL     1       7.908   5.712  13.234  0.00  0.00    +0.000 A 
ATOM      6  C   UNL     1       7.636   5.119  11.999  0.00  0.00    +0.000 A 
ATOM      7  C   UNL     1       6.824   3.987  11.934  0.00  0.00    +0.000 A 
ATOM      8  C   UNL     1       6.292   3.444  13.106  0.00  0.00    +0.000 A 
ATOM      9  C   UNL     1       6.566   4.050  14.338  0.00  0.00    +0.000 A 
ATOM     10  C   UNL     1       5.943   3.578  15.592  0.00  0.00    +0.000 A 
ATOM     11  O   UNL     1       5.136   2.651  15.579  0.00  0.00    +0.000 OA
ATOM     12  N   UNL     1       6.233   4.318  16.743  0.00  0.00    +0.000 N 
ENDROOT
BRANCH  12  13
ATOM     13  N   UNL     1       5.364   4.032  17.841  0.00  0.00    +0.000 N 
ATOM     14  C   UNL     1       4.145   4.667  17.999  0.00  0.00    +0.000 C 
ATOM     15  O   UNL     1       3.647   5.441  17.189  0.00  0.00    +0.000 OA
ATOM     16  H   UNL     1       5.893   3.874  18.699  0.00  0.00    +0.000 HD
BRANCH  14  17
ATOM     17  C   UNL     1       3.403   4.329  19.260  0.00  0.00    +0.000 A 
ATOM     18  C   UNL     1       3.572   3.056  19.822  0.00  0.00    +0.000 A 
ATOM     19  C   UNL     1       2.930   2.716  21.019  0.00  0.00    +0.000 A 
ATOM     20  C   UNL     1       2.122   3.648  21.664  0.00  0.00    +0.000 A 
ATOM     21  C   UNL     1       1.954   4.920  21.124  0.00  0.00    +0.000 A 
ATOM     22  C   UNL     1       2.594   5.263  19.926  0.00  0.00    +0.000 A 
ENDBRANCH  14  17
ENDBRANCH  12  13
TORSDOF 2
ENDMDL
MODEL 9
REMARK VINA RESULT:      -7.3      1.617      7.099
REMARK  Name = 
REMARK  3 active torsions:
REMARK  status: ('A' for Active; 'I' for Inactive)
REMARK    1  A    between atoms: C_1  and  C_2
REMARK    2  A    between atoms: N_12  and  N_13
REMARK    3  A    between atoms: C_14  and  C_16
REMARK                            x       y       z     vdW  Elec       q    Type
REMARK                         _______ _______ _______ _____ _____    ______ ____
ROOT
ATOM      1  C   UNL     1       7.152   6.682  17.562  0.00  0.00    +0.000 C 
ATOM      2  C   UNL     1       6.835   5.743  16.429  0.00  0.00    +0.000 A 
ATOM      3  N   UNL     1       7.588   5.841  15.373  0.00  0.00    +0.000 NA
ATOM      4  C   UNL     1       7.287   5.071  14.247  0.00  0.00    +0.000 A 
ATOM      5  C   UNL     1       8.039   5.273  13.086  0.00  0.00    +0.000 A 
ATOM      6  C   UNL     1       7.709   4.614  11.900  0.00  0.00    +0.000 A 
ATOM      7  C   UNL     1       6.626   3.737  11.870  0.00  0.00    +0.000 A 
ATOM      8  C   UNL     1       5.880   3.512  13.028  0.00  0.00    +0.000 A 
ATOM      9  C   UNL     1       6.216   4.183  14.211  0.00  0.00    +0.000 A 
ATOM     10  C   UNL     1       5.395   4.060  15.434  0.00  0.00    +0.000 A 
ATOM     11  O   UNL     1       4.368   3.384  15.433  0.00  0.00    +0.000 OA
ATOM     12  N   UNL     1       5.789   4.844  16.523  0.00  0.00    +0.000 N 
ENDROOT
BRANCH  12  13
ATOM     13  N   UNL     1       4.794   4.943  17.546  0.00  0.00    +0.000 N 
ATOM     14  C   UNL     1       4.860   4.199  18.710  0.00  0.00    +0.000 C 
ATOM     15  O   UNL     1       5.798   3.477  19.029  0.00  0.00    +0.000 OA
ATOM     16  H   UNL     1       3.863   5.052  17.145  0.00  0.00    +0.000 HD
BRANCH  14  17
ATOM     17  C   UNL     1       3.683   4.342  19.632  0.00  0.00    +0.000 A 
ATOM     18  C   UNL     1       3.022   5.576  19.695  0.00  0.00    +0.000 A 
ATOM     19  C   UNL     1       1.896   5.739  20.510  0.00  0.00    +0.000 A 
ATOM     20  C   UNL     1       1.421   4.667  21.262  0.00  0.00    +0.000 A 
ATOM     21  C   UNL     1       2.061   3.432  21.201  0.00  0.00    +0.000 A 
ATOM     22  C   UNL     1       3.188   3.267  20.386  0.00  0.00    +0.000 A 
ENDBRANCH  14  17
ENDBRANCH  12  13
TORSDOF 2
ENDMDL
