MODEL 1
REMARK VINA RESULT:      -8.0      0.000      0.000
REMARK  Name = 
REMARK  7 active torsions:
REMARK  status: ('A' for Active; 'I' for Inactive)
REMARK    1  A    between atoms: C_1  and  C_2
REMARK    2  A    between atoms: C_6  and  C_7
REMARK    3  A    between atoms: C_8  and  N_9
REMARK    4  A    between atoms: C_13  and  C_14
REMARK    5  A    between atoms: C_14  and  N_15
REMARK    6  A    between atoms: N_15  and  C_16
REMARK    7  A    between atoms: C_16  and  C_17
REMARK                            x       y       z     vdW  Elec       q    Type
REMARK                         _______ _______ _______ _____ _____    ______ ____
ROOT
ATOM      1  N   UNL     1       2.986   6.154  18.302  0.00  0.00    +0.000 N 
ATOM      2  N   UNL     1       2.017   6.968  17.806  0.00  0.00    +0.000 NA
ATOM      3  N   UNL     1       2.611   7.993  17.241  0.00  0.00    +0.000 NA
ATOM      4  N   UNL     1       3.954   7.862  17.312  0.00  0.00    +0.000 NA
ATOM      5  C   UNL     1       4.232   6.687  17.865  0.00  0.00    +0.000 A 
ENDROOT
BRANCH   1  13
ATOM      6  C   UNL     1       1.580   6.441  20.983  0.00  0.00    +0.000 C 
ATOM      7  C   UNL     1       2.152   5.172  20.430  0.00  0.00    +0.000 A 
ATOM      8  C   UNL     1       2.049   4.047  21.267  0.00  0.00    +0.000 A 
ATOM      9  C   UNL     1       2.231   2.770  20.764  0.00  0.00    +0.000 A 
ATOM     10  C   UNL     1       2.446   2.601  19.403  0.00  0.00    +0.000 A 
ATOM     11  C   UNL     1       2.604   3.708  18.543  0.00  0.00    +0.000 A 
ATOM     12  C   UNL     1       2.776   3.382  17.077  0.00  0.00    +0.000 C 
ATOM     13  C   UNL     1       2.584   5.023  19.093  0.00  0.00    +0.000 A 
ENDBRANCH   1  13
BRANCH   5  14
ATOM     14  C   UNL     1       5.656   6.095  17.813  0.00  0.00    +0.000 C 
ATOM     15  C   UNL     1       6.783   7.153  17.674  0.00  0.00    +0.000 C 
ATOM     16  C   UNL     1       7.974   6.689  18.503  0.00  0.00    +0.000 C 
ATOM     17  C   UNL     1       7.488   5.579  19.418  0.00  0.00    +0.000 C 
ATOM     18  C   UNL     1       6.040   5.267  19.060  0.00  0.00    +0.000 C 
BRANCH  14  19
ATOM     19  N   UNL     1       5.821   5.118  16.689  0.00  0.00    +0.000 NA
ATOM     20  H   UNL     1       5.018   5.190  16.066  0.00  0.00    +0.000 HD
BRANCH  19  21
ATOM     21  C   UNL     1       7.016   5.249  15.848  0.00  0.00    +0.000 C 
BRANCH  21  22
ATOM     22  C   UNL     1       6.750   4.704  14.491  0.00  0.00    +0.000 A 
ATOM     23  C   UNL     1       5.901   3.731  14.009  0.00  0.00    +0.000 A 
ATOM     24  C   UNL     1       6.181   3.610  12.626  0.00  0.00    +0.000 A 
ATOM     25  C   UNL     1       7.175   4.521  12.355  0.00  0.00    +0.000 A 
ATOM     26  O   UNL     1       7.519   5.193  13.473  0.00  0.00    +0.000 OA
ENDBRANCH  21  22
ENDBRANCH  19  21
ENDBRANCH  14  19
ENDBRANCH   5  14
TORSDOF 5
ENDMDL
MODEL 2
REMARK VINA RESULT:      -7.9      0.570      1.826
REMARK  Name = 
REMARK  7 active torsions:
REMARK  status: ('A' for Active; 'I' for Inactive)
REMARK    1  A    between atoms: C_1  and  C_2
REMARK    2  A    between atoms: C_6  and  C_7
REMARK    3  A    between atoms: C_8  and  N_9
REMARK    4  A    between atoms: C_13  and  C_14
REMARK    5  A    between atoms: C_14  and  N_15
REMARK    6  A    between atoms: N_15  and  C_16
REMARK    7  A    between atoms: C_16  and  C_17
REMARK                            x       y       z     vdW  Elec       q    Type
REMARK                         _______ _______ _______ _____ _____    ______ ____
ROOT
ATOM      1  N   UNL     1       2.818   6.146  18.078  0.00  0.00    +0.000 N 
ATOM      2  N   UNL     1       1.926   7.058  17.609  0.00  0.00    +0.000 NA
ATOM      3  N   UNL     1       2.602   8.120  17.238  0.00  0.00    +0.000 NA
ATOM      4  N   UNL     1       3.927   7.922  17.410  0.00  0.00    +0.000 NA
ATOM      5  C   UNL     1       4.115   6.676  17.826  0.00  0.00    +0.000 A 
ENDROOT
BRANCH   1  13
ATOM      6  C   UNL     1       3.137   3.412  16.787  0.00  0.00    +0.000 C 
ATOM      7  C   UNL     1       2.255   3.726  17.956  0.00  0.00    +0.000 A 
ATOM      8  C   UNL     1       1.493   2.651  18.445  0.00  0.00    +0.000 A 
ATOM      9  C   UNL     1       0.901   2.712  19.695  0.00  0.00    +0.000 A 
ATOM     10  C   UNL     1       1.125   3.822  20.498  0.00  0.00    +0.000 A 
ATOM     11  C   UNL     1       1.842   4.939  20.022  0.00  0.00    +0.000 A 
ATOM     12  C   UNL     1       2.062   6.053  21.019  0.00  0.00    +0.000 C 
ATOM     13  C   UNL     1       2.308   4.942  18.674  0.00  0.00    +0.000 A 
ENDBRANCH   1  13
BRANCH   5  14
ATOM     14  C   UNL     1       5.518   6.034  17.822  0.00  0.00    +0.000 C 
ATOM     15  C   UNL     1       6.687   7.054  17.775  0.00  0.00    +0.000 C 
ATOM     16  C   UNL     1       7.819   6.519  18.644  0.00  0.00    +0.000 C 
ATOM     17  C   UNL     1       7.250   5.398  19.495  0.00  0.00    +0.000 C 
ATOM     18  C   UNL     1       5.811   5.151  19.057  0.00  0.00    +0.000 C 
BRANCH  14  19
ATOM     19  N   UNL     1       5.705   5.089  16.675  0.00  0.00    +0.000 NA
ATOM     20  H   UNL     1       4.870   5.108  16.091  0.00  0.00    +0.000 HD
BRANCH  19  21
ATOM     21  C   UNL     1       6.845   5.325  15.782  0.00  0.00    +0.000 C 
BRANCH  21  22
ATOM     22  C   UNL     1       6.590   4.712  14.451  0.00  0.00    +0.000 A 
ATOM     23  C   UNL     1       5.698   3.764  13.999  0.00  0.00    +0.000 A 
ATOM     24  C   UNL     1       6.015   3.540  12.637  0.00  0.00    +0.000 A 
ATOM     25  C   UNL     1       7.072   4.372  12.347  0.00  0.00    +0.000 A 
ATOM     26  O   UNL     1       7.420   5.090  13.434  0.00  0.00    +0.000 OA
ENDBRANCH  21  22
ENDBRANCH  19  21
ENDBRANCH  14  19
ENDBRANCH   5  14
TORSDOF 5
ENDMDL
MODEL 3
REMARK VINA RESULT:      -7.9      2.612      4.763
REMARK  Name = 
REMARK  7 active torsions:
REMARK  status: ('A' for Active; 'I' for Inactive)
REMARK    1  A    between atoms: C_1  and  C_2
REMARK    2  A    between atoms: C_6  and  C_7
REMARK    3  A    between atoms: C_8  and  N_9
REMARK    4  A    between atoms: C_13  and  C_14
REMARK    5  A    between atoms: C_14  and  N_15
REMARK    6  A    between atoms: N_15  and  C_16
REMARK    7  A    between atoms: C_16  and  C_17
REMARK                            x       y       z     vdW  Elec       q    Type
REMARK                         _______ _______ _______ _____ _____    ______ ____
ROOT
ATOM      1  N   UNL     1       5.520   5.097  19.011  0.00  0.00    +0.000 N 
ATOM      2  N   UNL     1       6.558   5.409  19.830  0.00  0.00    +0.000 NA
ATOM      3  N   UNL     1       7.666   5.080  19.209  0.00  0.00    +0.000 NA
ATOM      4  N   UNL     1       7.394   4.595  17.978  0.00  0.00    +0.000 NA
ATOM      5  C   UNL     1       6.086   4.687  17.770  0.00  0.00    +0.000 A 
ENDROOT
BRANCH   1  13
ATOM      6  C   UNL     1       3.575   7.190  17.972  0.00  0.00    +0.000 C 
ATOM      7  C   UNL     1       3.383   6.356  19.201  0.00  0.00    +0.000 A 
ATOM      8  C   UNL     1       2.213   6.620  19.934  0.00  0.00    +0.000 A 
ATOM      9  C   UNL     1       1.753   5.722  20.883  0.00  0.00    +0.000 A 
ATOM     10  C   UNL     1       2.420   4.518  21.056  0.00  0.00    +0.000 A 
ATOM     11  C   UNL     1       3.622   4.240  20.374  0.00  0.00    +0.000 A 
ATOM     12  C   UNL     1       4.213   2.869  20.611  0.00  0.00    +0.000 C 
ATOM     13  C   UNL     1       4.184   5.238  19.523  0.00  0.00    +0.000 A 
ENDBRANCH   1  13
BRANCH   5  14
ATOM     14  C   UNL     1       5.485   4.508  16.361  0.00  0.00    +0.000 C 
ATOM     15  C   UNL     1       5.597   5.764  15.455  0.00  0.00    +0.000 C 
ATOM     16  C   UNL     1       5.870   5.298  14.030  0.00  0.00    +0.000 C 
ATOM     17  C   UNL     1       6.279   3.838  14.098  0.00  0.00    +0.000 C 
ATOM     18  C   UNL     1       6.129   3.368  15.540  0.00  0.00    +0.000 C 
BRANCH  14  19
ATOM     19  N   UNL     1       4.038   4.122  16.407  0.00  0.00    +0.000 NA
ATOM     20  H   UNL     1       3.642   4.206  15.472  0.00  0.00    +0.000 HD
BRANCH  19  21
ATOM     21  C   UNL     1       3.712   2.771  16.880  0.00  0.00    +0.000 C 
BRANCH  21  22
ATOM     22  C   UNL     1       2.399   2.774  17.575  0.00  0.00    +0.000 A 
ATOM     23  C   UNL     1       1.369   3.688  17.655  0.00  0.00    +0.000 A 
ATOM     24  C   UNL     1       0.421   3.138  18.551  0.00  0.00    +0.000 A 
ATOM     25  C   UNL     1       0.929   1.924  18.951  0.00  0.00    +0.000 A 
ATOM     26  O   UNL     1       2.119   1.692  18.360  0.00  0.00    +0.000 OA
ENDBRANCH  21  22
ENDBRANCH  19  21
ENDBRANCH  14  19
ENDBRANCH   5  14
TORSDOF 5
ENDMDL
MODEL 4
REMARK VINA RESULT:      -7.6      2.749      4.775
REMARK  Name = 
REMARK  7 active torsions:
REMARK  status: ('A' for Active; 'I' for Inactive)
REMARK    1  A    between atoms: C_1  and  C_2
REMARK    2  A    between atoms: C_6  and  C_7
REMARK    3  A    between atoms: C_8  and  N_9
REMARK    4  A    between atoms: C_13  and  C_14
REMARK    5  A    between atoms: C_14  and  N_15
REMARK    6  A    between atoms: N_15  and  C_16
REMARK    7  A    between atoms: C_16  and  C_17
REMARK                            x       y       z     vdW  Elec       q    Type
REMARK                         _______ _______ _______ _____ _____    ______ ____
ROOT
ATOM      1  N   UNL     1       4.122   3.490  17.857  0.00  0.00    +0.000 N 
ATOM      2  N   UNL     1       4.198   2.419  17.024  0.00  0.00    +0.000 NA
ATOM      3  N   UNL     1       4.991   2.744  16.031  0.00  0.00    +0.000 NA
ATOM      4  N   UNL     1       5.479   3.992  16.203  0.00  0.00    +0.000 NA
ATOM      5  C   UNL     1       5.053   4.452  17.373  0.00  0.00    +0.000 A 
ENDROOT
BRANCH   1  13
ATOM      6  C   UNL     1       1.206   4.313  17.602  0.00  0.00    +0.000 C 
ATOM      7  C   UNL     1       1.924   4.035  18.887  0.00  0.00    +0.000 A 
ATOM      8  C   UNL     1       1.165   4.220  20.056  0.00  0.00    +0.000 A 
ATOM      9  C   UNL     1       1.587   3.694  21.266  0.00  0.00    +0.000 A 
ATOM     10  C   UNL     1       2.735   2.916  21.303  0.00  0.00    +0.000 A 
ATOM     11  C   UNL     1       3.546   2.749  20.161  0.00  0.00    +0.000 A 
ATOM     12  C   UNL     1       4.735   1.831  20.327  0.00  0.00    +0.000 C 
ATOM     13  C   UNL     1       3.199   3.431  18.958  0.00  0.00    +0.000 A 
ENDBRANCH   1  13
BRANCH   5  14
ATOM     14  C   UNL     1       5.672   5.714  18.011  0.00  0.00    +0.000 C 
ATOM     15  C   UNL     1       6.650   5.423  19.180  0.00  0.00    +0.000 C 
ATOM     16  C   UNL     1       7.792   6.430  19.104  0.00  0.00    +0.000 C 
ATOM     17  C   UNL     1       7.731   7.086  17.737  0.00  0.00    +0.000 C 
ATOM     18  C   UNL     1       6.480   6.587  17.024  0.00  0.00    +0.000 C 
BRANCH  14  19
ATOM     19  N   UNL     1       4.629   6.656  18.527  0.00  0.00    +0.000 NA
ATOM     20  H   UNL     1       5.087   7.491  18.890  0.00  0.00    +0.000 HD
BRANCH  19  21
ATOM     21  C   UNL     1       3.605   7.117  17.583  0.00  0.00    +0.000 C 
BRANCH  21  22
ATOM     22  C   UNL     1       2.599   7.956  18.287  0.00  0.00    +0.000 A 
ATOM     23  C   UNL     1       1.931   9.115  17.955  0.00  0.00    +0.000 A 
ATOM     24  C   UNL     1       1.164   9.470  19.091  0.00  0.00    +0.000 A 
ATOM     25  C   UNL     1       1.408   8.500  20.036  0.00  0.00    +0.000 A 
ATOM     26  O   UNL     1       2.265   7.576  19.556  0.00  0.00    +0.000 OA
ENDBRANCH  21  22
ENDBRANCH  19  21
ENDBRANCH  14  19
ENDBRANCH   5  14
TORSDOF 5
ENDMDL
MODEL 5
REMARK VINA RESULT:      -7.5      2.572      4.788
REMARK  Name = 
REMARK  7 active torsions:
REMARK  status: ('A' for Active; 'I' for Inactive)
REMARK    1  A    between atoms: C_1  and  C_2
REMARK    2  A    between atoms: C_6  and  C_7
REMARK    3  A    between atoms: C_8  and  N_9
REMARK    4  A    between atoms: C_13  and  C_14
REMARK    5  A    between atoms: C_14  and  N_15
REMARK    6  A    between atoms: N_15  and  C_16
REMARK    7  A    between atoms: C_16  and  C_17
REMARK                            x       y       z     vdW  Elec       q    Type
REMARK                         _______ _______ _______ _____ _____    ______ ____
ROOT
ATOM      1  N   UNL     1       5.436   4.762  18.902  0.00  0.00    +0.000 N 
ATOM      2  N   UNL     1       5.846   4.838  20.196  0.00  0.00    +0.000 NA
ATOM      3  N   UNL     1       7.137   5.072  20.190  0.00  0.00    +0.000 NA
ATOM      4  N   UNL     1       7.591   5.195  18.923  0.00  0.00    +0.000 NA
ATOM      5  C   UNL     1       6.555   5.117  18.097  0.00  0.00    +0.000 A 
ENDROOT
BRANCH   1  13
ATOM      6  C   UNL     1       4.414   1.938  19.372  0.00  0.00    +0.000 C 
ATOM      7  C   UNL     1       3.681   3.018  18.638  0.00  0.00    +0.000 A 
ATOM      8  C   UNL     1       2.437   2.647  18.099  0.00  0.00    +0.000 A 
ATOM      9  C   UNL     1       1.525   3.608  17.694  0.00  0.00    +0.000 A 
ATOM     10  C   UNL     1       1.821   4.949  17.892  0.00  0.00    +0.000 A 
ATOM     11  C   UNL     1       3.077   5.359  18.385  0.00  0.00    +0.000 A 
ATOM     12  C   UNL     1       3.244   6.845  18.605  0.00  0.00    +0.000 C 
ATOM     13  C   UNL     1       4.076   4.375  18.642  0.00  0.00    +0.000 A 
ENDBRANCH   1  13
BRANCH   5  14
ATOM     14  C   UNL     1       6.682   5.524  16.614  0.00  0.00    +0.000 C 
ATOM     15  C   UNL     1       7.456   4.504  15.736  0.00  0.00    +0.000 C 
ATOM     16  C   UNL     1       6.790   4.456  14.366  0.00  0.00    +0.000 C 
ATOM     17  C   UNL     1       5.438   5.135  14.492  0.00  0.00    +0.000 C 
ATOM     18  C   UNL     1       5.327   5.719  15.895  0.00  0.00    +0.000 C 
BRANCH  14  19
ATOM     19  N   UNL     1       7.352   6.853  16.447  0.00  0.00    +0.000 NA
ATOM     20  H   UNL     1       7.391   7.082  15.454  0.00  0.00    +0.000 HD
BRANCH  19  21
ATOM     21  C   UNL     1       6.744   8.008  17.119  0.00  0.00    +0.000 C 
BRANCH  21  22
ATOM     22  C   UNL     1       7.792   8.819  17.792  0.00  0.00    +0.000 A 
ATOM     23  C   UNL     1       8.690   8.557  18.805  0.00  0.00    +0.000 A 
ATOM     24  C   UNL     1       9.366   9.775  19.060  0.00  0.00    +0.000 A 
ATOM     25  C   UNL     1       8.843  10.695  18.181  0.00  0.00    +0.000 A 
ATOM     26  O   UNL     1       7.898  10.125  17.406  0.00  0.00    +0.000 OA
ENDBRANCH  21  22
ENDBRANCH  19  21
ENDBRANCH  14  19
ENDBRANCH   5  14
TORSDOF 5
ENDMDL
MODEL 6
REMARK VINA RESULT:      -7.4      1.550      2.735
REMARK  Name = 
REMARK  7 active torsions:
REMARK  status: ('A' for Active; 'I' for Inactive)
REMARK    1  A    between atoms: C_1  and  C_2
REMARK    2  A    between atoms: C_6  and  C_7
REMARK    3  A    between atoms: C_8  and  N_9
REMARK    4  A    between atoms: C_13  and  C_14
REMARK    5  A    between atoms: C_14  and  N_15
REMARK    6  A    between atoms: N_15  and  C_16
REMARK    7  A    between atoms: C_16  and  C_17
REMARK                            x       y       z     vdW  Elec       q    Type
REMARK                         _______ _______ _______ _____ _____    ______ ____
ROOT
ATOM      1  N   UNL     1       2.720   4.900  18.011  0.00  0.00    +0.000 N 
ATOM      2  N   UNL     1       1.720   4.049  17.660  0.00  0.00    +0.000 NA
ATOM      3  N   UNL     1       2.178   3.271  16.708  0.00  0.00    +0.000 NA
ATOM      4  N   UNL     1       3.472   3.554  16.444  0.00  0.00    +0.000 NA
ATOM      5  C   UNL     1       3.881   4.483  17.300  0.00  0.00    +0.000 A 
ENDROOT
BRANCH   1  13
ATOM      6  C   UNL     1       2.521   4.420  21.006  0.00  0.00    +0.000 C 
ATOM      7  C   UNL     1       2.101   5.669  20.294  0.00  0.00    +0.000 A 
ATOM      8  C   UNL     1       1.532   6.666  21.106  0.00  0.00    +0.000 A 
ATOM      9  C   UNL     1       1.406   7.967  20.648  0.00  0.00    +0.000 A 
ATOM     10  C   UNL     1       1.915   8.298  19.401  0.00  0.00    +0.000 A 
ATOM     11  C   UNL     1       2.448   7.316  18.541  0.00  0.00    +0.000 A 
ATOM     12  C   UNL     1       3.019   7.823  17.236  0.00  0.00    +0.000 C 
ATOM     13  C   UNL     1       2.422   5.949  18.948  0.00  0.00    +0.000 A 
ENDBRANCH   1  13
BRANCH   5  14
ATOM     14  C   UNL     1       5.380   4.807  17.474  0.00  0.00    +0.000 C 
ATOM     15  C   UNL     1       5.733   6.308  17.295  0.00  0.00    +0.000 C 
ATOM     16  C   UNL     1       6.827   6.661  18.296  0.00  0.00    +0.000 C 
ATOM     17  C   UNL     1       6.900   5.532  19.308  0.00  0.00    +0.000 C 
ATOM     18  C   UNL     1       5.951   4.427  18.859  0.00  0.00    +0.000 C 
BRANCH  14  19
ATOM     19  N   UNL     1       6.240   4.032  16.524  0.00  0.00    +0.000 NA
ATOM     20  H   UNL     1       5.642   3.487  15.905  0.00  0.00    +0.000 HD
BRANCH  19  21
ATOM     21  C   UNL     1       7.153   4.792  15.662  0.00  0.00    +0.000 C 
BRANCH  21  22
ATOM     22  C   UNL     1       6.946   4.417  14.239  0.00  0.00    +0.000 A 
ATOM     23  C   UNL     1       7.569   4.777  13.063  0.00  0.00    +0.000 A 
ATOM     24  C   UNL     1       6.847   4.143  12.022  0.00  0.00    +0.000 A 
ATOM     25  C   UNL     1       5.839   3.433  12.632  0.00  0.00    +0.000 A 
ATOM     26  O   UNL     1       5.896   3.585  13.971  0.00  0.00    +0.000 OA
ENDBRANCH  21  22
ENDBRANCH  19  21
ENDBRANCH  14  19
ENDBRANCH   5  14
TORSDOF 5
ENDMDL
MODEL 7
REMARK VINA RESULT:      -7.1      7.344      9.848
REMARK  Name = 
REMARK  7 active torsions:
REMARK  status: ('A' for Active; 'I' for Inactive)
REMARK    1  A    between atoms: C_1  and  C_2
REMARK    2  A    between atoms: C_6  and  C_7
REMARK    3  A    between atoms: C_8  and  N_9
REMARK    4  A    between atoms: C_13  and  C_14
REMARK    5  A    between atoms: C_14  and  N_15
REMARK    6  A    between atoms: N_15  and  C_16
REMARK    7  A    between atoms: C_16  and  C_17
REMARK                            x       y       z     vdW  Elec       q    Type
REMARK                         _______ _______ _______ _____ _____    ______ ____
ROOT
ATOM      1  N   UNL     1       0.166  13.299  21.711  0.00  0.00    +0.000 N 
ATOM      2  N   UNL     1       0.905  14.257  22.332  0.00  0.00    +0.000 NA
ATOM      3  N   UNL     1       2.140  14.145  21.903  0.00  0.00    +0.000 NA
ATOM      4  N   UNL     1       2.235  13.163  20.980  0.00  0.00    +0.000 NA
ATOM      5  C   UNL     1       1.018  12.684  20.750  0.00  0.00    +0.000 A 
ENDROOT
BRANCH   1  13
ATOM      6  C   UNL     1      -2.101  15.004  20.617  0.00  0.00    +0.000 C 
ATOM      7  C   UNL     1      -2.197  14.071  21.785  0.00  0.00    +0.000 A 
ATOM      8  C   UNL     1      -3.445  14.039  22.431  0.00  0.00    +0.000 A 
ATOM      9  C   UNL     1      -3.770  13.006  23.295  0.00  0.00    +0.000 A 
ATOM     10  C   UNL     1      -2.876  11.958  23.464  0.00  0.00    +0.000 A 
ATOM     11  C   UNL     1      -1.597  11.981  22.870  0.00  0.00    +0.000 A 
ATOM     12  C   UNL     1      -0.748  10.750  23.090  0.00  0.00    +0.000 C 
ATOM     13  C   UNL     1      -1.202  13.126  22.118  0.00  0.00    +0.000 A 
ENDBRANCH   1  13
BRANCH   5  14
ATOM     14  C   UNL     1       0.732  11.774  19.537  0.00  0.00    +0.000 C 
ATOM     15  C   UNL     1       1.888  11.705  18.504  0.00  0.00    +0.000 C 
ATOM     16  C   UNL     1       1.958  10.280  17.967  0.00  0.00    +0.000 C 
ATOM     17  C   UNL     1       1.128   9.404  18.887  0.00  0.00    +0.000 C 
ATOM     18  C   UNL     1       0.440  10.302  19.908  0.00  0.00    +0.000 C 
BRANCH  14  19
ATOM     19  N   UNL     1      -0.501  12.191  18.796  0.00  0.00    +0.000 NA
ATOM     20  H   UNL     1      -0.337  12.091  17.795  0.00  0.00    +0.000 HD
BRANCH  19  21
ATOM     21  C   UNL     1      -1.745  11.471  19.090  0.00  0.00    +0.000 C 
BRANCH  21  22
ATOM     22  C   UNL     1      -2.362  10.977  17.831  0.00  0.00    +0.000 A 
ATOM     23  C   UNL     1      -1.993  10.028  16.902  0.00  0.00    +0.000 A 
ATOM     24  C   UNL     1      -2.962  10.084  15.871  0.00  0.00    +0.000 A 
ATOM     25  C   UNL     1      -3.862  11.056  16.243  0.00  0.00    +0.000 A 
ATOM     26  O   UNL     1      -3.512  11.594  17.429  0.00  0.00    +0.000 OA
ENDBRANCH  21  22
ENDBRANCH  19  21
ENDBRANCH  14  19
ENDBRANCH   5  14
TORSDOF 5
ENDMDL
MODEL 8
REMARK VINA RESULT:      -7.1      2.299      4.008
REMARK  Name = 
REMARK  7 active torsions:
REMARK  status: ('A' for Active; 'I' for Inactive)
REMARK    1  A    between atoms: C_1  and  C_2
REMARK    2  A    between atoms: C_6  and  C_7
REMARK    3  A    between atoms: C_8  and  N_9
REMARK    4  A    between atoms: C_13  and  C_14
REMARK    5  A    between atoms: C_14  and  N_15
REMARK    6  A    between atoms: N_15  and  C_16
REMARK    7  A    between atoms: C_16  and  C_17
REMARK                            x       y       z     vdW  Elec       q    Type
REMARK                         _______ _______ _______ _____ _____    ______ ____
ROOT
ATOM      1  N   UNL     1       3.294   5.802  18.206  0.00  0.00    +0.000 N 
ATOM      2  N   UNL     1       2.154   6.541  18.180  0.00  0.00    +0.000 NA
ATOM      3  N   UNL     1       2.485   7.769  17.858  0.00  0.00    +0.000 NA
ATOM      4  N   UNL     1       3.813   7.858  17.628  0.00  0.00    +0.000 NA
ATOM      5  C   UNL     1       4.338   6.643  17.727  0.00  0.00    +0.000 A 
ENDROOT
BRANCH   1  13
ATOM      6  C   UNL     1       2.309   5.071  20.988  0.00  0.00    +0.000 C 
ATOM      7  C   UNL     1       2.983   4.138  20.029  0.00  0.00    +0.000 A 
ATOM      8  C   UNL     1       3.199   2.834  20.506  0.00  0.00    +0.000 A 
ATOM      9  C   UNL     1       3.503   1.802  19.634  0.00  0.00    +0.000 A 
ATOM     10  C   UNL     1       3.522   2.051  18.269  0.00  0.00    +0.000 A 
ATOM     11  C   UNL     1       3.358   3.355  17.759  0.00  0.00    +0.000 A 
ATOM     12  C   UNL     1       3.344   3.476  16.252  0.00  0.00    +0.000 C 
ATOM     13  C   UNL     1       3.213   4.443  18.669  0.00  0.00    +0.000 A 
ENDBRANCH   1  13
BRANCH   5  14
ATOM     14  C   UNL     1       5.766   6.345  17.224  0.00  0.00    +0.000 C 
ATOM     15  C   UNL     1       6.532   5.289  18.066  0.00  0.00    +0.000 C 
ATOM     16  C   UNL     1       7.370   4.443  17.115  0.00  0.00    +0.000 C 
ATOM     17  C   UNL     1       6.873   4.712  15.706  0.00  0.00    +0.000 C 
ATOM     18  C   UNL     1       5.827   5.817  15.773  0.00  0.00    +0.000 C 
BRANCH  14  19
ATOM     19  N   UNL     1       6.618   7.577  17.176  0.00  0.00    +0.000 NA
ATOM     20  H   UNL     1       6.064   8.375  17.485  0.00  0.00    +0.000 HD
BRANCH  19  21
ATOM     21  C   UNL     1       7.846   7.584  17.979  0.00  0.00    +0.000 C 
BRANCH  21  22
ATOM     22  C   UNL     1       8.313   8.979  18.190  0.00  0.00    +0.000 A 
ATOM     23  C   UNL     1       8.139  10.154  17.490  0.00  0.00    +0.000 A 
ATOM     24  C   UNL     1       8.914  11.132  18.159  0.00  0.00    +0.000 A 
ATOM     25  C   UNL     1       9.502  10.492  19.226  0.00  0.00    +0.000 A 
ATOM     26  O   UNL     1       9.137   9.194  19.258  0.00  0.00    +0.000 OA
ENDBRANCH  21  22
ENDBRANCH  19  21
ENDBRANCH  14  19
ENDBRANCH   5  14
TORSDOF 5
ENDMDL
MODEL 9
REMARK VINA RESULT:      -7.0      2.730      4.779
REMARK  Name = 
REMARK  7 active torsions:
REMARK  status: ('A' for Active; 'I' for Inactive)
REMARK    1  A    between atoms: C_1  and  C_2
REMARK    2  A    between atoms: C_6  and  C_7
REMARK    3  A    between atoms: C_8  and  N_9
REMARK    4  A    between atoms: C_13  and  C_14
REMARK    5  A    between atoms: C_14  and  N_15
REMARK    6  A    between atoms: N_15  and  C_16
REMARK    7  A    between atoms: C_16  and  C_17
REMARK                            x       y       z     vdW  Elec       q    Type
REMARK                         _______ _______ _______ _____ _____    ______ ____
ROOT
ATOM      1  N   UNL     1       3.943   3.246  17.954  0.00  0.00    +0.000 N 
ATOM      2  N   UNL     1       4.009   2.117  17.199  0.00  0.00    +0.000 NA
ATOM      3  N   UNL     1       4.776   2.375  16.166  0.00  0.00    +0.000 NA
ATOM      4  N   UNL     1       5.257   3.635  16.235  0.00  0.00    +0.000 NA
ATOM      5  C   UNL     1       4.855   4.176  17.379  0.00  0.00    +0.000 A 
ENDROOT
BRANCH   1  13
ATOM      6  C   UNL     1       4.806   2.431  20.753  0.00  0.00    +0.000 C 
ATOM      7  C   UNL     1       3.395   2.659  20.308  0.00  0.00    +0.000 A 
ATOM      8  C   UNL     1       2.409   2.426  21.283  0.00  0.00    +0.000 A 
ATOM      9  C   UNL     1       1.120   2.904  21.116  0.00  0.00    +0.000 A 
ATOM     10  C   UNL     1       0.823   3.681  20.005  0.00  0.00    +0.000 A 
ATOM     11  C   UNL     1       1.773   3.894  18.984  0.00  0.00    +0.000 A 
ATOM     12  C   UNL     1       1.337   4.806  17.860  0.00  0.00    +0.000 C 
ATOM     13  C   UNL     1       3.047   3.260  19.078  0.00  0.00    +0.000 A 
ENDBRANCH   1  13
BRANCH   5  14
ATOM     14  C   UNL     1       5.478   5.485  17.908  0.00  0.00    +0.000 C 
ATOM     15  C   UNL     1       6.536   5.282  19.025  0.00  0.00    +0.000 C 
ATOM     16  C   UNL     1       7.642   6.310  18.823  0.00  0.00    +0.000 C 
ATOM     17  C   UNL     1       7.476   6.890  17.429  0.00  0.00    +0.000 C 
ATOM     18  C   UNL     1       6.197   6.323  16.827  0.00  0.00    +0.000 C 
BRANCH  14  19
ATOM     19  N   UNL     1       4.444   6.428  18.441  0.00  0.00    +0.000 NA
ATOM     20  H   UNL     1       4.871   7.023  19.150  0.00  0.00    +0.000 HD
BRANCH  19  21
ATOM     21  C   UNL     1       3.786   7.325  17.484  0.00  0.00    +0.000 C 
BRANCH  21  22
ATOM     22  C   UNL     1       2.707   8.093  18.158  0.00  0.00    +0.000 A 
ATOM     23  C   UNL     1       1.971   9.204  17.806  0.00  0.00    +0.000 A 
ATOM     24  C   UNL     1       1.152   9.507  18.921  0.00  0.00    +0.000 A 
ATOM     25  C   UNL     1       1.436   8.556  19.875  0.00  0.00    +0.000 A 
ATOM     26  O   UNL     1       2.367   7.693  19.419  0.00  0.00    +0.000 OA
ENDBRANCH  21  22
ENDBRANCH  19  21
ENDBRANCH  14  19
ENDBRANCH   5  14
TORSDOF 5
ENDMDL
