MODEL 1
REMARK VINA RESULT:      -6.6      0.000      0.000
REMARK  Name = 
REMARK  6 active torsions:
REMARK  status: ('A' for Active; 'I' for Inactive)
REMARK    1  A    between atoms: C_1  and  C_2
REMARK    2  A    between atoms: C_3  and  C_4
REMARK    3  A    between atoms: N_8  and  C_9
REMARK    4  A    between atoms: N_12  and  C_13
REMARK    5  A    between atoms: N_18  and  C_19
REMARK    6  A    between atoms: N_25  and  C_26
REMARK                            x       y       z     vdW  Elec       q    Type
REMARK                         _______ _______ _______ _____ _____    ______ ____
ROOT
ATOM      1  C   UNL     1      -0.510  14.417  19.965  0.00  0.00    +0.000 C 
ATOM      2  C   UNL     1      -0.624  12.944  19.735  0.00  0.00    +0.000 A 
ATOM      3  C   UNL     1      -1.753  12.256  19.489  0.00  0.00    +0.000 A 
ATOM      4  C   UNL     1      -1.298  10.871  19.129  0.00  0.00    +0.000 A 
ATOM      5  O   UNL     1      -2.061   9.961  18.836  0.00  0.00    +0.000 OA
ATOM      6  N   UNL     1       0.100  10.885  19.204  0.00  0.00    +0.000 N 
ATOM      7  N   UNL     1       0.517  12.130  19.721  0.00  0.00    +0.000 N 
ATOM      8  C   UNL     1       1.835  12.640  19.349  0.00  0.00    +0.000 C 
ENDROOT
BRANCH   3   9
ATOM      9  C   UNL     1      -3.130  12.679  19.463  0.00  0.00    +0.000 C 
ATOM     10  C   UNL     1      -3.932  12.865  20.535  0.00  0.00    +0.000 C 
ATOM     11  C   UNL     1      -5.361  13.170  20.295  0.00  0.00    +0.000 C 
ATOM     12  O   UNL     1      -5.767  13.450  19.167  0.00  0.00    +0.000 OA
ATOM     13  N   UNL     1      -6.174  13.115  21.412  0.00  0.00    +0.000 N 
ATOM     14  C   UNL     1      -7.602  13.354  21.246  0.00  0.00    +0.000 C 
ATOM     15  C   UNL     1      -5.762  12.804  22.703  0.00  0.00    +0.000 C 
ATOM     16  O   UNL     1      -6.575  12.721  23.629  0.00  0.00    +0.000 OA
ATOM     17  N   UNL     1      -4.403  12.624  22.896  0.00  0.00    +0.000 N 
ATOM     18  C   UNL     1      -3.917  12.376  24.244  0.00  0.00    +0.000 C 
ATOM     19  C   UNL     1      -3.429  12.772  21.921  0.00  0.00    +0.000 C 
ATOM     20  O   UNL     1      -2.238  12.878  22.191  0.00  0.00    +0.000 OA
ENDBRANCH   3   9
BRANCH   6  21
ATOM     21  C   UNL     1       0.923   9.743  19.167  0.00  0.00    +0.000 A 
ATOM     22  C   UNL     1       1.094   8.981  20.328  0.00  0.00    +0.000 A 
ATOM     23  C   UNL     1       1.805   7.778  20.284  0.00  0.00    +0.000 A 
ATOM     24  C   UNL     1       2.388   7.354  19.091  0.00  0.00    +0.000 A 
ATOM     25  C   UNL     1       2.263   8.131  17.940  0.00  0.00    +0.000 A 
ATOM     26  C   UNL     1       1.526   9.317  17.977  0.00  0.00    +0.000 A 
ENDBRANCH   6  21
TORSDOF 2
ENDMDL
MODEL 2
REMARK VINA RESULT:      -6.4      2.460      3.662
REMARK  Name = 
REMARK  6 active torsions:
REMARK  status: ('A' for Active; 'I' for Inactive)
REMARK    1  A    between atoms: C_1  and  C_2
REMARK    2  A    between atoms: C_3  and  C_4
REMARK    3  A    between atoms: N_8  and  C_9
REMARK    4  A    between atoms: N_12  and  C_13
REMARK    5  A    between atoms: N_18  and  C_19
REMARK    6  A    between atoms: N_25  and  C_26
REMARK                            x       y       z     vdW  Elec       q    Type
REMARK                         _______ _______ _______ _____ _____    ______ ____
ROOT
ATOM      1  C   UNL     1      -2.184  12.779  19.408  0.00  0.00    +0.000 C 
ATOM      2  C   UNL     1      -0.927  12.042  19.741  0.00  0.00    +0.000 A 
ATOM      3  C   UNL     1      -0.040  12.363  20.700  0.00  0.00    +0.000 A 
ATOM      4  C   UNL     1       0.912  11.203  20.759  0.00  0.00    +0.000 A 
ATOM      5  O   UNL     1       1.860  11.142  21.529  0.00  0.00    +0.000 OA
ATOM      6  N   UNL     1       0.475  10.288  19.794  0.00  0.00    +0.000 N 
ATOM      7  N   UNL     1      -0.581  10.868  19.059  0.00  0.00    +0.000 N 
ATOM      8  C   UNL     1      -1.583   9.992  18.457  0.00  0.00    +0.000 C 
ENDROOT
BRANCH   3   9
ATOM      9  C   UNL     1       0.022  13.495  21.589  0.00  0.00    +0.000 C 
ATOM     10  C   UNL     1      -0.803  13.740  22.632  0.00  0.00    +0.000 C 
ATOM     11  C   UNL     1      -0.664  15.031  23.345  0.00  0.00    +0.000 C 
ATOM     12  O   UNL     1       0.300  15.769  23.135  0.00  0.00    +0.000 OA
ATOM     13  N   UNL     1      -1.678  15.326  24.239  0.00  0.00    +0.000 N 
ATOM     14  C   UNL     1      -1.635  16.602  24.941  0.00  0.00    +0.000 C 
ATOM     15  C   UNL     1      -2.782  14.527  24.508  0.00  0.00    +0.000 C 
ATOM     16  O   UNL     1      -3.668  14.903  25.280  0.00  0.00    +0.000 OA
ATOM     17  N   UNL     1      -2.818  13.287  23.893  0.00  0.00    +0.000 N 
ATOM     18  C   UNL     1      -3.913  12.384  24.207  0.00  0.00    +0.000 C 
ATOM     19  C   UNL     1      -1.827  12.771  23.072  0.00  0.00    +0.000 C 
ATOM     20  O   UNL     1      -1.768  11.582  22.780  0.00  0.00    +0.000 OA
ENDBRANCH   3   9
BRANCH   6  21
ATOM     21  C   UNL     1       1.204   9.166  19.354  0.00  0.00    +0.000 A 
ATOM     22  C   UNL     1       1.760   9.168  18.070  0.00  0.00    +0.000 A 
ATOM     23  C   UNL     1       2.589   8.121  17.658  0.00  0.00    +0.000 A 
ATOM     24  C   UNL     1       2.830   7.044  18.510  0.00  0.00    +0.000 A 
ATOM     25  C   UNL     1       2.242   7.011  19.774  0.00  0.00    +0.000 A 
ATOM     26  C   UNL     1       1.439   8.073  20.197  0.00  0.00    +0.000 A 
ENDBRANCH   6  21
TORSDOF 2
ENDMDL
MODEL 3
REMARK VINA RESULT:      -6.3      4.519      7.930
REMARK  Name = 
REMARK  6 active torsions:
REMARK  status: ('A' for Active; 'I' for Inactive)
REMARK    1  A    between atoms: C_1  and  C_2
REMARK    2  A    between atoms: C_3  and  C_4
REMARK    3  A    between atoms: N_8  and  C_9
REMARK    4  A    between atoms: N_12  and  C_13
REMARK    5  A    between atoms: N_18  and  C_19
REMARK    6  A    between atoms: N_25  and  C_26
REMARK                            x       y       z     vdW  Elec       q    Type
REMARK                         _______ _______ _______ _____ _____    ______ ____
ROOT
ATOM      1  C   UNL     1       0.740   3.588  19.846  0.00  0.00    +0.000 C 
ATOM      2  C   UNL     1       1.939   4.363  19.401  0.00  0.00    +0.000 A 
ATOM      3  C   UNL     1       2.282   5.603  19.792  0.00  0.00    +0.000 A 
ATOM      4  C   UNL     1       3.655   5.828  19.226  0.00  0.00    +0.000 A 
ATOM      5  O   UNL     1       4.293   6.859  19.384  0.00  0.00    +0.000 OA
ATOM      6  N   UNL     1       3.989   4.659  18.532  0.00  0.00    +0.000 N 
ATOM      7  N   UNL     1       2.868   3.801  18.515  0.00  0.00    +0.000 N 
ATOM      8  C   UNL     1       3.088   2.359  18.427  0.00  0.00    +0.000 C 
ENDROOT
BRANCH   3   9
ATOM      9  C   UNL     1       1.601   6.549  20.639  0.00  0.00    +0.000 C 
ATOM     10  C   UNL     1       1.295   7.828  20.326  0.00  0.00    +0.000 C 
ATOM     11  C   UNL     1       0.713   8.687  21.383  0.00  0.00    +0.000 C 
ATOM     12  O   UNL     1       0.326   8.204  22.449  0.00  0.00    +0.000 OA
ATOM     13  N   UNL     1       0.643  10.035  21.081  0.00  0.00    +0.000 N 
ATOM     14  C   UNL     1       0.127  10.948  22.092  0.00  0.00    +0.000 C 
ATOM     15  C   UNL     1       1.065  10.624  19.895  0.00  0.00    +0.000 C 
ATOM     16  O   UNL     1       1.017  11.848  19.739  0.00  0.00    +0.000 OA
ATOM     17  N   UNL     1       1.509   9.771  18.900  0.00  0.00    +0.000 N 
ATOM     18  C   UNL     1       1.886  10.336  17.614  0.00  0.00    +0.000 C 
ATOM     19  C   UNL     1       1.524   8.387  18.978  0.00  0.00    +0.000 C 
ATOM     20  O   UNL     1       1.658   7.674  17.990  0.00  0.00    +0.000 OA
ENDBRANCH   3   9
BRANCH   6  21
ATOM     21  C   UNL     1       5.087   4.521  17.661  0.00  0.00    +0.000 A 
ATOM     22  C   UNL     1       4.860   4.373  16.288  0.00  0.00    +0.000 A 
ATOM     23  C   UNL     1       5.933   4.359  15.393  0.00  0.00    +0.000 A 
ATOM     24  C   UNL     1       7.241   4.446  15.868  0.00  0.00    +0.000 A 
ATOM     25  C   UNL     1       7.478   4.546  17.238  0.00  0.00    +0.000 A 
ATOM     26  C   UNL     1       6.404   4.592  18.130  0.00  0.00    +0.000 A 
ENDBRANCH   6  21
TORSDOF 2
ENDMDL
MODEL 4
REMARK VINA RESULT:      -6.1      3.609      5.590
REMARK  Name = 
REMARK  6 active torsions:
REMARK  status: ('A' for Active; 'I' for Inactive)
REMARK    1  A    between atoms: C_1  and  C_2
REMARK    2  A    between atoms: C_3  and  C_4
REMARK    3  A    between atoms: N_8  and  C_9
REMARK    4  A    between atoms: N_12  and  C_13
REMARK    5  A    between atoms: N_18  and  C_19
REMARK    6  A    between atoms: N_25  and  C_26
REMARK                            x       y       z     vdW  Elec       q    Type
REMARK                         _______ _______ _______ _____ _____    ______ ____
ROOT
ATOM      1  C   UNL     1      -7.379  12.107  21.218  0.00  0.00    +0.000 C 
ATOM      2  C   UNL     1      -6.069  12.110  20.497  0.00  0.00    +0.000 A 
ATOM      3  C   UNL     1      -4.918  12.658  20.928  0.00  0.00    +0.000 A 
ATOM      4  C   UNL     1      -3.876  12.205  19.946  0.00  0.00    +0.000 A 
ATOM      5  O   UNL     1      -2.694  12.510  20.022  0.00  0.00    +0.000 OA
ATOM      6  N   UNL     1      -4.542  11.412  19.004  0.00  0.00    +0.000 N 
ATOM      7  N   UNL     1      -5.929  11.469  19.259  0.00  0.00    +0.000 N 
ATOM      8  C   UNL     1      -6.762  10.332  18.872  0.00  0.00    +0.000 C 
ENDROOT
BRANCH   3   9
ATOM      9  C   UNL     1      -4.626  13.442  22.100  0.00  0.00    +0.000 C 
ATOM     10  C   UNL     1      -4.428  14.779  22.141  0.00  0.00    +0.000 C 
ATOM     11  C   UNL     1      -4.003  15.384  23.424  0.00  0.00    +0.000 C 
ATOM     12  O   UNL     1      -4.028  14.733  24.469  0.00  0.00    +0.000 OA
ATOM     13  N   UNL     1      -3.587  16.702  23.349  0.00  0.00    +0.000 N 
ATOM     14  C   UNL     1      -3.107  17.349  24.563  0.00  0.00    +0.000 C 
ATOM     15  C   UNL     1      -3.541  17.475  22.195  0.00  0.00    +0.000 C 
ATOM     16  O   UNL     1      -3.099  18.627  22.217  0.00  0.00    +0.000 OA
ATOM     17  N   UNL     1      -4.042  16.899  21.040  0.00  0.00    +0.000 N 
ATOM     18  C   UNL     1      -4.088  17.698  19.826  0.00  0.00    +0.000 C 
ATOM     19  C   UNL     1      -4.618  15.641  20.956  0.00  0.00    +0.000 C 
ATOM     20  O   UNL     1      -5.289  15.287  19.994  0.00  0.00    +0.000 OA
ENDBRANCH   3   9
BRANCH   6  21
ATOM     21  C   UNL     1      -3.993  10.971  17.785  0.00  0.00    +0.000 A 
ATOM     22  C   UNL     1      -4.447  11.529  16.584  0.00  0.00    +0.000 A 
ATOM     23  C   UNL     1      -3.831  11.197  15.374  0.00  0.00    +0.000 A 
ATOM     24  C   UNL     1      -2.790  10.270  15.351  0.00  0.00    +0.000 A 
ATOM     25  C   UNL     1      -2.363   9.673  16.537  0.00  0.00    +0.000 A 
ATOM     26  C   UNL     1      -2.957  10.029  17.750  0.00  0.00    +0.000 A 
ENDBRANCH   6  21
TORSDOF 2
ENDMDL
MODEL 5
REMARK VINA RESULT:      -6.1      6.516      8.678
REMARK  Name = 
REMARK  6 active torsions:
REMARK  status: ('A' for Active; 'I' for Inactive)
REMARK    1  A    between atoms: C_1  and  C_2
REMARK    2  A    between atoms: C_3  and  C_4
REMARK    3  A    between atoms: N_8  and  C_9
REMARK    4  A    between atoms: N_12  and  C_13
REMARK    5  A    between atoms: N_18  and  C_19
REMARK    6  A    between atoms: N_25  and  C_26
REMARK                            x       y       z     vdW  Elec       q    Type
REMARK                         _______ _______ _______ _____ _____    ______ ____
ROOT
ATOM      1  C   UNL     1       7.129  17.765  20.710  0.00  0.00    +0.000 C 
ATOM      2  C   UNL     1       7.173  16.495  19.922  0.00  0.00    +0.000 A 
ATOM      3  C   UNL     1       6.243  16.056  19.055  0.00  0.00    +0.000 A 
ATOM      4  C   UNL     1       6.860  14.860  18.389  0.00  0.00    +0.000 A 
ATOM      5  O   UNL     1       6.297  14.197  17.529  0.00  0.00    +0.000 OA
ATOM      6  N   UNL     1       8.132  14.709  18.954  0.00  0.00    +0.000 N 
ATOM      7  N   UNL     1       8.275  15.634  20.010  0.00  0.00    +0.000 N 
ATOM      8  C   UNL     1       9.614  16.114  20.347  0.00  0.00    +0.000 C 
ENDROOT
BRANCH   3   9
ATOM      9  C   UNL     1       4.953  16.592  18.703  0.00  0.00    +0.000 C 
ATOM     10  C   UNL     1       3.752  16.111  19.095  0.00  0.00    +0.000 C 
ATOM     11  C   UNL     1       2.532  16.719  18.515  0.00  0.00    +0.000 C 
ATOM     12  O   UNL     1       2.594  17.760  17.859  0.00  0.00    +0.000 OA
ATOM     13  N   UNL     1       1.354  16.038  18.764  0.00  0.00    +0.000 N 
ATOM     14  C   UNL     1       0.119  16.548  18.184  0.00  0.00    +0.000 C 
ATOM     15  C   UNL     1       1.235  14.862  19.497  0.00  0.00    +0.000 C 
ATOM     16  O   UNL     1       0.146  14.294  19.616  0.00  0.00    +0.000 OA
ATOM     17  N   UNL     1       2.385  14.387  20.102  0.00  0.00    +0.000 N 
ATOM     18  C   UNL     1       2.293  13.205  20.944  0.00  0.00    +0.000 C 
ATOM     19  C   UNL     1       3.623  15.009  20.070  0.00  0.00    +0.000 C 
ATOM     20  O   UNL     1       4.531  14.708  20.837  0.00  0.00    +0.000 OA
ENDBRANCH   3   9
BRANCH   6  21
ATOM     21  C   UNL     1       8.963  13.584  18.787  0.00  0.00    +0.000 A 
ATOM     22  C   UNL     1       9.815  13.518  17.679  0.00  0.00    +0.000 A 
ATOM     23  C   UNL     1      10.736  12.473  17.558  0.00  0.00    +0.000 A 
ATOM     24  C   UNL     1      10.778  11.465  18.520  0.00  0.00    +0.000 A 
ATOM     25  C   UNL     1       9.900  11.497  19.602  0.00  0.00    +0.000 A 
ATOM     26  C   UNL     1       9.002  12.559  19.739  0.00  0.00    +0.000 A 
ENDBRANCH   6  21
TORSDOF 2
ENDMDL
MODEL 6
REMARK VINA RESULT:      -6.1      2.300      3.246
REMARK  Name = 
REMARK  6 active torsions:
REMARK  status: ('A' for Active; 'I' for Inactive)
REMARK    1  A    between atoms: C_1  and  C_2
REMARK    2  A    between atoms: C_3  and  C_4
REMARK    3  A    between atoms: N_8  and  C_9
REMARK    4  A    between atoms: N_12  and  C_13
REMARK    5  A    between atoms: N_18  and  C_19
REMARK    6  A    between atoms: N_25  and  C_26
REMARK                            x       y       z     vdW  Elec       q    Type
REMARK                         _______ _______ _______ _____ _____    ______ ____
ROOT
ATOM      1  C   UNL     1      -2.804  12.596  19.151  0.00  0.00    +0.000 C 
ATOM      2  C   UNL     1      -1.429  12.108  19.478  0.00  0.00    +0.000 A 
ATOM      3  C   UNL     1      -0.545  12.696  20.304  0.00  0.00    +0.000 A 
ATOM      4  C   UNL     1       0.578  11.708  20.445  0.00  0.00    +0.000 A 
ATOM      5  O   UNL     1       1.570  11.903  21.134  0.00  0.00    +0.000 OA
ATOM      6  N   UNL     1       0.230  10.604  19.659  0.00  0.00    +0.000 N 
ATOM      7  N   UNL     1      -0.947  10.907  18.940  0.00  0.00    +0.000 N 
ATOM      8  C   UNL     1      -1.836   9.813  18.554  0.00  0.00    +0.000 C 
ENDROOT
BRANCH   3   9
ATOM      9  C   UNL     1      -0.606  13.946  21.017  0.00  0.00    +0.000 C 
ATOM     10  C   UNL     1      -1.342  14.204  22.121  0.00  0.00    +0.000 C 
ATOM     11  C   UNL     1      -1.378  15.594  22.629  0.00  0.00    +0.000 C 
ATOM     12  O   UNL     1      -0.605  16.448  22.192  0.00  0.00    +0.000 OA
ATOM     13  N   UNL     1      -2.325  15.844  23.606  0.00  0.00    +0.000 N 
ATOM     14  C   UNL     1      -2.453  17.202  24.119  0.00  0.00    +0.000 C 
ATOM     15  C   UNL     1      -3.217  14.916  24.129  0.00  0.00    +0.000 C 
ATOM     16  O   UNL     1      -4.068  15.248  24.959  0.00  0.00    +0.000 OA
ATOM     17  N   UNL     1      -3.079  13.608  23.696  0.00  0.00    +0.000 N 
ATOM     18  C   UNL     1      -3.938  12.588  24.276  0.00  0.00    +0.000 C 
ATOM     19  C   UNL     1      -2.104  13.152  22.824  0.00  0.00    +0.000 C 
ATOM     20  O   UNL     1      -1.849  11.960  22.688  0.00  0.00    +0.000 OA
ENDBRANCH   3   9
BRANCH   6  21
ATOM     21  C   UNL     1       1.096   9.546  19.321  0.00  0.00    +0.000 A 
ATOM     22  C   UNL     1       1.318   8.518  20.244  0.00  0.00    +0.000 A 
ATOM     23  C   UNL     1       2.074   7.398  19.886  0.00  0.00    +0.000 A 
ATOM     24  C   UNL     1       2.651   7.321  18.619  0.00  0.00    +0.000 A 
ATOM     25  C   UNL     1       2.474   8.362  17.709  0.00  0.00    +0.000 A 
ATOM     26  C   UNL     1       1.692   9.467  18.056  0.00  0.00    +0.000 A 
ENDBRANCH   6  21
TORSDOF 2
ENDMDL
MODEL 7
REMARK VINA RESULT:      -6.1      4.334      9.553
REMARK  Name = 
REMARK  6 active torsions:
REMARK  status: ('A' for Active; 'I' for Inactive)
REMARK    1  A    between atoms: C_1  and  C_2
REMARK    2  A    between atoms: C_3  and  C_4
REMARK    3  A    between atoms: N_8  and  C_9
REMARK    4  A    between atoms: N_12  and  C_13
REMARK    5  A    between atoms: N_18  and  C_19
REMARK    6  A    between atoms: N_25  and  C_26
REMARK                            x       y       z     vdW  Elec       q    Type
REMARK                         _______ _______ _______ _____ _____    ______ ____
ROOT
ATOM      1  C   UNL     1       2.240   6.622  20.984  0.00  0.00    +0.000 C 
ATOM      2  C   UNL     1       1.854   7.785  20.128  0.00  0.00    +0.000 A 
ATOM      3  C   UNL     1       2.355   8.092  18.918  0.00  0.00    +0.000 A 
ATOM      4  C   UNL     1       1.493   9.211  18.407  0.00  0.00    +0.000 A 
ATOM      5  O   UNL     1       1.653   9.749  17.320  0.00  0.00    +0.000 OA
ATOM      6  N   UNL     1       0.542   9.459  19.404  0.00  0.00    +0.000 N 
ATOM      7  N   UNL     1       0.851   8.676  20.536  0.00  0.00    +0.000 N 
ATOM      8  C   UNL     1      -0.233   8.272  21.429  0.00  0.00    +0.000 C 
ENDROOT
BRANCH   3   9
ATOM      9  C   UNL     1       3.417   7.487  18.155  0.00  0.00    +0.000 C 
ATOM     10  C   UNL     1       3.478   6.200  17.747  0.00  0.00    +0.000 C 
ATOM     11  C   UNL     1       4.719   5.732  17.089  0.00  0.00    +0.000 C 
ATOM     12  O   UNL     1       5.588   6.531  16.737  0.00  0.00    +0.000 OA
ATOM     13  N   UNL     1       4.817   4.364  16.911  0.00  0.00    +0.000 N 
ATOM     14  C   UNL     1       6.032   3.825  16.315  0.00  0.00    +0.000 C 
ATOM     15  C   UNL     1       3.865   3.425  17.291  0.00  0.00    +0.000 C 
ATOM     16  O   UNL     1       4.067   2.217  17.143  0.00  0.00    +0.000 OA
ATOM     17  N   UNL     1       2.679   3.917  17.810  0.00  0.00    +0.000 N 
ATOM     18  C   UNL     1       1.623   2.976  18.148  0.00  0.00    +0.000 C 
ATOM     19  C   UNL     1       2.356   5.259  17.939  0.00  0.00    +0.000 C 
ATOM     20  O   UNL     1       1.209   5.643  18.138  0.00  0.00    +0.000 OA
ENDBRANCH   3   9
BRANCH   6  21
ATOM     21  C   UNL     1      -0.319  10.573  19.441  0.00  0.00    +0.000 A 
ATOM     22  C   UNL     1      -1.499  10.556  18.689  0.00  0.00    +0.000 A 
ATOM     23  C   UNL     1      -2.426  11.595  18.806  0.00  0.00    +0.000 A 
ATOM     24  C   UNL     1      -2.159  12.679  19.640  0.00  0.00    +0.000 A 
ATOM     25  C   UNL     1      -0.964  12.728  20.357  0.00  0.00    +0.000 A 
ATOM     26  C   UNL     1      -0.052  11.674  20.264  0.00  0.00    +0.000 A 
ENDBRANCH   6  21
TORSDOF 2
ENDMDL
MODEL 8
REMARK VINA RESULT:      -6.1      3.876      7.336
REMARK  Name = 
REMARK  6 active torsions:
REMARK  status: ('A' for Active; 'I' for Inactive)
REMARK    1  A    between atoms: C_1  and  C_2
REMARK    2  A    between atoms: C_3  and  C_4
REMARK    3  A    between atoms: N_8  and  C_9
REMARK    4  A    between atoms: N_12  and  C_13
REMARK    5  A    between atoms: N_18  and  C_19
REMARK    6  A    between atoms: N_25  and  C_26
REMARK                            x       y       z     vdW  Elec       q    Type
REMARK                         _______ _______ _______ _____ _____    ______ ____
ROOT
ATOM      1  C   UNL     1       3.247  13.737  20.636  0.00  0.00    +0.000 C 
ATOM      2  C   UNL     1       1.986  14.086  19.912  0.00  0.00    +0.000 A 
ATOM      3  C   UNL     1       1.306  13.297  19.059  0.00  0.00    +0.000 A 
ATOM      4  C   UNL     1       0.026  14.031  18.782  0.00  0.00    +0.000 A 
ATOM      5  O   UNL     1      -0.852  13.608  18.042  0.00  0.00    +0.000 OA
ATOM      6  N   UNL     1       0.085  15.218  19.521  0.00  0.00    +0.000 N 
ATOM      7  N   UNL     1       1.363  15.325  20.111  0.00  0.00    +0.000 N 
ATOM      8  C   UNL     1       1.502  16.075  21.357  0.00  0.00    +0.000 C 
ENDROOT
BRANCH   3   9
ATOM      9  C   UNL     1       1.608  11.988  18.539  0.00  0.00    +0.000 C 
ATOM     10  C   UNL     1       1.368  10.808  19.153  0.00  0.00    +0.000 C 
ATOM     11  C   UNL     1       1.876   9.572  18.515  0.00  0.00    +0.000 C 
ATOM     12  O   UNL     1       2.321   9.589  17.367  0.00  0.00    +0.000 OA
ATOM     13  N   UNL     1       1.811   8.432  19.296  0.00  0.00    +0.000 N 
ATOM     14  C   UNL     1       2.339   7.187  18.754  0.00  0.00    +0.000 C 
ATOM     15  C   UNL     1       1.319   8.363  20.594  0.00  0.00    +0.000 C 
ATOM     16  O   UNL     1       1.357   7.309  21.235  0.00  0.00    +0.000 OA
ATOM     17  N   UNL     1       0.764   9.521  21.111  0.00  0.00    +0.000 N 
ATOM     18  C   UNL     1       0.164   9.476  22.435  0.00  0.00    +0.000 C 
ATOM     19  C   UNL     1       0.624  10.718  20.426  0.00  0.00    +0.000 C 
ATOM     20  O   UNL     1      -0.113  11.617  20.816  0.00  0.00    +0.000 OA
ENDBRANCH   3   9
BRANCH   6  21
ATOM     21  C   UNL     1      -0.799  16.304  19.380  0.00  0.00    +0.000 A 
ATOM     22  C   UNL     1      -0.578  17.244  18.368  0.00  0.00    +0.000 A 
ATOM     23  C   UNL     1      -1.509  18.259  18.131  0.00  0.00    +0.000 A 
ATOM     24  C   UNL     1      -2.643  18.368  18.934  0.00  0.00    +0.000 A 
ATOM     25  C   UNL     1      -2.848  17.465  19.976  0.00  0.00    +0.000 A 
ATOM     26  C   UNL     1      -1.933  16.431  20.192  0.00  0.00    +0.000 A 
ENDBRANCH   6  21
TORSDOF 2
ENDMDL
MODEL 9
REMARK VINA RESULT:      -6.1      3.194      4.731
REMARK  Name = 
REMARK  6 active torsions:
REMARK  status: ('A' for Active; 'I' for Inactive)
REMARK    1  A    between atoms: C_1  and  C_2
REMARK    2  A    between atoms: C_3  and  C_4
REMARK    3  A    between atoms: N_8  and  C_9
REMARK    4  A    between atoms: N_12  and  C_13
REMARK    5  A    between atoms: N_18  and  C_19
REMARK    6  A    between atoms: N_25  and  C_26
REMARK                            x       y       z     vdW  Elec       q    Type
REMARK                         _______ _______ _______ _____ _____    ______ ____
ROOT
ATOM      1  C   UNL     1      -2.694  12.349  19.345  0.00  0.00    +0.000 C 
ATOM      2  C   UNL     1      -1.432  11.698  19.816  0.00  0.00    +0.000 A 
ATOM      3  C   UNL     1      -0.813  11.908  20.991  0.00  0.00    +0.000 A 
ATOM      4  C   UNL     1       0.271  10.870  21.055  0.00  0.00    +0.000 A 
ATOM      5  O   UNL     1       1.045  10.754  21.995  0.00  0.00    +0.000 OA
ATOM      6  N   UNL     1       0.178  10.132  19.869  0.00  0.00    +0.000 N 
ATOM      7  N   UNL     1      -0.785  10.735  19.031  0.00  0.00    +0.000 N 
ATOM      8  C   UNL     1      -1.504   9.899  18.072  0.00  0.00    +0.000 C 
ENDROOT
BRANCH   3   9
ATOM      9  C   UNL     1      -1.100  12.832  22.058  0.00  0.00    +0.000 C 
ATOM     10  C   UNL     1      -0.552  14.056  22.228  0.00  0.00    +0.000 C 
ATOM     11  C   UNL     1      -0.875  14.801  23.466  0.00  0.00    +0.000 C 
ATOM     12  O   UNL     1      -1.770  14.418  24.220  0.00  0.00    +0.000 OA
ATOM     13  N   UNL     1      -0.108  15.930  23.696  0.00  0.00    +0.000 N 
ATOM     14  C   UNL     1      -0.334  16.687  24.919  0.00  0.00    +0.000 C 
ATOM     15  C   UNL     1       0.911  16.400  22.876  0.00  0.00    +0.000 C 
ATOM     16  O   UNL     1       1.582  17.386  23.195  0.00  0.00    +0.000 OA
ATOM     17  N   UNL     1       1.110  15.728  21.682  0.00  0.00    +0.000 N 
ATOM     18  C   UNL     1       2.111  16.232  20.756  0.00  0.00    +0.000 C 
ATOM     19  C   UNL     1       0.350  14.661  21.227  0.00  0.00    +0.000 C 
ATOM     20  O   UNL     1       0.380  14.283  20.062  0.00  0.00    +0.000 OA
ENDBRANCH   3   9
BRANCH   6  21
ATOM     21  C   UNL     1       1.139   9.211  19.411  0.00  0.00    +0.000 A 
ATOM     22  C   UNL     1       1.440   8.088  20.190  0.00  0.00    +0.000 A 
ATOM     23  C   UNL     1       2.298   7.098  19.700  0.00  0.00    +0.000 A 
ATOM     24  C   UNL     1       2.895   7.248  18.449  0.00  0.00    +0.000 A 
ATOM     25  C   UNL     1       2.638   8.387  17.687  0.00  0.00    +0.000 A 
ATOM     26  C   UNL     1       1.756   9.360  18.163  0.00  0.00    +0.000 A 
ENDBRANCH   6  21
TORSDOF 2
ENDMDL
