MODEL 1
REMARK VINA RESULT:      -5.8      0.000      0.000
REMARK  Name = 
REMARK  8 active torsions:
REMARK  status: ('A' for Active; 'I' for Inactive)
REMARK    1  A    between atoms: C_1  and  C_2
REMARK    2  A    between atoms: C_2  and  O_3
REMARK    3  A    between atoms: O_3  and  C_4
REMARK    4  A    between atoms: C_4  and  C_6
REMARK    5  A    between atoms: C_7  and  O_8
REMARK    6  A    between atoms: C_9  and  O_10
REMARK    7  A    between atoms: C_14  and  O_15
REMARK    8  A    between atoms: O_15  and  C_16
REMARK                            x       y       z     vdW  Elec       q    Type
REMARK                         _______ _______ _______ _____ _____    ______ ____
ROOT
ATOM      1  C   UNL     1       4.220   4.637  18.725  0.00  0.00    +0.000 A 
ATOM      2  C   UNL     1       3.710   5.948  18.720  0.00  0.00    +0.000 A 
ATOM      3  C   UNL     1       2.614   6.281  19.511  0.00  0.00    +0.000 A 
ATOM      4  C   UNL     1       2.032   5.343  20.343  0.00  0.00    +0.000 A 
ATOM      5  C   UNL     1       2.551   4.046  20.377  0.00  0.00    +0.000 A 
ATOM      6 BR   UNL     1       1.713   2.803  21.549  0.00  0.00    +0.000 Br
ATOM      7  C   UNL     1       3.649   3.670  19.571  0.00  0.00    +0.000 A 
ENDROOT
BRANCH   1   8
ATOM      8  C   UNL     1       5.275   4.369  17.734  0.00  0.00    +0.000 C 
ATOM      9  O   UNL     1       5.006   4.165  16.558  0.00  0.00    +0.000 OA
BRANCH   8  10
ATOM     10  O   UNL     1       6.456   4.143  18.346  0.00  0.00    +0.000 OA
BRANCH  10  12
ATOM     11  C   UNL     1       7.644   6.187  18.521  0.00  0.00    +0.000 C 
ATOM     12  C   UNL     1       7.575   4.856  17.802  0.00  0.00    +0.000 C 
ENDBRANCH  10  12
ENDBRANCH   8  10
ENDBRANCH   1   8
BRANCH   2  13
ATOM     13  O   UNL     1       4.197   6.965  17.930  0.00  0.00    +0.000 OA
ATOM     14  H   UNL     1       3.513   7.670  17.871  0.00  0.00    +0.000 HD
ENDBRANCH   2  13
BRANCH   3  15
ATOM     15  O   UNL     1       2.091   7.541  19.450  0.00  0.00    +0.000 OA
ATOM     16  H   UNL     1       1.851   7.669  18.509  0.00  0.00    +0.000 HD
ENDBRANCH   3  15
BRANCH   7  17
ATOM     17  O   UNL     1       4.006   2.347  19.602  0.00  0.00    +0.000 OA
ATOM     18  C   UNL     1       3.489   1.530  18.558  0.00  0.00    +0.000 C 
ENDBRANCH   7  17
TORSDOF 6
ENDMDL
MODEL 2
REMARK VINA RESULT:      -5.8      2.261      4.456
REMARK  Name = 
REMARK  8 active torsions:
REMARK  status: ('A' for Active; 'I' for Inactive)
REMARK    1  A    between atoms: C_1  and  C_2
REMARK    2  A    between atoms: C_2  and  O_3
REMARK    3  A    between atoms: O_3  and  C_4
REMARK    4  A    between atoms: C_4  and  C_6
REMARK    5  A    between atoms: C_7  and  O_8
REMARK    6  A    between atoms: C_9  and  O_10
REMARK    7  A    between atoms: C_14  and  O_15
REMARK    8  A    between atoms: O_15  and  C_16
REMARK                            x       y       z     vdW  Elec       q    Type
REMARK                         _______ _______ _______ _____ _____    ______ ____
ROOT
ATOM      1  C   UNL     1       4.297   4.668  18.405  0.00  0.00    +0.000 A 
ATOM      2  C   UNL     1       5.475   4.905  17.674  0.00  0.00    +0.000 A 
ATOM      3  C   UNL     1       5.658   6.110  17.003  0.00  0.00    +0.000 A 
ATOM      4  C   UNL     1       4.707   7.112  17.075  0.00  0.00    +0.000 A 
ATOM      5  C   UNL     1       3.547   6.897  17.824  0.00  0.00    +0.000 A 
ATOM      6 BR   UNL     1       2.280   8.315  17.892  0.00  0.00    +0.000 Br
ATOM      7  C   UNL     1       3.320   5.676  18.499  0.00  0.00    +0.000 A 
ENDROOT
BRANCH   1   8
ATOM      8  C   UNL     1       4.150   3.304  18.937  0.00  0.00    +0.000 C 
ATOM      9  O   UNL     1       4.944   2.849  19.750  0.00  0.00    +0.000 OA
BRANCH   8  10
ATOM     10  O   UNL     1       3.226   2.616  18.235  0.00  0.00    +0.000 OA
BRANCH  10  12
ATOM     11  C   UNL     1       0.914   2.430  18.721  0.00  0.00    +0.000 C 
ATOM     12  C   UNL     1       2.288   1.870  19.021  0.00  0.00    +0.000 C 
ENDBRANCH  10  12
ENDBRANCH   8  10
ENDBRANCH   1   8
BRANCH   2  13
ATOM     13  O   UNL     1       6.489   3.986  17.521  0.00  0.00    +0.000 OA
ATOM     14  H   UNL     1       6.380   3.283  18.201  0.00  0.00    +0.000 HD
ENDBRANCH   2  13
BRANCH   3  15
ATOM     15  O   UNL     1       6.779   6.303  16.246  0.00  0.00    +0.000 OA
ATOM     16  H   UNL     1       7.127   5.403  16.079  0.00  0.00    +0.000 HD
ENDBRANCH   3  15
BRANCH   7  17
ATOM     17  O   UNL     1       2.103   5.533  19.113  0.00  0.00    +0.000 OA
ATOM     18  C   UNL     1       2.104   5.589  20.535  0.00  0.00    +0.000 C 
ENDBRANCH   7  17
TORSDOF 6
ENDMDL
MODEL 3
REMARK VINA RESULT:      -5.8      1.749      3.535
REMARK  Name = 
REMARK  8 active torsions:
REMARK  status: ('A' for Active; 'I' for Inactive)
REMARK    1  A    between atoms: C_1  and  C_2
REMARK    2  A    between atoms: C_2  and  O_3
REMARK    3  A    between atoms: O_3  and  C_4
REMARK    4  A    between atoms: C_4  and  C_6
REMARK    5  A    between atoms: C_7  and  O_8
REMARK    6  A    between atoms: C_9  and  O_10
REMARK    7  A    between atoms: C_14  and  O_15
REMARK    8  A    between atoms: O_15  and  C_16
REMARK                            x       y       z     vdW  Elec       q    Type
REMARK                         _______ _______ _______ _____ _____    ______ ____
ROOT
ATOM      1  C   UNL     1       4.622   5.304  17.285  0.00  0.00    +0.000 A 
ATOM      2  C   UNL     1       4.746   3.913  17.105  0.00  0.00    +0.000 A 
ATOM      3  C   UNL     1       4.037   3.032  17.916  0.00  0.00    +0.000 A 
ATOM      4  C   UNL     1       3.169   3.504  18.883  0.00  0.00    +0.000 A 
ATOM      5  C   UNL     1       3.017   4.883  19.049  0.00  0.00    +0.000 A 
ATOM      6 BR   UNL     1       1.801   5.470  20.389  0.00  0.00    +0.000 Br
ATOM      7  C   UNL     1       3.738   5.805  18.256  0.00  0.00    +0.000 A 
ENDROOT
BRANCH   1   8
ATOM      8  C   UNL     1       5.537   6.126  16.477  0.00  0.00    +0.000 C 
ATOM      9  O   UNL     1       5.134   6.770  15.517  0.00  0.00    +0.000 OA
BRANCH   8  10
ATOM     10  O   UNL     1       6.821   5.858  16.791  0.00  0.00    +0.000 OA
BRANCH  10  12
ATOM     11  C   UNL     1       7.738   7.896  17.582  0.00  0.00    +0.000 C 
ATOM     12  C   UNL     1       7.310   6.499  17.977  0.00  0.00    +0.000 C 
ENDBRANCH  10  12
ENDBRANCH   8  10
ENDBRANCH   1   8
BRANCH   2  13
ATOM     13  O   UNL     1       5.582   3.324  16.184  0.00  0.00    +0.000 OA
ATOM     14  H   UNL     1       6.493   3.302  16.556  0.00  0.00    +0.000 HD
ENDBRANCH   2  13
BRANCH   3  15
ATOM     15  O   UNL     1       4.214   1.685  17.772  0.00  0.00    +0.000 OA
ATOM     16  H   UNL     1       5.095   1.505  18.160  0.00  0.00    +0.000 HD
ENDBRANCH   3  15
BRANCH   7  17
ATOM     17  O   UNL     1       3.594   7.130  18.576  0.00  0.00    +0.000 OA
ATOM     18  C   UNL     1       2.652   7.865  17.803  0.00  0.00    +0.000 C 
ENDBRANCH   7  17
TORSDOF 6
ENDMDL
MODEL 4
REMARK VINA RESULT:      -5.7      1.124      1.662
REMARK  Name = 
REMARK  8 active torsions:
REMARK  status: ('A' for Active; 'I' for Inactive)
REMARK    1  A    between atoms: C_1  and  C_2
REMARK    2  A    between atoms: C_2  and  O_3
REMARK    3  A    between atoms: O_3  and  C_4
REMARK    4  A    between atoms: C_4  and  C_6
REMARK    5  A    between atoms: C_7  and  O_8
REMARK    6  A    between atoms: C_9  and  O_10
REMARK    7  A    between atoms: C_14  and  O_15
REMARK    8  A    between atoms: O_15  and  C_16
REMARK                            x       y       z     vdW  Elec       q    Type
REMARK                         _______ _______ _______ _____ _____    ______ ____
ROOT
ATOM      1  C   UNL     1       4.491   4.670  18.682  0.00  0.00    +0.000 A 
ATOM      2  C   UNL     1       3.971   5.964  18.501  0.00  0.00    +0.000 A 
ATOM      3  C   UNL     1       2.778   6.337  19.115  0.00  0.00    +0.000 A 
ATOM      4  C   UNL     1       2.105   5.458  19.944  0.00  0.00    +0.000 A 
ATOM      5  C   UNL     1       2.630   4.181  20.154  0.00  0.00    +0.000 A 
ATOM      6 BR   UNL     1       1.664   3.021  21.312  0.00  0.00    +0.000 Br
ATOM      7  C   UNL     1       3.828   3.763  19.529  0.00  0.00    +0.000 A 
ENDROOT
BRANCH   1   8
ATOM      8  C   UNL     1       5.667   4.344  17.861  0.00  0.00    +0.000 C 
ATOM      9  O   UNL     1       6.791   4.307  18.345  0.00  0.00    +0.000 OA
BRANCH   8  10
ATOM     10  O   UNL     1       5.350   4.356  16.549  0.00  0.00    +0.000 OA
BRANCH  10  12
ATOM     11  C   UNL     1       5.919   4.072  14.266  0.00  0.00    +0.000 C 
ATOM     12  C   UNL     1       6.465   4.359  15.648  0.00  0.00    +0.000 C 
ENDBRANCH  10  12
ENDBRANCH   8  10
ENDBRANCH   1   8
BRANCH   2  13
ATOM     13  O   UNL     1       4.543   6.923  17.696  0.00  0.00    +0.000 OA
ATOM     14  H   UNL     1       4.730   6.522  16.817  0.00  0.00    +0.000 HD
ENDBRANCH   2  13
BRANCH   3  15
ATOM     15  O   UNL     1       2.252   7.576  18.881  0.00  0.00    +0.000 OA
ATOM     16  H   UNL     1       1.612   7.443  18.152  0.00  0.00    +0.000 HD
ENDBRANCH   3  15
BRANCH   7  17
ATOM     17  O   UNL     1       4.193   2.456  19.718  0.00  0.00    +0.000 OA
ATOM     18  C   UNL     1       3.713   1.523  18.757  0.00  0.00    +0.000 C 
ENDBRANCH   7  17
TORSDOF 6
ENDMDL
MODEL 5
REMARK VINA RESULT:      -5.5      1.641      2.115
REMARK  Name = 
REMARK  8 active torsions:
REMARK  status: ('A' for Active; 'I' for Inactive)
REMARK    1  A    between atoms: C_1  and  C_2
REMARK    2  A    between atoms: C_2  and  O_3
REMARK    3  A    between atoms: O_3  and  C_4
REMARK    4  A    between atoms: C_4  and  C_6
REMARK    5  A    between atoms: C_7  and  O_8
REMARK    6  A    between atoms: C_9  and  O_10
REMARK    7  A    between atoms: C_14  and  O_15
REMARK    8  A    between atoms: O_15  and  C_16
REMARK                            x       y       z     vdW  Elec       q    Type
REMARK                         _______ _______ _______ _____ _____    ______ ____
ROOT
ATOM      1  C   UNL     1       4.601   4.852  18.047  0.00  0.00    +0.000 A 
ATOM      2  C   UNL     1       4.383   6.221  17.801  0.00  0.00    +0.000 A 
ATOM      3  C   UNL     1       3.193   6.827  18.191  0.00  0.00    +0.000 A 
ATOM      4  C   UNL     1       2.221   6.108  18.863  0.00  0.00    +0.000 A 
ATOM      5  C   UNL     1       2.441   4.756  19.138  0.00  0.00    +0.000 A 
ATOM      6 BR   UNL     1       1.070   3.823  20.073  0.00  0.00    +0.000 Br
ATOM      7  C   UNL     1       3.629   4.105  18.736  0.00  0.00    +0.000 A 
ENDROOT
BRANCH   1   8
ATOM      8  C   UNL     1       5.824   4.292  17.450  0.00  0.00    +0.000 C 
ATOM      9  O   UNL     1       6.898   4.345  18.033  0.00  0.00    +0.000 OA
BRANCH   8  10
ATOM     10  O   UNL     1       5.620   3.980  16.153  0.00  0.00    +0.000 OA
BRANCH  10  12
ATOM     11  C   UNL     1       6.229   3.978  13.862  0.00  0.00    +0.000 C 
ATOM     12  C   UNL     1       6.677   4.353  15.259  0.00  0.00    +0.000 C 
ENDBRANCH  10  12
ENDBRANCH   8  10
ENDBRANCH   1   8
BRANCH   2  13
ATOM     13  O   UNL     1       5.269   7.038  17.136  0.00  0.00    +0.000 OA
ATOM     14  H   UNL     1       5.109   6.953  16.169  0.00  0.00    +0.000 HD
ENDBRANCH   2  13
BRANCH   3  15
ATOM     15  O   UNL     1       2.969   8.140  17.891  0.00  0.00    +0.000 OA
ATOM     16  H   UNL     1       2.493   8.498  18.668  0.00  0.00    +0.000 HD
ENDBRANCH   3  15
BRANCH   7  17
ATOM     17  O   UNL     1       3.694   2.754  18.961  0.00  0.00    +0.000 OA
ATOM     18  C   UNL     1       4.424   2.342  20.111  0.00  0.00    +0.000 C 
ENDBRANCH   7  17
TORSDOF 6
ENDMDL
MODEL 6
REMARK VINA RESULT:      -5.5      2.709      4.224
REMARK  Name = 
REMARK  8 active torsions:
REMARK  status: ('A' for Active; 'I' for Inactive)
REMARK    1  A    between atoms: C_1  and  C_2
REMARK    2  A    between atoms: C_2  and  O_3
REMARK    3  A    between atoms: O_3  and  C_4
REMARK    4  A    between atoms: C_4  and  C_6
REMARK    5  A    between atoms: C_7  and  O_8
REMARK    6  A    between atoms: C_9  and  O_10
REMARK    7  A    between atoms: C_14  and  O_15
REMARK    8  A    between atoms: O_15  and  C_16
REMARK                            x       y       z     vdW  Elec       q    Type
REMARK                         _______ _______ _______ _____ _____    ______ ____
ROOT
ATOM      1  C   UNL     1       4.908   4.480  16.955  0.00  0.00    +0.000 A 
ATOM      2  C   UNL     1       4.131   3.490  17.585  0.00  0.00    +0.000 A 
ATOM      3  C   UNL     1       3.009   3.842  18.330  0.00  0.00    +0.000 A 
ATOM      4  C   UNL     1       2.615   5.164  18.432  0.00  0.00    +0.000 A 
ATOM      5  C   UNL     1       3.363   6.150  17.785  0.00  0.00    +0.000 A 
ATOM      6 BR   UNL     1       2.765   7.949  17.955  0.00  0.00    +0.000 Br
ATOM      7  C   UNL     1       4.519   5.829  17.039  0.00  0.00    +0.000 A 
ENDROOT
BRANCH   1   8
ATOM      8  C   UNL     1       6.152   4.001  16.332  0.00  0.00    +0.000 C 
ATOM      9  O   UNL     1       7.247   4.271  16.809  0.00  0.00    +0.000 OA
BRANCH   8  10
ATOM     10  O   UNL     1       5.905   3.487  15.110  0.00  0.00    +0.000 OA
BRANCH  10  12
ATOM     11  C   UNL     1       6.001   3.531  12.742  0.00  0.00    +0.000 C 
ATOM     12  C   UNL     1       6.401   4.258  14.008  0.00  0.00    +0.000 C 
ENDBRANCH  10  12
ENDBRANCH   8  10
ENDBRANCH   1   8
BRANCH   2  13
ATOM     13  O   UNL     1       4.425   2.146  17.564  0.00  0.00    +0.000 OA
ATOM     14  H   UNL     1       4.138   1.748  18.417  0.00  0.00    +0.000 HD
ENDBRANCH   2  13
BRANCH   3  15
ATOM     15  O   UNL     1       2.300   2.877  18.987  0.00  0.00    +0.000 OA
ATOM     16  H   UNL     1       2.919   2.123  19.070  0.00  0.00    +0.000 HD
ENDBRANCH   3  15
BRANCH   7  17
ATOM     17  O   UNL     1       5.237   6.884  16.538  0.00  0.00    +0.000 OA
ATOM     18  C   UNL     1       6.332   7.332  17.328  0.00  0.00    +0.000 C 
ENDBRANCH   7  17
TORSDOF 6
ENDMDL
MODEL 7
REMARK VINA RESULT:      -5.5      2.253      4.101
REMARK  Name = 
REMARK  8 active torsions:
REMARK  status: ('A' for Active; 'I' for Inactive)
REMARK    1  A    between atoms: C_1  and  C_2
REMARK    2  A    between atoms: C_2  and  O_3
REMARK    3  A    between atoms: O_3  and  C_4
REMARK    4  A    between atoms: C_4  and  C_6
REMARK    5  A    between atoms: C_7  and  O_8
REMARK    6  A    between atoms: C_9  and  O_10
REMARK    7  A    between atoms: C_14  and  O_15
REMARK    8  A    between atoms: O_15  and  C_16
REMARK                            x       y       z     vdW  Elec       q    Type
REMARK                         _______ _______ _______ _____ _____    ______ ____
ROOT
ATOM      1  C   UNL     1       6.128   5.046  17.916  0.00  0.00    +0.000 A 
ATOM      2  C   UNL     1       6.604   4.518  16.702  0.00  0.00    +0.000 A 
ATOM      3  C   UNL     1       5.746   3.831  15.849  0.00  0.00    +0.000 A 
ATOM      4  C   UNL     1       4.405   3.689  16.157  0.00  0.00    +0.000 A 
ATOM      5  C   UNL     1       3.918   4.236  17.347  0.00  0.00    +0.000 A 
ATOM      6 BR   UNL     1       2.063   4.017  17.711  0.00  0.00    +0.000 Br
ATOM      7  C   UNL     1       4.767   4.922  18.246  0.00  0.00    +0.000 A 
ENDROOT
BRANCH   1   8
ATOM      8  C   UNL     1       7.158   5.611  18.803  0.00  0.00    +0.000 C 
ATOM      9  O   UNL     1       7.156   5.385  20.005  0.00  0.00    +0.000 OA
BRANCH   8  10
ATOM     10  O   UNL     1       7.880   6.550  18.156  0.00  0.00    +0.000 OA
BRANCH  10  12
ATOM     11  C   UNL     1       8.109   8.889  17.854  0.00  0.00    +0.000 C 
ATOM     12  C   UNL     1       7.152   7.720  17.763  0.00  0.00    +0.000 C 
ENDBRANCH  10  12
ENDBRANCH   8  10
ENDBRANCH   1   8
BRANCH   2  13
ATOM     13  O   UNL     1       7.914   4.587  16.288  0.00  0.00    +0.000 OA
ATOM     14  H   UNL     1       8.108   3.801  15.728  0.00  0.00    +0.000 HD
ENDBRANCH   2  13
BRANCH   3  15
ATOM     15  O   UNL     1       6.233   3.269  14.703  0.00  0.00    +0.000 OA
ATOM     16  H   UNL     1       5.554   2.619  14.433  0.00  0.00    +0.000 HD
ENDBRANCH   3  15
BRANCH   7  17
ATOM     17  O   UNL     1       4.207   5.323  19.431  0.00  0.00    +0.000 OA
ATOM     18  C   UNL     1       3.436   6.518  19.390  0.00  0.00    +0.000 C 
ENDBRANCH   7  17
TORSDOF 6
ENDMDL
MODEL 8
REMARK VINA RESULT:      -5.5      2.643      3.989
REMARK  Name = 
REMARK  8 active torsions:
REMARK  status: ('A' for Active; 'I' for Inactive)
REMARK    1  A    between atoms: C_1  and  C_2
REMARK    2  A    between atoms: C_2  and  O_3
REMARK    3  A    between atoms: O_3  and  C_4
REMARK    4  A    between atoms: C_4  and  C_6
REMARK    5  A    between atoms: C_7  and  O_8
REMARK    6  A    between atoms: C_9  and  O_10
REMARK    7  A    between atoms: C_14  and  O_15
REMARK    8  A    between atoms: O_15  and  C_16
REMARK                            x       y       z     vdW  Elec       q    Type
REMARK                         _______ _______ _______ _____ _____    ______ ____
ROOT
ATOM      1  C   UNL     1       5.746   5.292  16.668  0.00  0.00    +0.000 A 
ATOM      2  C   UNL     1       6.851   5.949  17.242  0.00  0.00    +0.000 A 
ATOM      3  C   UNL     1       7.166   5.756  18.584  0.00  0.00    +0.000 A 
ATOM      4  C   UNL     1       6.427   4.888  19.367  0.00  0.00    +0.000 A 
ATOM      5  C   UNL     1       5.347   4.208  18.798  0.00  0.00    +0.000 A 
ATOM      6 BR   UNL     1       4.375   3.020  19.922  0.00  0.00    +0.000 Br
ATOM      7  C   UNL     1       4.987   4.397  17.444  0.00  0.00    +0.000 A 
ENDROOT
BRANCH   1   8
ATOM      8  C   UNL     1       5.420   5.695  15.291  0.00  0.00    +0.000 C 
ATOM      9  O   UNL     1       5.123   6.850  15.020  0.00  0.00    +0.000 OA
BRANCH   8  10
ATOM     10  O   UNL     1       5.263   4.611  14.503  0.00  0.00    +0.000 OA
BRANCH  10  12
ATOM     11  C   UNL     1       6.133   3.503  12.597  0.00  0.00    +0.000 C 
ATOM     12  C   UNL     1       6.472   4.065  13.961  0.00  0.00    +0.000 C 
ENDBRANCH  10  12
ENDBRANCH   8  10
ENDBRANCH   1   8
BRANCH   2  13
ATOM     13  O   UNL     1       7.655   6.841  16.570  0.00  0.00    +0.000 OA
ATOM     14  H   UNL     1       7.333   6.917  15.644  0.00  0.00    +0.000 HD
ENDBRANCH   2  13
BRANCH   3  15
ATOM     15  O   UNL     1       8.202   6.448  19.144  0.00  0.00    +0.000 OA
ATOM     16  H   UNL     1       9.007   5.968  18.860  0.00  0.00    +0.000 HD
ENDBRANCH   3  15
BRANCH   7  17
ATOM     17  O   UNL     1       3.847   3.764  17.020  0.00  0.00    +0.000 OA
ATOM     18  C   UNL     1       2.615   4.368  17.397  0.00  0.00    +0.000 C 
ENDBRANCH   7  17
TORSDOF 6
ENDMDL
MODEL 9
REMARK VINA RESULT:      -5.5      2.417      4.007
REMARK  Name = 
REMARK  8 active torsions:
REMARK  status: ('A' for Active; 'I' for Inactive)
REMARK    1  A    between atoms: C_1  and  C_2
REMARK    2  A    between atoms: C_2  and  O_3
REMARK    3  A    between atoms: O_3  and  C_4
REMARK    4  A    between atoms: C_4  and  C_6
REMARK    5  A    between atoms: C_7  and  O_8
REMARK    6  A    between atoms: C_9  and  O_10
REMARK    7  A    between atoms: C_14  and  O_15
REMARK    8  A    between atoms: O_15  and  C_16
REMARK                            x       y       z     vdW  Elec       q    Type
REMARK                         _______ _______ _______ _____ _____    ______ ____
ROOT
ATOM      1  C   UNL     1       5.540   4.925  17.974  0.00  0.00    +0.000 A 
ATOM      2  C   UNL     1       4.883   4.049  18.858  0.00  0.00    +0.000 A 
ATOM      3  C   UNL     1       3.673   4.412  19.440  0.00  0.00    +0.000 A 
ATOM      4  C   UNL     1       3.073   5.619  19.132  0.00  0.00    +0.000 A 
ATOM      5  C   UNL     1       3.703   6.483  18.232  0.00  0.00    +0.000 A 
ATOM      6 BR   UNL     1       2.826   8.125  17.841  0.00  0.00    +0.000 Br
ATOM      7  C   UNL     1       4.944   6.154  17.640  0.00  0.00    +0.000 A 
ENDROOT
BRANCH   1   8
ATOM      8  C   UNL     1       6.883   4.499  17.548  0.00  0.00    +0.000 C 
ATOM      9  O   UNL     1       7.799   4.388  18.352  0.00  0.00    +0.000 OA
BRANCH   8  10
ATOM     10  O   UNL     1       6.981   4.511  16.203  0.00  0.00    +0.000 OA
BRANCH  10  12
ATOM     11  C   UNL     1       6.158   3.979  14.045  0.00  0.00    +0.000 C 
ATOM     12  C   UNL     1       6.094   3.621  15.514  0.00  0.00    +0.000 C 
ENDBRANCH  10  12
ENDBRANCH   8  10
ENDBRANCH   1   8
BRANCH   2  13
ATOM     13  O   UNL     1       5.381   2.826  19.248  0.00  0.00    +0.000 OA
ATOM     14  H   UNL     1       5.431   2.808  20.231  0.00  0.00    +0.000 HD
ENDBRANCH   2  13
BRANCH   3  15
ATOM     15  O   UNL     1       3.077   3.578  20.344  0.00  0.00    +0.000 OA
ATOM     16  H   UNL     1       2.563   2.946  19.802  0.00  0.00    +0.000 HD
ENDBRANCH   3  15
BRANCH   7  17
ATOM     17  O   UNL     1       5.524   7.119  16.858  0.00  0.00    +0.000 OA
ATOM     18  C   UNL     1       6.676   7.758  17.396  0.00  0.00    +0.000 C 
ENDBRANCH   7  17
TORSDOF 6
ENDMDL
