MODEL 1
REMARK VINA RESULT:      -8.0      0.000      0.000
REMARK  Name = 
REMARK  7 active torsions:
REMARK  status: ('A' for Active; 'I' for Inactive)
REMARK    1  A    between atoms: C_1  and  C_2
REMARK    2  A    between atoms: C_7  and  C_8
REMARK    3  A    between atoms: C_8  and  C_9
REMARK    4  A    between atoms: C_11  and  C_12
REMARK    5  A    between atoms: N_18  and  C_19
REMARK    6  A    between atoms: C_19  and  C_20
REMARK    7  A    between atoms: C_20  and  O_21
REMARK                            x       y       z     vdW  Elec       q    Type
REMARK                         _______ _______ _______ _____ _____    ______ ____
ROOT
ATOM      1  C   UNL     1       4.533   5.211  17.188  0.00  0.00    +0.000 A 
ATOM      2  N   UNL     1       4.675   4.881  15.915  0.00  0.00    +0.000 NA
ATOM      3  C   UNL     1       5.966   4.432  15.829  0.00  0.00    +0.000 A 
ATOM      4  N   UNL     1       6.639   4.467  16.982  0.00  0.00    +0.000 NA
ATOM      5  N   UNL     1       5.720   4.969  17.831  0.00  0.00    +0.000 N 
ENDROOT
BRANCH   3   6
ATOM      6  C   UNL     1       6.609   4.022  14.558  0.00  0.00    +0.000 C 
ATOM      7  C   UNL     1       5.665   3.642  13.440  0.00  0.00    +0.000 C 
ATOM      8  C   UNL     1       6.557   3.770  12.221  0.00  0.00    +0.000 C 
ATOM      9  O   UNL     1       7.528   4.787  12.508  0.00  0.00    +0.000 OA
ATOM     10  C   UNL     1       7.421   5.125  13.903  0.00  0.00    +0.000 C 
ENDBRANCH   3   6
BRANCH   1  11
ATOM     11  C   UNL     1       3.310   5.812  17.819  0.00  0.00    +0.000 C 
BRANCH  11  18
ATOM     12  C   UNL     1       1.982   6.343  20.547  0.00  0.00    +0.000 C 
ATOM     13  C   UNL     1       1.820   5.052  19.793  0.00  0.00    +0.000 A 
ATOM     14  C   UNL     1       1.033   4.045  20.386  0.00  0.00    +0.000 A 
ATOM     15  C   UNL     1       0.797   2.835  19.736  0.00  0.00    +0.000 A 
ATOM     16  C   UNL     1       1.345   2.612  18.481  0.00  0.00    +0.000 A 
ATOM     17  C   UNL     1       2.148   3.588  17.890  0.00  0.00    +0.000 A 
ATOM     18  C   UNL     1       2.423   4.809  18.540  0.00  0.00    +0.000 A 
ENDBRANCH  11  18
ENDBRANCH   1  11
BRANCH   5  19
ATOM     19  C   UNL     1       6.106   5.234  19.200  0.00  0.00    +0.000 C 
BRANCH  19  20
ATOM     20  C   UNL     1       7.544   5.728  19.313  0.00  0.00    +0.000 C 
BRANCH  20  21
ATOM     21  O   UNL     1       8.083   5.443  20.602  0.00  0.00    +0.000 OA
ATOM     22  H   UNL     1       8.944   5.900  20.654  0.00  0.00    +0.000 HD
ENDBRANCH  20  21
ENDBRANCH  19  20
ENDBRANCH   5  19
TORSDOF 6
ENDMDL
MODEL 2
REMARK VINA RESULT:      -7.6      0.737      1.662
REMARK  Name = 
REMARK  7 active torsions:
REMARK  status: ('A' for Active; 'I' for Inactive)
REMARK    1  A    between atoms: C_1  and  C_2
REMARK    2  A    between atoms: C_7  and  C_8
REMARK    3  A    between atoms: C_8  and  C_9
REMARK    4  A    between atoms: C_11  and  C_12
REMARK    5  A    between atoms: N_18  and  C_19
REMARK    6  A    between atoms: C_19  and  C_20
REMARK    7  A    between atoms: C_20  and  O_21
REMARK                            x       y       z     vdW  Elec       q    Type
REMARK                         _______ _______ _______ _____ _____    ______ ____
ROOT
ATOM      1  C   UNL     1       4.396   4.941  17.313  0.00  0.00    +0.000 A 
ATOM      2  N   UNL     1       4.531   4.554  16.055  0.00  0.00    +0.000 NA
ATOM      3  C   UNL     1       5.874   4.321  15.921  0.00  0.00    +0.000 A 
ATOM      4  N   UNL     1       6.586   4.544  17.029  0.00  0.00    +0.000 NA
ATOM      5  N   UNL     1       5.636   4.944  17.899  0.00  0.00    +0.000 N 
ENDROOT
BRANCH   3   6
ATOM      6  C   UNL     1       6.516   3.938  14.641  0.00  0.00    +0.000 C 
ATOM      7  C   UNL     1       5.571   3.615  13.506  0.00  0.00    +0.000 C 
ATOM      8  C   UNL     1       6.473   3.763  12.297  0.00  0.00    +0.000 C 
ATOM      9  O   UNL     1       7.465   4.748  12.622  0.00  0.00    +0.000 OA
ATOM     10  C   UNL     1       7.356   5.043  14.026  0.00  0.00    +0.000 C 
ENDBRANCH   3   6
BRANCH   1  11
ATOM     11  C   UNL     1       3.120   5.373  17.978  0.00  0.00    +0.000 C 
BRANCH  11  18
ATOM     12  C   UNL     1       2.362   2.427  17.498  0.00  0.00    +0.000 C 
ATOM     13  C   UNL     1       2.286   3.085  18.849  0.00  0.00    +0.000 A 
ATOM     14  C   UNL     1       1.830   2.304  19.930  0.00  0.00    +0.000 A 
ATOM     15  C   UNL     1       1.769   2.824  21.222  0.00  0.00    +0.000 A 
ATOM     16  C   UNL     1       2.165   4.133  21.454  0.00  0.00    +0.000 A 
ATOM     17  C   UNL     1       2.595   4.928  20.392  0.00  0.00    +0.000 A 
ATOM     18  C   UNL     1       2.639   4.434  19.072  0.00  0.00    +0.000 A 
ENDBRANCH  11  18
ENDBRANCH   1  11
BRANCH   5  19
ATOM     19  C   UNL     1       6.036   5.361  19.225  0.00  0.00    +0.000 C 
BRANCH  19  20
ATOM     20  C   UNL     1       7.521   5.699  19.304  0.00  0.00    +0.000 C 
BRANCH  20  21
ATOM     21  O   UNL     1       8.044   5.407  20.598  0.00  0.00    +0.000 OA
ATOM     22  H   UNL     1       8.652   6.135  20.826  0.00  0.00    +0.000 HD
ENDBRANCH  20  21
ENDBRANCH  19  20
ENDBRANCH   5  19
TORSDOF 6
ENDMDL
MODEL 3
REMARK VINA RESULT:      -7.5      1.542      1.787
REMARK  Name = 
REMARK  7 active torsions:
REMARK  status: ('A' for Active; 'I' for Inactive)
REMARK    1  A    between atoms: C_1  and  C_2
REMARK    2  A    between atoms: C_7  and  C_8
REMARK    3  A    between atoms: C_8  and  C_9
REMARK    4  A    between atoms: C_11  and  C_12
REMARK    5  A    between atoms: N_18  and  C_19
REMARK    6  A    between atoms: C_19  and  C_20
REMARK    7  A    between atoms: C_20  and  O_21
REMARK                            x       y       z     vdW  Elec       q    Type
REMARK                         _______ _______ _______ _____ _____    ______ ____
ROOT
ATOM      1  C   UNL     1       5.401   6.243  16.588  0.00  0.00    +0.000 A 
ATOM      2  N   UNL     1       5.204   5.459  15.540  0.00  0.00    +0.000 NA
ATOM      3  C   UNL     1       6.459   5.021  15.211  0.00  0.00    +0.000 A 
ATOM      4  N   UNL     1       7.431   5.492  15.996  0.00  0.00    +0.000 NA
ATOM      5  N   UNL     1       6.746   6.270  16.858  0.00  0.00    +0.000 N 
ENDROOT
BRANCH   3   6
ATOM      6  C   UNL     1       6.748   4.168  14.034  0.00  0.00    +0.000 C 
ATOM      7  C   UNL     1       5.538   3.644  13.293  0.00  0.00    +0.000 C 
ATOM      8  C   UNL     1       6.131   3.274  11.948  0.00  0.00    +0.000 C 
ATOM      9  O   UNL     1       7.236   4.158  11.711  0.00  0.00    +0.000 OA
ATOM     10  C   UNL     1       7.488   4.892  12.924  0.00  0.00    +0.000 C 
ENDBRANCH   3   6
BRANCH   1  11
ATOM     11  C   UNL     1       4.352   7.029  17.320  0.00  0.00    +0.000 C 
BRANCH  11  18
ATOM     12  C   UNL     1       1.990   8.131  18.962  0.00  0.00    +0.000 C 
ATOM     13  C   UNL     1       2.582   6.767  19.189  0.00  0.00    +0.000 A 
ATOM     14  C   UNL     1       2.026   5.978  20.216  0.00  0.00    +0.000 A 
ATOM     15  C   UNL     1       2.487   4.686  20.464  0.00  0.00    +0.000 A 
ATOM     16  C   UNL     1       3.512   4.162  19.689  0.00  0.00    +0.000 A 
ATOM     17  C   UNL     1       4.091   4.938  18.686  0.00  0.00    +0.000 A 
ATOM     18  C   UNL     1       3.661   6.258  18.434  0.00  0.00    +0.000 A 
ENDBRANCH  11  18
ENDBRANCH   1  11
BRANCH   5  19
ATOM     19  C   UNL     1       7.480   7.034  17.844  0.00  0.00    +0.000 C 
BRANCH  19  20
ATOM     20  C   UNL     1       7.903   6.186  19.038  0.00  0.00    +0.000 C 
BRANCH  20  21
ATOM     21  O   UNL     1       7.857   4.797  18.721  0.00  0.00    +0.000 OA
ATOM     22  H   UNL     1       8.042   4.314  19.549  0.00  0.00    +0.000 HD
ENDBRANCH  20  21
ENDBRANCH  19  20
ENDBRANCH   5  19
TORSDOF 6
ENDMDL
MODEL 4
REMARK VINA RESULT:      -7.4      2.819      4.345
REMARK  Name = 
REMARK  7 active torsions:
REMARK  status: ('A' for Active; 'I' for Inactive)
REMARK    1  A    between atoms: C_1  and  C_2
REMARK    2  A    between atoms: C_7  and  C_8
REMARK    3  A    between atoms: C_8  and  C_9
REMARK    4  A    between atoms: C_11  and  C_12
REMARK    5  A    between atoms: N_18  and  C_19
REMARK    6  A    between atoms: C_19  and  C_20
REMARK    7  A    between atoms: C_20  and  O_21
REMARK                            x       y       z     vdW  Elec       q    Type
REMARK                         _______ _______ _______ _____ _____    ______ ____
ROOT
ATOM      1  C   UNL     1       3.221   5.492  18.880  0.00  0.00    +0.000 A 
ATOM      2  N   UNL     1       4.382   5.608  18.255  0.00  0.00    +0.000 NA
ATOM      3  C   UNL     1       4.401   4.549  17.387  0.00  0.00    +0.000 A 
ATOM      4  N   UNL     1       3.313   3.776  17.437  0.00  0.00    +0.000 NA
ATOM      5  N   UNL     1       2.579   4.382  18.392  0.00  0.00    +0.000 N 
ENDROOT
BRANCH   3   6
ATOM      6  C   UNL     1       5.557   4.220  16.520  0.00  0.00    +0.000 C 
ATOM      7  C   UNL     1       5.633   4.980  15.215  0.00  0.00    +0.000 C 
ATOM      8  C   UNL     1       7.090   4.806  14.836  0.00  0.00    +0.000 C 
ATOM      9  O   UNL     1       7.837   4.689  16.056  0.00  0.00    +0.000 OA
ATOM     10  C   UNL     1       6.900   4.558  17.141  0.00  0.00    +0.000 C 
ENDBRANCH   3   6
BRANCH   1  11
ATOM     11  C   UNL     1       2.712   6.376  19.982  0.00  0.00    +0.000 C 
BRANCH  11  18
ATOM     12  C   UNL     1       1.124   8.297  21.791  0.00  0.00    +0.000 C 
ATOM     13  C   UNL     1       1.367   8.558  20.330  0.00  0.00    +0.000 A 
ATOM     14  C   UNL     1       0.821   9.735  19.779  0.00  0.00    +0.000 A 
ATOM     15  C   UNL     1       1.035  10.073  18.444  0.00  0.00    +0.000 A 
ATOM     16  C   UNL     1       1.799   9.241  17.638  0.00  0.00    +0.000 A 
ATOM     17  C   UNL     1       2.325   8.060  18.160  0.00  0.00    +0.000 A 
ATOM     18  C   UNL     1       2.100   7.682  19.501  0.00  0.00    +0.000 A 
ENDBRANCH  11  18
ENDBRANCH   1  11
BRANCH   5  19
ATOM     19  C   UNL     1       1.328   3.780  18.797  0.00  0.00    +0.000 C 
BRANCH  19  20
ATOM     20  C   UNL     1       1.519   2.395  19.406  0.00  0.00    +0.000 C 
BRANCH  20  21
ATOM     21  O   UNL     1       1.913   1.450  18.414  0.00  0.00    +0.000 OA
ATOM     22  H   UNL     1       1.389   0.642  18.572  0.00  0.00    +0.000 HD
ENDBRANCH  20  21
ENDBRANCH  19  20
ENDBRANCH   5  19
TORSDOF 6
ENDMDL
MODEL 5
REMARK VINA RESULT:      -7.4      1.554      1.908
REMARK  Name = 
REMARK  7 active torsions:
REMARK  status: ('A' for Active; 'I' for Inactive)
REMARK    1  A    between atoms: C_1  and  C_2
REMARK    2  A    between atoms: C_7  and  C_8
REMARK    3  A    between atoms: C_8  and  C_9
REMARK    4  A    between atoms: C_11  and  C_12
REMARK    5  A    between atoms: N_18  and  C_19
REMARK    6  A    between atoms: C_19  and  C_20
REMARK    7  A    between atoms: C_20  and  O_21
REMARK                            x       y       z     vdW  Elec       q    Type
REMARK                         _______ _______ _______ _____ _____    ______ ____
ROOT
ATOM      1  C   UNL     1       5.600   4.759  17.612  0.00  0.00    +0.000 A 
ATOM      2  N   UNL     1       5.320   4.234  16.430  0.00  0.00    +0.000 NA
ATOM      3  C   UNL     1       6.520   4.242  15.769  0.00  0.00    +0.000 A 
ATOM      4  N   UNL     1       7.535   4.747  16.474  0.00  0.00    +0.000 NA
ATOM      5  N   UNL     1       6.935   5.077  17.636  0.00  0.00    +0.000 N 
ENDROOT
BRANCH   3   6
ATOM      6  C   UNL     1       6.682   3.813  14.359  0.00  0.00    +0.000 C 
ATOM      7  C   UNL     1       5.405   3.705  13.557  0.00  0.00    +0.000 C 
ATOM      8  C   UNL     1       5.925   3.752  12.134  0.00  0.00    +0.000 C 
ATOM      9  O   UNL     1       7.125   4.540  12.144  0.00  0.00    +0.000 OA
ATOM     10  C   UNL     1       7.485   4.787  13.515  0.00  0.00    +0.000 C 
ENDBRANCH   3   6
BRANCH   1  11
ATOM     11  C   UNL     1       4.622   5.031  18.718  0.00  0.00    +0.000 C 
BRANCH  11  18
ATOM     12  C   UNL     1       4.488   2.284  20.105  0.00  0.00    +0.000 C 
ATOM     13  C   UNL     1       3.339   2.870  19.332  0.00  0.00    +0.000 A 
ATOM     14  C   UNL     1       2.159   2.105  19.237  0.00  0.00    +0.000 A 
ATOM     15  C   UNL     1       1.033   2.592  18.574  0.00  0.00    +0.000 A 
ATOM     16  C   UNL     1       1.068   3.853  17.998  0.00  0.00    +0.000 A 
ATOM     17  C   UNL     1       2.236   4.614  18.060  0.00  0.00    +0.000 A 
ATOM     18  C   UNL     1       3.396   4.132  18.701  0.00  0.00    +0.000 A 
ENDBRANCH  11  18
ENDBRANCH   1  11
BRANCH   5  19
ATOM     19  C   UNL     1       7.713   5.742  18.659  0.00  0.00    +0.000 C 
BRANCH  19  20
ATOM     20  C   UNL     1       7.956   7.213  18.338  0.00  0.00    +0.000 C 
BRANCH  20  21
ATOM     21  O   UNL     1       7.663   7.494  16.972  0.00  0.00    +0.000 OA
ATOM     22  H   UNL     1       7.079   6.778  16.657  0.00  0.00    +0.000 HD
ENDBRANCH  20  21
ENDBRANCH  19  20
ENDBRANCH   5  19
TORSDOF 6
ENDMDL
MODEL 6
REMARK VINA RESULT:      -7.3      1.620      2.030
REMARK  Name = 
REMARK  7 active torsions:
REMARK  status: ('A' for Active; 'I' for Inactive)
REMARK    1  A    between atoms: C_1  and  C_2
REMARK    2  A    between atoms: C_7  and  C_8
REMARK    3  A    between atoms: C_8  and  C_9
REMARK    4  A    between atoms: C_11  and  C_12
REMARK    5  A    between atoms: N_18  and  C_19
REMARK    6  A    between atoms: C_19  and  C_20
REMARK    7  A    between atoms: C_20  and  O_21
REMARK                            x       y       z     vdW  Elec       q    Type
REMARK                         _______ _______ _______ _____ _____    ______ ____
ROOT
ATOM      1  C   UNL     1       5.844   5.034  17.613  0.00  0.00    +0.000 A 
ATOM      2  N   UNL     1       5.444   4.655  16.411  0.00  0.00    +0.000 NA
ATOM      3  C   UNL     1       6.427   5.110  15.573  0.00  0.00    +0.000 A 
ATOM      4  N   UNL     1       7.420   5.756  16.189  0.00  0.00    +0.000 NA
ATOM      5  N   UNL     1       7.032   5.706  17.479  0.00  0.00    +0.000 N 
ENDROOT
BRANCH   3   6
ATOM      6  C   UNL     1       6.370   4.985  14.097  0.00  0.00    +0.000 C 
ATOM      7  C   UNL     1       7.694   5.116  13.379  0.00  0.00    +0.000 C 
ATOM      8  C   UNL     1       7.390   4.468  12.043  0.00  0.00    +0.000 C 
ATOM      9  O   UNL     1       6.386   3.468  12.272  0.00  0.00    +0.000 OA
ATOM     10  C   UNL     1       5.904   3.622  13.619  0.00  0.00    +0.000 C 
ENDBRANCH   3   6
BRANCH   1  11
ATOM     11  C   UNL     1       5.101   4.831  18.903  0.00  0.00    +0.000 C 
BRANCH  11  18
ATOM     12  C   UNL     1       2.425   6.173  18.181  0.00  0.00    +0.000 C 
ATOM     13  C   UNL     1       2.562   4.696  18.428  0.00  0.00    +0.000 A 
ATOM     14  C   UNL     1       1.396   3.909  18.335  0.00  0.00    +0.000 A 
ATOM     15  C   UNL     1       1.443   2.526  18.508  0.00  0.00    +0.000 A 
ATOM     16  C   UNL     1       2.655   1.908  18.776  0.00  0.00    +0.000 A 
ATOM     17  C   UNL     1       3.815   2.675  18.897  0.00  0.00    +0.000 A 
ATOM     18  C   UNL     1       3.789   4.078  18.753  0.00  0.00    +0.000 A 
ENDBRANCH  11  18
ENDBRANCH   1  11
BRANCH   5  19
ATOM     19  C   UNL     1       7.833   6.384  18.476  0.00  0.00    +0.000 C 
BRANCH  19  20
ATOM     20  C   UNL     1       8.108   7.838  18.109  0.00  0.00    +0.000 C 
BRANCH  20  21
ATOM     21  O   UNL     1       7.109   8.340  17.224  0.00  0.00    +0.000 OA
ATOM     22  H   UNL     1       6.710   9.115  17.662  0.00  0.00    +0.000 HD
ENDBRANCH  20  21
ENDBRANCH  19  20
ENDBRANCH   5  19
TORSDOF 6
ENDMDL
MODEL 7
REMARK VINA RESULT:      -7.3      1.550      1.600
REMARK  Name = 
REMARK  7 active torsions:
REMARK  status: ('A' for Active; 'I' for Inactive)
REMARK    1  A    between atoms: C_1  and  C_2
REMARK    2  A    between atoms: C_7  and  C_8
REMARK    3  A    between atoms: C_8  and  C_9
REMARK    4  A    between atoms: C_11  and  C_12
REMARK    5  A    between atoms: N_18  and  C_19
REMARK    6  A    between atoms: C_19  and  C_20
REMARK    7  A    between atoms: C_20  and  O_21
REMARK                            x       y       z     vdW  Elec       q    Type
REMARK                         _______ _______ _______ _____ _____    ______ ____
ROOT
ATOM      1  C   UNL     1       5.235   5.303  17.454  0.00  0.00    +0.000 A 
ATOM      2  N   UNL     1       5.025   4.740  16.276  0.00  0.00    +0.000 NA
ATOM      3  C   UNL     1       6.282   4.474  15.804  0.00  0.00    +0.000 A 
ATOM      4  N   UNL     1       7.268   4.843  16.626  0.00  0.00    +0.000 NA
ATOM      5  N   UNL     1       6.589   5.373  17.663  0.00  0.00    +0.000 N 
ENDROOT
BRANCH   3   6
ATOM      6  C   UNL     1       6.553   3.906  14.462  0.00  0.00    +0.000 C 
ATOM      7  C   UNL     1       5.340   3.697  13.584  0.00  0.00    +0.000 C 
ATOM      8  C   UNL     1       5.964   3.607  12.205  0.00  0.00    +0.000 C 
ATOM      9  O   UNL     1       7.153   4.409  12.222  0.00  0.00    +0.000 OA
ATOM     10  C   UNL     1       7.408   4.800  13.583  0.00  0.00    +0.000 C 
ENDBRANCH   3   6
BRANCH   1  11
ATOM     11  C   UNL     1       4.184   5.840  18.383  0.00  0.00    +0.000 C 
BRANCH  11  18
ATOM     12  C   UNL     1       1.858   6.395  20.325  0.00  0.00    +0.000 C 
ATOM     13  C   UNL     1       2.572   5.073  20.256  0.00  0.00    +0.000 A 
ATOM     14  C   UNL     1       2.154   4.058  21.139  0.00  0.00    +0.000 A 
ATOM     15  C   UNL     1       2.734   2.791  21.112  0.00  0.00    +0.000 A 
ATOM     16  C   UNL     1       3.742   2.517  20.199  0.00  0.00    +0.000 A 
ATOM     17  C   UNL     1       4.187   3.517  19.335  0.00  0.00    +0.000 A 
ATOM     18  C   UNL     1       3.635   4.815  19.362  0.00  0.00    +0.000 A 
ENDBRANCH  11  18
ENDBRANCH   1  11
BRANCH   5  19
ATOM     19  C   UNL     1       7.331   5.968  18.752  0.00  0.00    +0.000 C 
BRANCH  19  20
ATOM     20  C   UNL     1       8.058   7.242  18.333  0.00  0.00    +0.000 C 
BRANCH  20  21
ATOM     21  O   UNL     1       7.557   7.731  17.090  0.00  0.00    +0.000 OA
ATOM     22  H   UNL     1       6.668   7.343  16.975  0.00  0.00    +0.000 HD
ENDBRANCH  20  21
ENDBRANCH  19  20
ENDBRANCH   5  19
TORSDOF 6
ENDMDL
MODEL 8
REMARK VINA RESULT:      -7.3      1.204      1.646
REMARK  Name = 
REMARK  7 active torsions:
REMARK  status: ('A' for Active; 'I' for Inactive)
REMARK    1  A    between atoms: C_1  and  C_2
REMARK    2  A    between atoms: C_7  and  C_8
REMARK    3  A    between atoms: C_8  and  C_9
REMARK    4  A    between atoms: C_11  and  C_12
REMARK    5  A    between atoms: N_18  and  C_19
REMARK    6  A    between atoms: C_19  and  C_20
REMARK    7  A    between atoms: C_20  and  O_21
REMARK                            x       y       z     vdW  Elec       q    Type
REMARK                         _______ _______ _______ _____ _____    ______ ____
ROOT
ATOM      1  C   UNL     1       5.783   4.622  17.513  0.00  0.00    +0.000 A 
ATOM      2  N   UNL     1       5.294   4.657  16.284  0.00  0.00    +0.000 NA
ATOM      3  C   UNL     1       6.405   4.677  15.483  0.00  0.00    +0.000 A 
ATOM      4  N   UNL     1       7.563   4.658  16.148  0.00  0.00    +0.000 NA
ATOM      5  N   UNL     1       7.152   4.630  17.432  0.00  0.00    +0.000 N 
ENDROOT
BRANCH   3   6
ATOM      6  C   UNL     1       6.350   4.799  14.007  0.00  0.00    +0.000 C 
ATOM      7  C   UNL     1       7.668   5.094  13.326  0.00  0.00    +0.000 C 
ATOM      8  C   UNL     1       7.384   4.669  11.900  0.00  0.00    +0.000 C 
ATOM      9  O   UNL     1       6.416   3.610  11.954  0.00  0.00    +0.000 OA
ATOM     10  C   UNL     1       5.931   3.520  13.306  0.00  0.00    +0.000 C 
ENDBRANCH   3   6
BRANCH   1  11
ATOM     11  C   UNL     1       4.988   4.638  18.787  0.00  0.00    +0.000 C 
BRANCH  11  18
ATOM     12  C   UNL     1       2.320   6.048  18.165  0.00  0.00    +0.000 C 
ATOM     13  C   UNL     1       2.428   4.569  18.417  0.00  0.00    +0.000 A 
ATOM     14  C   UNL     1       1.240   3.812  18.377  0.00  0.00    +0.000 A 
ATOM     15  C   UNL     1       1.257   2.430  18.557  0.00  0.00    +0.000 A 
ATOM     16  C   UNL     1       2.463   1.781  18.780  0.00  0.00    +0.000 A 
ATOM     17  C   UNL     1       3.646   2.517  18.848  0.00  0.00    +0.000 A 
ATOM     18  C   UNL     1       3.651   3.920  18.696  0.00  0.00    +0.000 A 
ENDBRANCH  11  18
ENDBRANCH   1  11
BRANCH   5  19
ATOM     19  C   UNL     1       8.145   4.681  18.483  0.00  0.00    +0.000 C 
BRANCH  19  20
ATOM     20  C   UNL     1       7.931   5.860  19.427  0.00  0.00    +0.000 C 
BRANCH  20  21
ATOM     21  O   UNL     1       8.154   5.477  20.782  0.00  0.00    +0.000 OA
ATOM     22  H   UNL     1       7.570   4.714  20.958  0.00  0.00    +0.000 HD
ENDBRANCH  20  21
ENDBRANCH  19  20
ENDBRANCH   5  19
TORSDOF 6
ENDMDL
MODEL 9
REMARK VINA RESULT:      -7.2      1.469      1.763
REMARK  Name = 
REMARK  7 active torsions:
REMARK  status: ('A' for Active; 'I' for Inactive)
REMARK    1  A    between atoms: C_1  and  C_2
REMARK    2  A    between atoms: C_7  and  C_8
REMARK    3  A    between atoms: C_8  and  C_9
REMARK    4  A    between atoms: C_11  and  C_12
REMARK    5  A    between atoms: N_18  and  C_19
REMARK    6  A    between atoms: C_19  and  C_20
REMARK    7  A    between atoms: C_20  and  O_21
REMARK                            x       y       z     vdW  Elec       q    Type
REMARK                         _______ _______ _______ _____ _____    ______ ____
ROOT
ATOM      1  C   UNL     1       5.847   4.918  17.439  0.00  0.00    +0.000 A 
ATOM      2  N   UNL     1       5.979   4.004  16.492  0.00  0.00    +0.000 NA
ATOM      3  C   UNL     1       6.618   4.664  15.477  0.00  0.00    +0.000 A 
ATOM      4  N   UNL     1       6.890   5.945  15.738  0.00  0.00    +0.000 NA
ATOM      5  N   UNL     1       6.389   6.093  16.981  0.00  0.00    +0.000 N 
ENDROOT
BRANCH   3   6
ATOM      6  C   UNL     1       6.913   4.054  14.159  0.00  0.00    +0.000 C 
ATOM      7  C   UNL     1       5.708   3.615  13.357  0.00  0.00    +0.000 C 
ATOM      8  C   UNL     1       6.281   3.525  11.956  0.00  0.00    +0.000 C 
ATOM      9  O   UNL     1       7.339   4.491  11.865  0.00  0.00    +0.000 OA
ATOM     10  C   UNL     1       7.590   5.003  13.186  0.00  0.00    +0.000 C 
ENDBRANCH   3   6
BRANCH   1  11
ATOM     11  C   UNL     1       5.161   4.735  18.762  0.00  0.00    +0.000 C 
BRANCH  11  18
ATOM     12  C   UNL     1       2.519   6.167  18.087  0.00  0.00    +0.000 C 
ATOM     13  C   UNL     1       2.604   4.693  18.371  0.00  0.00    +0.000 A 
ATOM     14  C   UNL     1       1.406   3.951  18.337  0.00  0.00    +0.000 A 
ATOM     15  C   UNL     1       1.402   2.574  18.547  0.00  0.00    +0.000 A 
ATOM     16  C   UNL     1       2.597   1.913  18.794  0.00  0.00    +0.000 A 
ATOM     17  C   UNL     1       3.790   2.634  18.857  0.00  0.00    +0.000 A 
ATOM     18  C   UNL     1       3.815   4.033  18.675  0.00  0.00    +0.000 A 
ENDBRANCH  11  18
ENDBRANCH   1  11
BRANCH   5  19
ATOM     19  C   UNL     1       6.425   7.401  17.598  0.00  0.00    +0.000 C 
BRANCH  19  20
ATOM     20  C   UNL     1       7.842   7.953  17.707  0.00  0.00    +0.000 C 
BRANCH  20  21
ATOM     21  O   UNL     1       8.508   7.428  18.853  0.00  0.00    +0.000 OA
ATOM     22  H   UNL     1       8.678   8.183  19.448  0.00  0.00    +0.000 HD
ENDBRANCH  20  21
ENDBRANCH  19  20
ENDBRANCH   5  19
TORSDOF 6
ENDMDL
