MODEL 1
REMARK VINA RESULT:      -7.3      0.000      0.000
REMARK  Name = 
REMARK  6 active torsions:
REMARK  status: ('A' for Active; 'I' for Inactive)
REMARK    1  A    between atoms: C_1  and  C_2
REMARK    2  A    between atoms: C_3  and  N_4
REMARK    3  A    between atoms: N_7  and  C_8
REMARK    4  A    between atoms: C_12  and  C_13
REMARK    5  A    between atoms: N_18  and  C_19
REMARK    6  A    between atoms: N_25  and  C_26
REMARK                            x       y       z     vdW  Elec       q    Type
REMARK                         _______ _______ _______ _____ _____    ______ ____
ROOT
ATOM      1  C   UNL     1       7.695   5.516  15.354  0.00  0.00    +0.000 C 
ATOM      2  C   UNL     1       6.827   5.271  16.549  0.00  0.00    +0.000 A 
ATOM      3  C   UNL     1       6.883   5.831  17.784  0.00  0.00    +0.000 A 
ATOM      4  C   UNL     1       5.571   5.437  18.434  0.00  0.00    +0.000 A 
ATOM      5  O   UNL     1       5.272   5.769  19.569  0.00  0.00    +0.000 OA
ATOM      6  N   UNL     1       4.888   4.628  17.513  0.00  0.00    +0.000 N 
ATOM      7  N   UNL     1       5.720   4.418  16.400  0.00  0.00    +0.000 N 
ATOM      8  C   UNL     1       5.124   4.137  15.095  0.00  0.00    +0.000 C 
ENDROOT
BRANCH   3   9
ATOM      9  N   UNL     1       7.806   6.623  18.437  0.00  0.00    +0.000 N 
ATOM     10  C   UNL     1       7.912   7.999  18.341  0.00  0.00    +0.000 C 
ATOM     11  O   UNL     1       7.158   8.716  17.684  0.00  0.00    +0.000 OA
ATOM     12  N   UNL     1       9.020   8.515  19.009  0.00  0.00    +0.000 N 
ATOM     13  H   UNL     1       8.598   6.114  18.805  0.00  0.00    +0.000 HD
ATOM     14  H   UNL     1       9.845   7.934  18.955  0.00  0.00    +0.000 HD
BRANCH  12  15
ATOM     15  C   UNL     1       9.254   9.922  19.028  0.00  0.00    +0.000 A 
ATOM     16  C   UNL     1       9.615  10.572  17.843  0.00  0.00    +0.000 A 
ATOM     17  C   UNL     1       9.822  11.960  17.837  0.00  0.00    +0.000 A 
ATOM     18  C   UNL     1       9.726  12.692  19.020  0.00  0.00    +0.000 A 
ATOM     19  C   UNL     1       9.397  12.045  20.214  0.00  0.00    +0.000 A 
ATOM     20  C   UNL     1       9.146  10.663  20.212  0.00  0.00    +0.000 A 
BRANCH  19  21
ATOM     21  C   UNL     1       9.329  12.793  21.447  0.00  0.00    +0.000 C 
ATOM     22  N   UNL     1       9.280  13.379  22.450  0.00  0.00    +0.000 NA
ENDBRANCH  19  21
ENDBRANCH  12  15
ENDBRANCH   3   9
BRANCH   6  23
ATOM     23  C   UNL     1       3.748   3.829  17.760  0.00  0.00    +0.000 A 
ATOM     24  C   UNL     1       3.894   2.497  18.160  0.00  0.00    +0.000 A 
ATOM     25  C   UNL     1       2.781   1.763  18.592  0.00  0.00    +0.000 A 
ATOM     26  C   UNL     1       1.509   2.339  18.588  0.00  0.00    +0.000 A 
ATOM     27  C   UNL     1       1.346   3.647  18.143  0.00  0.00    +0.000 A 
ATOM     28  C   UNL     1       2.457   4.385  17.733  0.00  0.00    +0.000 A 
ENDBRANCH   6  23
TORSDOF 4
ENDMDL
MODEL 2
REMARK VINA RESULT:      -7.2      1.731      2.232
REMARK  Name = 
REMARK  6 active torsions:
REMARK  status: ('A' for Active; 'I' for Inactive)
REMARK    1  A    between atoms: C_1  and  C_2
REMARK    2  A    between atoms: C_3  and  N_4
REMARK    3  A    between atoms: N_7  and  C_8
REMARK    4  A    between atoms: C_12  and  C_13
REMARK    5  A    between atoms: N_18  and  C_19
REMARK    6  A    between atoms: N_25  and  C_26
REMARK                            x       y       z     vdW  Elec       q    Type
REMARK                         _______ _______ _______ _____ _____    ______ ____
ROOT
ATOM      1  C   UNL     1       7.474   5.134  15.142  0.00  0.00    +0.000 C 
ATOM      2  C   UNL     1       6.483   5.376  16.236  0.00  0.00    +0.000 A 
ATOM      3  C   UNL     1       6.125   6.542  16.833  0.00  0.00    +0.000 A 
ATOM      4  C   UNL     1       4.870   6.194  17.610  0.00  0.00    +0.000 A 
ATOM      5  O   UNL     1       4.263   7.013  18.281  0.00  0.00    +0.000 OA
ATOM      6  N   UNL     1       4.643   4.822  17.426  0.00  0.00    +0.000 N 
ATOM      7  N   UNL     1       5.712   4.289  16.684  0.00  0.00    +0.000 N 
ATOM      8  C   UNL     1       5.500   3.095  15.868  0.00  0.00    +0.000 C 
ENDROOT
BRANCH   3   9
ATOM      9  N   UNL     1       6.635   7.823  16.816  0.00  0.00    +0.000 N 
ATOM     10  C   UNL     1       7.633   8.314  17.640  0.00  0.00    +0.000 C 
ATOM     11  O   UNL     1       8.238   7.649  18.481  0.00  0.00    +0.000 OA
ATOM     12  N   UNL     1       7.854   9.680  17.485  0.00  0.00    +0.000 N 
ATOM     13  H   UNL     1       6.053   8.492  16.332  0.00  0.00    +0.000 HD
ATOM     14  H   UNL     1       7.016  10.220  17.321  0.00  0.00    +0.000 HD
BRANCH  12  15
ATOM     15  C   UNL     1       8.871  10.331  18.245  0.00  0.00    +0.000 A 
ATOM     16  C   UNL     1       8.973  10.073  19.616  0.00  0.00    +0.000 A 
ATOM     17  C   UNL     1       9.985  10.683  20.372  0.00  0.00    +0.000 A 
ATOM     18  C   UNL     1      10.859  11.594  19.779  0.00  0.00    +0.000 A 
ATOM     19  C   UNL     1      10.741  11.882  18.416  0.00  0.00    +0.000 A 
ATOM     20  C   UNL     1       9.758  11.238  17.649  0.00  0.00    +0.000 A 
BRANCH  19  21
ATOM     21  C   UNL     1      11.622  12.850  17.804  0.00  0.00    +0.000 C 
ATOM     22  N   UNL     1      12.333  13.637  17.329  0.00  0.00    +0.000 NA
ENDBRANCH  19  21
ENDBRANCH  12  15
ENDBRANCH   3   9
BRANCH   6  23
ATOM     23  C   UNL     1       3.746   4.001  18.146  0.00  0.00    +0.000 A 
ATOM     24  C   UNL     1       2.475   3.724  17.631  0.00  0.00    +0.000 A 
ATOM     25  C   UNL     1       1.661   2.760  18.241  0.00  0.00    +0.000 A 
ATOM     26  C   UNL     1       2.089   2.097  19.392  0.00  0.00    +0.000 A 
ATOM     27  C   UNL     1       3.330   2.403  19.943  0.00  0.00    +0.000 A 
ATOM     28  C   UNL     1       4.150   3.348  19.323  0.00  0.00    +0.000 A 
ENDBRANCH   6  23
TORSDOF 4
ENDMDL
MODEL 3
REMARK VINA RESULT:      -7.2      5.395      7.154
REMARK  Name = 
REMARK  6 active torsions:
REMARK  status: ('A' for Active; 'I' for Inactive)
REMARK    1  A    between atoms: C_1  and  C_2
REMARK    2  A    between atoms: C_3  and  N_4
REMARK    3  A    between atoms: N_7  and  C_8
REMARK    4  A    between atoms: C_12  and  C_13
REMARK    5  A    between atoms: N_18  and  C_19
REMARK    6  A    between atoms: N_25  and  C_26
REMARK                            x       y       z     vdW  Elec       q    Type
REMARK                         _______ _______ _______ _____ _____    ______ ____
ROOT
ATOM      1  C   UNL     1       1.068   3.178  19.967  0.00  0.00    +0.000 C 
ATOM      2  C   UNL     1       2.154   4.074  19.458  0.00  0.00    +0.000 A 
ATOM      3  C   UNL     1       2.582   5.268  19.941  0.00  0.00    +0.000 A 
ATOM      4  C   UNL     1       3.892   5.515  19.217  0.00  0.00    +0.000 A 
ATOM      5  O   UNL     1       4.569   6.514  19.403  0.00  0.00    +0.000 OA
ATOM      6  N   UNL     1       4.077   4.443  18.332  0.00  0.00    +0.000 N 
ATOM      7  N   UNL     1       2.939   3.619  18.385  0.00  0.00    +0.000 N 
ATOM      8  C   UNL     1       3.059   2.200  18.054  0.00  0.00    +0.000 C 
ENDROOT
BRANCH   3   9
ATOM      9  N   UNL     1       2.095   6.152  20.881  0.00  0.00    +0.000 N 
ATOM     10  C   UNL     1       1.620   7.428  20.632  0.00  0.00    +0.000 C 
ATOM     11  O   UNL     1       1.527   7.935  19.514  0.00  0.00    +0.000 OA
ATOM     12  N   UNL     1       1.316   8.140  21.790  0.00  0.00    +0.000 N 
ATOM     13  H   UNL     1       2.345   5.921  21.832  0.00  0.00    +0.000 HD
ATOM     14  H   UNL     1       1.949   7.972  22.558  0.00  0.00    +0.000 HD
BRANCH  12  15
ATOM     15  C   UNL     1       0.788   9.462  21.699  0.00  0.00    +0.000 A 
ATOM     16  C   UNL     1       1.458  10.415  20.925  0.00  0.00    +0.000 A 
ATOM     17  C   UNL     1       0.938  11.713  20.803  0.00  0.00    +0.000 A 
ATOM     18  C   UNL     1      -0.216  12.079  21.495  0.00  0.00    +0.000 A 
ATOM     19  C   UNL     1      -0.873  11.141  22.296  0.00  0.00    +0.000 A 
ATOM     20  C   UNL     1      -0.378   9.830  22.384  0.00  0.00    +0.000 A 
BRANCH  19  21
ATOM     21  C   UNL     1      -2.049  11.524  23.042  0.00  0.00    +0.000 C 
ATOM     22  N   UNL     1      -3.002  11.842  23.626  0.00  0.00    +0.000 NA
ENDBRANCH  19  21
ENDBRANCH  12  15
ENDBRANCH   3   9
BRANCH   6  23
ATOM     23  C   UNL     1       5.017   4.358  17.280  0.00  0.00    +0.000 A 
ATOM     24  C   UNL     1       4.590   4.386  15.948  0.00  0.00    +0.000 A 
ATOM     25  C   UNL     1       5.524   4.498  14.909  0.00  0.00    +0.000 A 
ATOM     26  C   UNL     1       6.892   4.540  15.189  0.00  0.00    +0.000 A 
ATOM     27  C   UNL     1       7.329   4.460  16.507  0.00  0.00    +0.000 A 
ATOM     28  C   UNL     1       6.398   4.369  17.543  0.00  0.00    +0.000 A 
ENDBRANCH   6  23
TORSDOF 4
ENDMDL
MODEL 4
REMARK VINA RESULT:      -7.2      5.279      7.359
REMARK  Name = 
REMARK  6 active torsions:
REMARK  status: ('A' for Active; 'I' for Inactive)
REMARK    1  A    between atoms: C_1  and  C_2
REMARK    2  A    between atoms: C_3  and  N_4
REMARK    3  A    between atoms: N_7  and  C_8
REMARK    4  A    between atoms: C_12  and  C_13
REMARK    5  A    between atoms: N_18  and  C_19
REMARK    6  A    between atoms: N_25  and  C_26
REMARK                            x       y       z     vdW  Elec       q    Type
REMARK                         _______ _______ _______ _____ _____    ______ ____
ROOT
ATOM      1  C   UNL     1       1.667   4.113  20.089  0.00  0.00    +0.000 C 
ATOM      2  C   UNL     1       2.544   4.891  19.159  0.00  0.00    +0.000 A 
ATOM      3  C   UNL     1       2.772   6.229  19.106  0.00  0.00    +0.000 A 
ATOM      4  C   UNL     1       3.976   6.367  18.194  0.00  0.00    +0.000 A 
ATOM      5  O   UNL     1       4.468   7.447  17.912  0.00  0.00    +0.000 OA
ATOM      6  N   UNL     1       4.307   5.075  17.758  0.00  0.00    +0.000 N 
ATOM      7  N   UNL     1       3.343   4.177  18.250  0.00  0.00    +0.000 N 
ATOM      8  C   UNL     1       3.703   2.777  18.462  0.00  0.00    +0.000 C 
ENDROOT
BRANCH   3   9
ATOM      9  N   UNL     1       2.180   7.326  19.697  0.00  0.00    +0.000 N 
ATOM     10  C   UNL     1       1.565   8.375  19.038  0.00  0.00    +0.000 C 
ATOM     11  O   UNL     1       1.423   8.449  17.817  0.00  0.00    +0.000 OA
ATOM     12  N   UNL     1       1.173   9.407  19.887  0.00  0.00    +0.000 N 
ATOM     13  H   UNL     1       2.448   7.468  20.661  0.00  0.00    +0.000 HD
ATOM     14  H   UNL     1       1.816   9.587  20.645  0.00  0.00    +0.000 HD
BRANCH  12  15
ATOM     15  C   UNL     1       0.499  10.550  19.362  0.00  0.00    +0.000 A 
ATOM     16  C   UNL     1       1.175  11.773  19.297  0.00  0.00    +0.000 A 
ATOM     17  C   UNL     1       0.535  12.900  18.758  0.00  0.00    +0.000 A 
ATOM     18  C   UNL     1      -0.792  12.826  18.337  0.00  0.00    +0.000 A 
ATOM     19  C   UNL     1      -1.483  11.614  18.429  0.00  0.00    +0.000 A 
ATOM     20  C   UNL     1      -0.830  10.475  18.927  0.00  0.00    +0.000 A 
BRANCH  19  21
ATOM     21  C   UNL     1      -2.868  11.540  18.026  0.00  0.00    +0.000 C 
ATOM     22  N   UNL     1      -3.983  11.500  17.699  0.00  0.00    +0.000 NA
ENDBRANCH  19  21
ENDBRANCH  12  15
ENDBRANCH   3   9
BRANCH   6  23
ATOM     23  C   UNL     1       5.192   4.729  16.712  0.00  0.00    +0.000 A 
ATOM     24  C   UNL     1       4.697   4.444  15.435  0.00  0.00    +0.000 A 
ATOM     25  C   UNL     1       5.577   4.293  14.355  0.00  0.00    +0.000 A 
ATOM     26  C   UNL     1       6.957   4.381  14.548  0.00  0.00    +0.000 A 
ATOM     27  C   UNL     1       7.462   4.612  15.824  0.00  0.00    +0.000 A 
ATOM     28  C   UNL     1       6.585   4.784  16.896  0.00  0.00    +0.000 A 
ENDBRANCH   6  23
TORSDOF 4
ENDMDL
MODEL 5
REMARK VINA RESULT:      -7.2      7.006      9.376
REMARK  Name = 
REMARK  6 active torsions:
REMARK  status: ('A' for Active; 'I' for Inactive)
REMARK    1  A    between atoms: C_1  and  C_2
REMARK    2  A    between atoms: C_3  and  N_4
REMARK    3  A    between atoms: N_7  and  C_8
REMARK    4  A    between atoms: C_12  and  C_13
REMARK    5  A    between atoms: N_18  and  C_19
REMARK    6  A    between atoms: N_25  and  C_26
REMARK                            x       y       z     vdW  Elec       q    Type
REMARK                         _______ _______ _______ _____ _____    ______ ____
ROOT
ATOM      1  C   UNL     1       2.251  12.408  18.518  0.00  0.00    +0.000 C 
ATOM      2  C   UNL     1       0.967  11.695  18.808  0.00  0.00    +0.000 A 
ATOM      3  C   UNL     1       0.768  10.456  19.326  0.00  0.00    +0.000 A 
ATOM      4  C   UNL     1      -0.706  10.433  19.685  0.00  0.00    +0.000 A 
ATOM      5  O   UNL     1      -1.248   9.459  20.181  0.00  0.00    +0.000 OA
ATOM      6  N   UNL     1      -1.241  11.668  19.288  0.00  0.00    +0.000 N 
ATOM      7  N   UNL     1      -0.237  12.398  18.628  0.00  0.00    +0.000 N 
ATOM      8  C   UNL     1      -0.292  13.858  18.620  0.00  0.00    +0.000 C 
ENDROOT
BRANCH   3   9
ATOM      9  N   UNL     1       1.591   9.377  19.573  0.00  0.00    +0.000 N 
ATOM     10  C   UNL     1       1.988   8.426  18.649  0.00  0.00    +0.000 C 
ATOM     11  O   UNL     1       1.689   8.442  17.455  0.00  0.00    +0.000 OA
ATOM     12  N   UNL     1       2.713   7.379  19.212  0.00  0.00    +0.000 N 
ATOM     13  H   UNL     1       1.692   9.152  20.553  0.00  0.00    +0.000 HD
ATOM     14  H   UNL     1       2.394   7.098  20.128  0.00  0.00    +0.000 HD
BRANCH  12  15
ATOM     15  C   UNL     1       3.218   6.332  18.384  0.00  0.00    +0.000 A 
ATOM     16  C   UNL     1       2.491   5.143  18.264  0.00  0.00    +0.000 A 
ATOM     17  C   UNL     1       2.959   4.114  17.432  0.00  0.00    +0.000 A 
ATOM     18  C   UNL     1       4.178   4.244  16.767  0.00  0.00    +0.000 A 
ATOM     19  C   UNL     1       4.926   5.415  16.909  0.00  0.00    +0.000 A 
ATOM     20  C   UNL     1       4.436   6.463  17.705  0.00  0.00    +0.000 A 
BRANCH  19  21
ATOM     21  C   UNL     1       6.204   5.541  16.249  0.00  0.00    +0.000 C 
ATOM     22  N   UNL     1       7.229   5.661  15.713  0.00  0.00    +0.000 NA
ENDBRANCH  19  21
ENDBRANCH  12  15
ENDBRANCH   3   9
BRANCH   6  23
ATOM     23  C   UNL     1      -2.608  12.014  19.191  0.00  0.00    +0.000 A 
ATOM     24  C   UNL     1      -3.370  11.577  18.103  0.00  0.00    +0.000 A 
ATOM     25  C   UNL     1      -4.761  11.751  18.100  0.00  0.00    +0.000 A 
ATOM     26  C   UNL     1      -5.395  12.398  19.162  0.00  0.00    +0.000 A 
ATOM     27  C   UNL     1      -4.640  12.882  20.226  0.00  0.00    +0.000 A 
ATOM     28  C   UNL     1      -3.257  12.691  20.238  0.00  0.00    +0.000 A 
ENDBRANCH   6  23
TORSDOF 4
ENDMDL
MODEL 6
REMARK VINA RESULT:      -7.2      4.995      6.923
REMARK  Name = 
REMARK  6 active torsions:
REMARK  status: ('A' for Active; 'I' for Inactive)
REMARK    1  A    between atoms: C_1  and  C_2
REMARK    2  A    between atoms: C_3  and  N_4
REMARK    3  A    between atoms: N_7  and  C_8
REMARK    4  A    between atoms: C_12  and  C_13
REMARK    5  A    between atoms: N_18  and  C_19
REMARK    6  A    between atoms: N_25  and  C_26
REMARK                            x       y       z     vdW  Elec       q    Type
REMARK                         _______ _______ _______ _____ _____    ______ ____
ROOT
ATOM      1  C   UNL     1       1.116   3.103  19.865  0.00  0.00    +0.000 C 
ATOM      2  C   UNL     1       2.211   4.003  19.385  0.00  0.00    +0.000 A 
ATOM      3  C   UNL     1       2.659   5.172  19.912  0.00  0.00    +0.000 A 
ATOM      4  C   UNL     1       3.968   5.429  19.191  0.00  0.00    +0.000 A 
ATOM      5  O   UNL     1       4.659   6.411  19.412  0.00  0.00    +0.000 OA
ATOM      6  N   UNL     1       4.133   4.392  18.262  0.00  0.00    +0.000 N 
ATOM      7  N   UNL     1       2.984   3.581  18.290  0.00  0.00    +0.000 N 
ATOM      8  C   UNL     1       3.082   2.175  17.902  0.00  0.00    +0.000 C 
ENDROOT
BRANCH   3   9
ATOM      9  N   UNL     1       2.190   6.024  20.890  0.00  0.00    +0.000 N 
ATOM     10  C   UNL     1       1.621   7.269  20.683  0.00  0.00    +0.000 C 
ATOM     11  O   UNL     1       1.416   7.770  19.577  0.00  0.00    +0.000 OA
ATOM     12  N   UNL     1       1.360   7.960  21.863  0.00  0.00    +0.000 N 
ATOM     13  H   UNL     1       2.522   5.807  21.819  0.00  0.00    +0.000 HD
ATOM     14  H   UNL     1       2.057   7.830  22.583  0.00  0.00    +0.000 HD
BRANCH  12  15
ATOM     15  C   UNL     1       0.748   9.248  21.818  0.00  0.00    +0.000 A 
ATOM     16  C   UNL     1      -0.210   9.585  22.781  0.00  0.00    +0.000 A 
ATOM     17  C   UNL     1      -0.802  10.857  22.767  0.00  0.00    +0.000 A 
ATOM     18  C   UNL     1      -0.484  11.773  21.765  0.00  0.00    +0.000 A 
ATOM     19  C   UNL     1       0.447  11.431  20.781  0.00  0.00    +0.000 A 
ATOM     20  C   UNL     1       1.073  10.174  20.819  0.00  0.00    +0.000 A 
BRANCH  19  21
ATOM     21  C   UNL     1       0.755  12.363  19.721  0.00  0.00    +0.000 C 
ATOM     22  N   UNL     1       1.004  13.098  18.856  0.00  0.00    +0.000 NA
ENDBRANCH  19  21
ENDBRANCH  12  15
ENDBRANCH   3   9
BRANCH   6  23
ATOM     23  C   UNL     1       5.066   4.335  17.202  0.00  0.00    +0.000 A 
ATOM     24  C   UNL     1       4.628   4.391  15.874  0.00  0.00    +0.000 A 
ATOM     25  C   UNL     1       5.554   4.532  14.832  0.00  0.00    +0.000 A 
ATOM     26  C   UNL     1       6.923   4.576  15.102  0.00  0.00    +0.000 A 
ATOM     27  C   UNL     1       7.371   4.469  16.415  0.00  0.00    +0.000 A 
ATOM     28  C   UNL     1       6.448   4.350  17.455  0.00  0.00    +0.000 A 
ENDBRANCH   6  23
TORSDOF 4
ENDMDL
MODEL 7
REMARK VINA RESULT:      -7.2      6.874      9.360
REMARK  Name = 
REMARK  6 active torsions:
REMARK  status: ('A' for Active; 'I' for Inactive)
REMARK    1  A    between atoms: C_1  and  C_2
REMARK    2  A    between atoms: C_3  and  N_4
REMARK    3  A    between atoms: N_7  and  C_8
REMARK    4  A    between atoms: C_12  and  C_13
REMARK    5  A    between atoms: N_18  and  C_19
REMARK    6  A    between atoms: N_25  and  C_26
REMARK                            x       y       z     vdW  Elec       q    Type
REMARK                         _______ _______ _______ _____ _____    ______ ____
ROOT
ATOM      1  C   UNL     1       2.264  11.392  17.986  0.00  0.00    +0.000 C 
ATOM      2  C   UNL     1       1.109  11.021  18.862  0.00  0.00    +0.000 A 
ATOM      3  C   UNL     1       0.978   9.977  19.719  0.00  0.00    +0.000 A 
ATOM      4  C   UNL     1      -0.249  10.320  20.542  0.00  0.00    +0.000 A 
ATOM      5  O   UNL     1      -0.674   9.592  21.425  0.00  0.00    +0.000 OA
ATOM      6  N   UNL     1      -0.751  11.529  20.040  0.00  0.00    +0.000 N 
ATOM      7  N   UNL     1       0.011  11.897  18.917  0.00  0.00    +0.000 N 
ATOM      8  C   UNL     1       0.121  13.308  18.550  0.00  0.00    +0.000 C 
ENDROOT
BRANCH   3   9
ATOM      9  N   UNL     1       1.707   8.828  19.949  0.00  0.00    +0.000 N 
ATOM     10  C   UNL     1       2.110   7.913  18.992  0.00  0.00    +0.000 C 
ATOM     11  O   UNL     1       1.905   8.027  17.784  0.00  0.00    +0.000 OA
ATOM     12  N   UNL     1       2.720   6.783  19.531  0.00  0.00    +0.000 N 
ATOM     13  H   UNL     1       1.719   8.534  20.916  0.00  0.00    +0.000 HD
ATOM     14  H   UNL     1       2.314   6.467  20.401  0.00  0.00    +0.000 HD
BRANCH  12  15
ATOM     15  C   UNL     1       3.216   5.759  18.671  0.00  0.00    +0.000 A 
ATOM     16  C   UNL     1       2.351   4.747  18.242  0.00  0.00    +0.000 A 
ATOM     17  C   UNL     1       2.816   3.747  17.374  0.00  0.00    +0.000 A 
ATOM     18  C   UNL     1       4.153   3.720  16.979  0.00  0.00    +0.000 A 
ATOM     19  C   UNL     1       5.031   4.709  17.431  0.00  0.00    +0.000 A 
ATOM     20  C   UNL     1       4.556   5.735  18.264  0.00  0.00    +0.000 A 
BRANCH  19  21
ATOM     21  C   UNL     1       6.424   4.667  17.053  0.00  0.00    +0.000 C 
ATOM     22  N   UNL     1       7.550   4.622  16.765  0.00  0.00    +0.000 NA
ENDBRANCH  19  21
ENDBRANCH  12  15
ENDBRANCH   3   9
BRANCH   6  23
ATOM     23  C   UNL     1      -2.008  12.113  20.318  0.00  0.00    +0.000 A 
ATOM     24  C   UNL     1      -3.035  12.061  19.369  0.00  0.00    +0.000 A 
ATOM     25  C   UNL     1      -4.333  12.462  19.711  0.00  0.00    +0.000 A 
ATOM     26  C   UNL     1      -4.608  12.956  20.988  0.00  0.00    +0.000 A 
ATOM     27  C   UNL     1      -3.583  13.059  21.923  0.00  0.00    +0.000 A 
ATOM     28  C   UNL     1      -2.294  12.641  21.589  0.00  0.00    +0.000 A 
ENDBRANCH   6  23
TORSDOF 4
ENDMDL
MODEL 8
REMARK VINA RESULT:      -7.1      6.723      9.376
REMARK  Name = 
REMARK  6 active torsions:
REMARK  status: ('A' for Active; 'I' for Inactive)
REMARK    1  A    between atoms: C_1  and  C_2
REMARK    2  A    between atoms: C_3  and  N_4
REMARK    3  A    between atoms: N_7  and  C_8
REMARK    4  A    between atoms: C_12  and  C_13
REMARK    5  A    between atoms: N_18  and  C_19
REMARK    6  A    between atoms: N_25  and  C_26
REMARK                            x       y       z     vdW  Elec       q    Type
REMARK                         _______ _______ _______ _____ _____    ______ ____
ROOT
ATOM      1  C   UNL     1       0.661   9.755  18.138  0.00  0.00    +0.000 C 
ATOM      2  C   UNL     1       0.468   9.892  19.615  0.00  0.00    +0.000 A 
ATOM      3  C   UNL     1       1.012   9.169  20.627  0.00  0.00    +0.000 A 
ATOM      4  C   UNL     1       0.706   9.978  21.873  0.00  0.00    +0.000 A 
ATOM      5  O   UNL     1       1.049   9.623  22.989  0.00  0.00    +0.000 OA
ATOM      6  N   UNL     1      -0.044  11.089  21.463  0.00  0.00    +0.000 N 
ATOM      7  N   UNL     1      -0.303  10.970  20.085  0.00  0.00    +0.000 N 
ATOM      8  C   UNL     1      -0.531  12.172  19.286  0.00  0.00    +0.000 C 
ENDROOT
BRANCH   3   9
ATOM      9  N   UNL     1       1.731   7.992  20.685  0.00  0.00    +0.000 N 
ATOM     10  C   UNL     1       2.248   7.299  19.605  0.00  0.00    +0.000 C 
ATOM     11  O   UNL     1       2.171   7.669  18.433  0.00  0.00    +0.000 OA
ATOM     12  N   UNL     1       2.814   6.075  19.954  0.00  0.00    +0.000 N 
ATOM     13  H   UNL     1       1.644   7.499  21.563  0.00  0.00    +0.000 HD
ATOM     14  H   UNL     1       2.323   5.585  20.688  0.00  0.00    +0.000 HD
BRANCH  12  15
ATOM     15  C   UNL     1       3.416   5.254  18.955  0.00  0.00    +0.000 A 
ATOM     16  C   UNL     1       2.616   4.369  18.224  0.00  0.00    +0.000 A 
ATOM     17  C   UNL     1       3.187   3.573  17.219  0.00  0.00    +0.000 A 
ATOM     18  C   UNL     1       4.560   3.615  16.979  0.00  0.00    +0.000 A 
ATOM     19  C   UNL     1       5.370   4.473  17.729  0.00  0.00    +0.000 A 
ATOM     20  C   UNL     1       4.793   5.302  18.704  0.00  0.00    +0.000 A 
BRANCH  19  21
ATOM     21  C   UNL     1       6.797   4.496  17.508  0.00  0.00    +0.000 C 
ATOM     22  N   UNL     1       7.949   4.520  17.349  0.00  0.00    +0.000 NA
ENDBRANCH  19  21
ENDBRANCH  12  15
ENDBRANCH   3   9
BRANCH   6  23
ATOM     23  C   UNL     1      -0.762  11.986  22.286  0.00  0.00    +0.000 A 
ATOM     24  C   UNL     1      -0.351  13.318  22.406  0.00  0.00    +0.000 A 
ATOM     25  C   UNL     1      -1.165  14.252  23.060  0.00  0.00    +0.000 A 
ATOM     26  C   UNL     1      -2.374  13.856  23.637  0.00  0.00    +0.000 A 
ATOM     27  C   UNL     1      -2.767  12.523  23.568  0.00  0.00    +0.000 A 
ATOM     28  C   UNL     1      -1.966  11.597  22.898  0.00  0.00    +0.000 A 
ENDBRANCH   6  23
TORSDOF 4
ENDMDL
MODEL 9
REMARK VINA RESULT:      -7.1      1.817      2.166
REMARK  Name = 
REMARK  6 active torsions:
REMARK  status: ('A' for Active; 'I' for Inactive)
REMARK    1  A    between atoms: C_1  and  C_2
REMARK    2  A    between atoms: C_3  and  N_4
REMARK    3  A    between atoms: N_7  and  C_8
REMARK    4  A    between atoms: C_12  and  C_13
REMARK    5  A    between atoms: N_18  and  C_19
REMARK    6  A    between atoms: N_25  and  C_26
REMARK                            x       y       z     vdW  Elec       q    Type
REMARK                         _______ _______ _______ _____ _____    ______ ____
ROOT
ATOM      1  C   UNL     1       7.352   4.869  15.292  0.00  0.00    +0.000 C 
ATOM      2  C   UNL     1       6.351   5.190  16.357  0.00  0.00    +0.000 A 
ATOM      3  C   UNL     1       6.019   6.393  16.892  0.00  0.00    +0.000 A 
ATOM      4  C   UNL     1       4.742   6.119  17.664  0.00  0.00    +0.000 A 
ATOM      5  O   UNL     1       4.150   6.986  18.286  0.00  0.00    +0.000 OA
ATOM      6  N   UNL     1       4.478   4.747  17.542  0.00  0.00    +0.000 N 
ATOM      7  N   UNL     1       5.542   4.149  16.844  0.00  0.00    +0.000 N 
ATOM      8  C   UNL     1       5.308   2.924  16.081  0.00  0.00    +0.000 C 
ENDROOT
BRANCH   3   9
ATOM      9  N   UNL     1       6.567   7.657  16.823  0.00  0.00    +0.000 N 
ATOM     10  C   UNL     1       7.566   8.158  17.640  0.00  0.00    +0.000 C 
ATOM     11  O   UNL     1       8.137   7.517  18.522  0.00  0.00    +0.000 OA
ATOM     12  N   UNL     1       7.829   9.509  17.424  0.00  0.00    +0.000 N 
ATOM     13  H   UNL     1       6.012   8.319  16.298  0.00  0.00    +0.000 HD
ATOM     14  H   UNL     1       7.010  10.064  17.220  0.00  0.00    +0.000 HD
BRANCH  12  15
ATOM     15  C   UNL     1       8.853  10.166  18.170  0.00  0.00    +0.000 A 
ATOM     16  C   UNL     1       8.954   9.935  19.546  0.00  0.00    +0.000 A 
ATOM     17  C   UNL     1       9.972  10.552  20.288  0.00  0.00    +0.000 A 
ATOM     18  C   UNL     1      10.854  11.442  19.675  0.00  0.00    +0.000 A 
ATOM     19  C   UNL     1      10.738  11.702  18.307  0.00  0.00    +0.000 A 
ATOM     20  C   UNL     1       9.747  11.051  17.554  0.00  0.00    +0.000 A 
BRANCH  19  21
ATOM     21  C   UNL     1      11.627  12.649  17.674  0.00  0.00    +0.000 C 
ATOM     22  N   UNL     1      12.333  13.407  17.147  0.00  0.00    +0.000 NA
ENDBRANCH  19  21
ENDBRANCH  12  15
ENDBRANCH   3   9
BRANCH   6  23
ATOM     23  C   UNL     1       3.546   3.988  18.285  0.00  0.00    +0.000 A 
ATOM     24  C   UNL     1       3.900   3.462  19.532  0.00  0.00    +0.000 A 
ATOM     25  C   UNL     1       2.925   2.879  20.354  0.00  0.00    +0.000 A 
ATOM     26  C   UNL     1       1.602   2.778  19.921  0.00  0.00    +0.000 A 
ATOM     27  C   UNL     1       1.251   3.251  18.660  0.00  0.00    +0.000 A 
ATOM     28  C   UNL     1       2.217   3.850  17.850  0.00  0.00    +0.000 A 
ENDBRANCH   6  23
TORSDOF 4
ENDMDL
