MODEL 1
REMARK VINA RESULT:      -7.3      0.000      0.000
REMARK  Name = 
REMARK  6 active torsions:
REMARK  status: ('A' for Active; 'I' for Inactive)
REMARK    1  A    between atoms: C_2  and  C_3
REMARK    2  A    between atoms: C_2  and  C_13
REMARK    3  A    between atoms: C_4  and  O_5
REMARK    4  A    between atoms: C_4  and  C_6
REMARK    5  A    between atoms: C_7  and  C_8
REMARK    6  A    between atoms: C_14  and  C_15
REMARK                            x       y       z     vdW  Elec       q    Type
REMARK                         _______ _______ _______ _____ _____    ______ ____
ROOT
ATOM      1  C   UNL     1       7.745   6.011  18.529  0.00  0.00    +0.000 C 
ATOM      2  C   UNL     1       7.898   7.252  18.036  0.00  0.00    +0.000 C 
ENDROOT
BRANCH   1   4
ATOM      3  O   UNL     1       7.745   4.378  16.803  0.00  0.00    +0.000 OA
ATOM      4  C   UNL     1       7.144   4.909  17.733  0.00  0.00    +0.000 C 
BRANCH   4   5
ATOM      5  C   UNL     1       5.780   4.511  18.158  0.00  0.00    +0.000 C 
ATOM      6  C   UNL     1       4.881   4.040  17.279  0.00  0.00    +0.000 C 
BRANCH   6   7
ATOM      7  C   UNL     1       3.580   3.679  17.716  0.00  0.00    +0.000 A 
ATOM      8  C   UNL     1       2.359   4.330  17.769  0.00  0.00    +0.000 A 
ATOM      9  C   UNL     1       1.404   3.438  18.310  0.00  0.00    +0.000 A 
ATOM     10  C   UNL     1       2.060   2.260  18.580  0.00  0.00    +0.000 A 
ATOM     11  N   UNL     1       3.376   2.413  18.219  0.00  0.00    +0.000 N 
ATOM     12  H   UNL     1       4.083   1.696  18.311  0.00  0.00    +0.000 HD
ENDBRANCH   6   7
ENDBRANCH   4   5
ENDBRANCH   1   4
BRANCH   2  13
ATOM     13  O   UNL     1       7.510   7.619  16.764  0.00  0.00    +0.000 OA
ATOM     14  H   UNL     1       7.586   6.827  16.186  0.00  0.00    +0.000 HD
ENDBRANCH   2  13
BRANCH   2  15
ATOM     15  C   UNL     1       8.517   8.311  18.819  0.00  0.00    +0.000 C 
ATOM     16  C   UNL     1       8.715   9.570  18.395  0.00  0.00    +0.000 C 
BRANCH  16  17
ATOM     17  C   UNL     1       9.377  10.532  19.202  0.00  0.00    +0.000 A 
ATOM     18  C   UNL     1       9.335  10.896  20.536  0.00  0.00    +0.000 A 
ATOM     19  C   UNL     1      10.287  11.925  20.742  0.00  0.00    +0.000 A 
ATOM     20  C   UNL     1      10.883  12.176  19.529  0.00  0.00    +0.000 A 
ATOM     21  N   UNL     1      10.321  11.336  18.602  0.00  0.00    +0.000 N 
ATOM     22  H   UNL     1      10.575  11.307  17.623  0.00  0.00    +0.000 HD
ENDBRANCH  16  17
ENDBRANCH   2  15
TORSDOF 6
ENDMDL
MODEL 2
REMARK VINA RESULT:      -7.3      1.576      8.540
REMARK  Name = 
REMARK  6 active torsions:
REMARK  status: ('A' for Active; 'I' for Inactive)
REMARK    1  A    between atoms: C_2  and  C_3
REMARK    2  A    between atoms: C_2  and  C_13
REMARK    3  A    between atoms: C_4  and  O_5
REMARK    4  A    between atoms: C_4  and  C_6
REMARK    5  A    between atoms: C_7  and  C_8
REMARK    6  A    between atoms: C_14  and  C_15
REMARK                            x       y       z     vdW  Elec       q    Type
REMARK                         _______ _______ _______ _____ _____    ______ ____
ROOT
ATOM      1  C   UNL     1       6.306   6.241  18.106  0.00  0.00    +0.000 C 
ATOM      2  C   UNL     1       6.341   4.933  18.413  0.00  0.00    +0.000 C 
ENDROOT
BRANCH   1   4
ATOM      3  O   UNL     1       7.727   6.603  16.236  0.00  0.00    +0.000 OA
ATOM      4  C   UNL     1       7.414   6.916  17.381  0.00  0.00    +0.000 C 
BRANCH   4   5
ATOM      5  C   UNL     1       8.094   7.987  18.150  0.00  0.00    +0.000 C 
ATOM      6  C   UNL     1       8.130   9.254  17.707  0.00  0.00    +0.000 C 
BRANCH   6   7
ATOM      7  C   UNL     1       8.798  10.254  18.461  0.00  0.00    +0.000 A 
ATOM      8  C   UNL     1       9.452  10.274  19.682  0.00  0.00    +0.000 A 
ATOM      9  C   UNL     1       9.929  11.587  19.907  0.00  0.00    +0.000 A 
ATOM     10  C   UNL     1       9.556  12.344  18.822  0.00  0.00    +0.000 A 
ATOM     11  N   UNL     1       8.871  11.532  17.951  0.00  0.00    +0.000 N 
ATOM     12  H   UNL     1       8.484  11.835  17.067  0.00  0.00    +0.000 HD
ENDBRANCH   6   7
ENDBRANCH   4   5
ENDBRANCH   1   4
BRANCH   2  13
ATOM     13  O   UNL     1       7.397   4.104  18.095  0.00  0.00    +0.000 OA
ATOM     14  H   UNL     1       7.031   3.219  17.873  0.00  0.00    +0.000 HD
ENDBRANCH   2  13
BRANCH   2  15
ATOM     15  C   UNL     1       5.233   4.281  19.094  0.00  0.00    +0.000 C 
ATOM     16  C   UNL     1       3.975   4.747  19.147  0.00  0.00    +0.000 C 
BRANCH  16  17
ATOM     17  C   UNL     1       2.961   4.077  19.880  0.00  0.00    +0.000 A 
ATOM     18  C   UNL     1       2.244   4.338  21.035  0.00  0.00    +0.000 A 
ATOM     19  C   UNL     1       1.325   3.278  21.232  0.00  0.00    +0.000 A 
ATOM     20  C   UNL     1       1.506   2.387  20.201  0.00  0.00    +0.000 A 
ATOM     21  N   UNL     1       2.503   2.872  19.394  0.00  0.00    +0.000 N 
ATOM     22  H   UNL     1       2.841   2.415  18.557  0.00  0.00    +0.000 HD
ENDBRANCH  16  17
ENDBRANCH   2  15
TORSDOF 6
ENDMDL
MODEL 3
REMARK VINA RESULT:      -7.2      1.407      1.630
REMARK  Name = 
REMARK  6 active torsions:
REMARK  status: ('A' for Active; 'I' for Inactive)
REMARK    1  A    between atoms: C_2  and  C_3
REMARK    2  A    between atoms: C_2  and  C_13
REMARK    3  A    between atoms: C_4  and  O_5
REMARK    4  A    between atoms: C_4  and  C_6
REMARK    5  A    between atoms: C_7  and  C_8
REMARK    6  A    between atoms: C_14  and  C_15
REMARK                            x       y       z     vdW  Elec       q    Type
REMARK                         _______ _______ _______ _____ _____    ______ ____
ROOT
ATOM      1  C   UNL     1       7.783   6.223  18.636  0.00  0.00    +0.000 C 
ATOM      2  C   UNL     1       7.882   7.421  18.034  0.00  0.00    +0.000 C 
ENDROOT
BRANCH   1   4
ATOM      3  O   UNL     1       7.630   4.471  17.037  0.00  0.00    +0.000 OA
ATOM      4  C   UNL     1       7.122   5.060  17.987  0.00  0.00    +0.000 C 
BRANCH   4   5
ATOM      5  C   UNL     1       5.818   4.679  18.582  0.00  0.00    +0.000 C 
ATOM      6  C   UNL     1       4.724   5.439  18.419  0.00  0.00    +0.000 C 
BRANCH   6   7
ATOM      7  C   UNL     1       3.493   5.053  19.012  0.00  0.00    +0.000 A 
ATOM      8  C   UNL     1       2.435   4.252  18.617  0.00  0.00    +0.000 A 
ATOM      9  C   UNL     1       1.474   4.243  19.655  0.00  0.00    +0.000 A 
ATOM     10  C   UNL     1       1.962   5.040  20.663  0.00  0.00    +0.000 A 
ATOM     11  N   UNL     1       3.183   5.529  20.267  0.00  0.00    +0.000 N 
ATOM     12  H   UNL     1       3.763   6.143  20.823  0.00  0.00    +0.000 HD
ENDBRANCH   6   7
ENDBRANCH   4   5
ENDBRANCH   1   4
BRANCH   2  13
ATOM     13  O   UNL     1       7.379   7.684  16.777  0.00  0.00    +0.000 OA
ATOM     14  H   UNL     1       6.398   7.688  16.839  0.00  0.00    +0.000 HD
ENDBRANCH   2  13
BRANCH   2  15
ATOM     15  C   UNL     1       8.561   8.539  18.670  0.00  0.00    +0.000 C 
ATOM     16  C   UNL     1       8.670   9.773  18.152  0.00  0.00    +0.000 C 
BRANCH  16  17
ATOM     17  C   UNL     1       9.398  10.797  18.814  0.00  0.00    +0.000 A 
ATOM     18  C   UNL     1      10.104  11.919  18.415  0.00  0.00    +0.000 A 
ATOM     19  C   UNL     1      10.579  12.576  19.577  0.00  0.00    +0.000 A 
ATOM     20  C   UNL     1      10.164  11.837  20.660  0.00  0.00    +0.000 A 
ATOM     21  N   UNL     1       9.458  10.759  20.189  0.00  0.00    +0.000 N 
ATOM     22  H   UNL     1       9.035  10.049  20.772  0.00  0.00    +0.000 HD
ENDBRANCH  16  17
ENDBRANCH   2  15
TORSDOF 6
ENDMDL
MODEL 4
REMARK VINA RESULT:      -7.2      1.139      1.365
REMARK  Name = 
REMARK  6 active torsions:
REMARK  status: ('A' for Active; 'I' for Inactive)
REMARK    1  A    between atoms: C_2  and  C_3
REMARK    2  A    between atoms: C_2  and  C_13
REMARK    3  A    between atoms: C_4  and  O_5
REMARK    4  A    between atoms: C_4  and  C_6
REMARK    5  A    between atoms: C_7  and  C_8
REMARK    6  A    between atoms: C_14  and  C_15
REMARK                            x       y       z     vdW  Elec       q    Type
REMARK                         _______ _______ _______ _____ _____    ______ ____
ROOT
ATOM      1  C   UNL     1       6.934   5.881  18.509  0.00  0.00    +0.000 C 
ATOM      2  C   UNL     1       7.540   6.813  17.753  0.00  0.00    +0.000 C 
ENDROOT
BRANCH   1   4
ATOM      3  O   UNL     1       6.714   4.105  16.945  0.00  0.00    +0.000 OA
ATOM      4  C   UNL     1       6.255   4.698  17.917  0.00  0.00    +0.000 C 
BRANCH   4   5
ATOM      5  C   UNL     1       4.998   4.302  18.599  0.00  0.00    +0.000 C 
ATOM      6  C   UNL     1       3.932   3.869  17.908  0.00  0.00    +0.000 C 
BRANCH   6   7
ATOM      7  C   UNL     1       2.740   3.509  18.589  0.00  0.00    +0.000 A 
ATOM      8  C   UNL     1       2.138   3.908  19.770  0.00  0.00    +0.000 A 
ATOM      9  C   UNL     1       0.936   3.180  19.924  0.00  0.00    +0.000 A 
ATOM     10  C   UNL     1       0.827   2.347  18.835  0.00  0.00    +0.000 A 
ATOM     11  N   UNL     1       1.922   2.550  18.033  0.00  0.00    +0.000 N 
ATOM     12  H   UNL     1       2.093   2.065  17.162  0.00  0.00    +0.000 HD
ENDBRANCH   6   7
ENDBRANCH   4   5
ENDBRANCH   1   4
BRANCH   2  13
ATOM     13  O   UNL     1       7.582   6.766  16.375  0.00  0.00    +0.000 OA
ATOM     14  H   UNL     1       8.224   6.067  16.116  0.00  0.00    +0.000 HD
ENDBRANCH   2  13
BRANCH   2  15
ATOM     15  C   UNL     1       8.227   7.948  18.349  0.00  0.00    +0.000 C 
ATOM     16  C   UNL     1       8.219   9.199  17.863  0.00  0.00    +0.000 C 
BRANCH  16  17
ATOM     17  C   UNL     1       8.962  10.242  18.476  0.00  0.00    +0.000 A 
ATOM     18  C   UNL     1       9.413  11.492  18.086  0.00  0.00    +0.000 A 
ATOM     19  C   UNL     1      10.080  12.083  19.188  0.00  0.00    +0.000 A 
ATOM     20  C   UNL     1      10.033  11.179  20.223  0.00  0.00    +0.000 A 
ATOM     21  N   UNL     1       9.364  10.066  19.782  0.00  0.00    +0.000 N 
ATOM     22  H   UNL     1       9.183   9.243  20.341  0.00  0.00    +0.000 HD
ENDBRANCH  16  17
ENDBRANCH   2  15
TORSDOF 6
ENDMDL
MODEL 5
REMARK VINA RESULT:      -7.1      1.320      1.649
REMARK  Name = 
REMARK  6 active torsions:
REMARK  status: ('A' for Active; 'I' for Inactive)
REMARK    1  A    between atoms: C_2  and  C_3
REMARK    2  A    between atoms: C_2  and  C_13
REMARK    3  A    between atoms: C_4  and  O_5
REMARK    4  A    between atoms: C_4  and  C_6
REMARK    5  A    between atoms: C_7  and  C_8
REMARK    6  A    between atoms: C_14  and  C_15
REMARK                            x       y       z     vdW  Elec       q    Type
REMARK                         _______ _______ _______ _____ _____    ______ ____
ROOT
ATOM      1  C   UNL     1       6.718   6.055  17.056  0.00  0.00    +0.000 C 
ATOM      2  C   UNL     1       7.569   6.119  18.095  0.00  0.00    +0.000 C 
ENDROOT
BRANCH   1   4
ATOM      3  O   UNL     1       6.543   4.096  15.723  0.00  0.00    +0.000 OA
ATOM      4  C   UNL     1       6.080   4.782  16.630  0.00  0.00    +0.000 C 
BRANCH   4   5
ATOM      5  C   UNL     1       4.858   4.418  17.389  0.00  0.00    +0.000 C 
ATOM      6  C   UNL     1       3.919   3.616  16.863  0.00  0.00    +0.000 C 
BRANCH   6   7
ATOM      7  C   UNL     1       2.756   3.296  17.611  0.00  0.00    +0.000 A 
ATOM      8  C   UNL     1       1.684   4.025  18.098  0.00  0.00    +0.000 A 
ATOM      9  C   UNL     1       0.817   3.138  18.778  0.00  0.00    +0.000 A 
ATOM     10  C   UNL     1       1.376   1.885  18.695  0.00  0.00    +0.000 A 
ATOM     11  N   UNL     1       2.549   1.988  17.989  0.00  0.00    +0.000 N 
ATOM     12  H   UNL     1       3.163   1.212  17.780  0.00  0.00    +0.000 HD
ENDBRANCH   6   7
ENDBRANCH   4   5
ENDBRANCH   1   4
BRANCH   2  13
ATOM     13  O   UNL     1       7.932   5.023  18.849  0.00  0.00    +0.000 OA
ATOM     14  H   UNL     1       7.109   4.589  19.168  0.00  0.00    +0.000 HD
ENDBRANCH   2  13
BRANCH   2  15
ATOM     15  C   UNL     1       8.160   7.379  18.519  0.00  0.00    +0.000 C 
ATOM     16  C   UNL     1       8.006   8.555  17.890  0.00  0.00    +0.000 C 
BRANCH  16  17
ATOM     17  C   UNL     1       8.662   9.732  18.338  0.00  0.00    +0.000 A 
ATOM     18  C   UNL     1       8.876  10.998  17.822  0.00  0.00    +0.000 A 
ATOM     19  C   UNL     1       9.583  11.754  18.789  0.00  0.00    +0.000 A 
ATOM     20  C   UNL     1       9.795  10.933  19.871  0.00  0.00    +0.000 A 
ATOM     21  N   UNL     1       9.243   9.710  19.587  0.00  0.00    +0.000 N 
ATOM     22  H   UNL     1       9.253   8.914  20.211  0.00  0.00    +0.000 HD
ENDBRANCH  16  17
ENDBRANCH   2  15
TORSDOF 6
ENDMDL
MODEL 6
REMARK VINA RESULT:      -7.1      1.531      1.708
REMARK  Name = 
REMARK  6 active torsions:
REMARK  status: ('A' for Active; 'I' for Inactive)
REMARK    1  A    between atoms: C_2  and  C_3
REMARK    2  A    between atoms: C_2  and  C_13
REMARK    3  A    between atoms: C_4  and  O_5
REMARK    4  A    between atoms: C_4  and  C_6
REMARK    5  A    between atoms: C_7  and  C_8
REMARK    6  A    between atoms: C_14  and  C_15
REMARK                            x       y       z     vdW  Elec       q    Type
REMARK                         _______ _______ _______ _____ _____    ______ ____
ROOT
ATOM      1  C   UNL     1       7.936   6.688  18.556  0.00  0.00    +0.000 C 
ATOM      2  C   UNL     1       7.574   7.598  17.635  0.00  0.00    +0.000 C 
ENDROOT
BRANCH   1   4
ATOM      3  O   UNL     1       7.900   4.350  18.127  0.00  0.00    +0.000 OA
ATOM      4  C   UNL     1       7.335   5.328  18.607  0.00  0.00    +0.000 C 
BRANCH   4   5
ATOM      5  C   UNL     1       6.015   5.261  19.283  0.00  0.00    +0.000 C 
ATOM      6  C   UNL     1       5.106   4.331  18.953  0.00  0.00    +0.000 C 
BRANCH   6   7
ATOM      7  C   UNL     1       3.848   4.300  19.611  0.00  0.00    +0.000 A 
ATOM      8  C   UNL     1       2.905   5.257  19.947  0.00  0.00    +0.000 A 
ATOM      9  C   UNL     1       1.832   4.610  20.603  0.00  0.00    +0.000 A 
ATOM     10  C   UNL     1       2.139   3.271  20.657  0.00  0.00    +0.000 A 
ATOM     11  N   UNL     1       3.361   3.091  20.056  0.00  0.00    +0.000 N 
ATOM     12  H   UNL     1       3.826   2.198  19.957  0.00  0.00    +0.000 HD
ENDBRANCH   6   7
ENDBRANCH   4   5
ENDBRANCH   1   4
BRANCH   2  13
ATOM     13  O   UNL     1       6.618   7.364  16.668  0.00  0.00    +0.000 OA
ATOM     14  H   UNL     1       6.504   8.192  16.150  0.00  0.00    +0.000 HD
ENDBRANCH   2  13
BRANCH   2  15
ATOM     15  C   UNL     1       8.196   8.912  17.579  0.00  0.00    +0.000 C 
ATOM     16  C   UNL     1       8.730   9.560  18.627  0.00  0.00    +0.000 C 
BRANCH  16  17
ATOM     17  C   UNL     1       9.270  10.866  18.499  0.00  0.00    +0.000 A 
ATOM     18  C   UNL     1       8.879  12.038  17.875  0.00  0.00    +0.000 A 
ATOM     19  C   UNL     1       9.850  13.031  18.154  0.00  0.00    +0.000 A 
ATOM     20  C   UNL     1      10.819  12.445  18.933  0.00  0.00    +0.000 A 
ATOM     21  N   UNL     1      10.465  11.134  19.130  0.00  0.00    +0.000 N 
ATOM     22  H   UNL     1      11.001  10.468  19.670  0.00  0.00    +0.000 HD
ENDBRANCH  16  17
ENDBRANCH   2  15
TORSDOF 6
ENDMDL
MODEL 7
REMARK VINA RESULT:      -7.1      1.227      1.433
REMARK  Name = 
REMARK  6 active torsions:
REMARK  status: ('A' for Active; 'I' for Inactive)
REMARK    1  A    between atoms: C_2  and  C_3
REMARK    2  A    between atoms: C_2  and  C_13
REMARK    3  A    between atoms: C_4  and  O_5
REMARK    4  A    between atoms: C_4  and  C_6
REMARK    5  A    between atoms: C_7  and  C_8
REMARK    6  A    between atoms: C_14  and  C_15
REMARK                            x       y       z     vdW  Elec       q    Type
REMARK                         _______ _______ _______ _____ _____    ______ ____
ROOT
ATOM      1  C   UNL     1       7.278   6.757  17.088  0.00  0.00    +0.000 C 
ATOM      2  C   UNL     1       7.949   7.448  18.026  0.00  0.00    +0.000 C 
ENDROOT
BRANCH   1   4
ATOM      3  O   UNL     1       7.902   4.478  17.340  0.00  0.00    +0.000 OA
ATOM      4  C   UNL     1       7.001   5.302  17.220  0.00  0.00    +0.000 C 
BRANCH   4   5
ATOM      5  C   UNL     1       5.561   4.943  17.201  0.00  0.00    +0.000 C 
ATOM      6  C   UNL     1       4.967   4.372  18.260  0.00  0.00    +0.000 C 
BRANCH   6   7
ATOM      7  C   UNL     1       3.590   4.030  18.206  0.00  0.00    +0.000 A 
ATOM      8  C   UNL     1       2.419   4.745  18.023  0.00  0.00    +0.000 A 
ATOM      9  C   UNL     1       1.335   3.838  18.062  0.00  0.00    +0.000 A 
ATOM     10  C   UNL     1       1.863   2.586  18.272  0.00  0.00    +0.000 A 
ATOM     11  N   UNL     1       3.228   2.710  18.359  0.00  0.00    +0.000 N 
ATOM     12  H   UNL     1       3.866   1.939  18.510  0.00  0.00    +0.000 HD
ENDBRANCH   6   7
ENDBRANCH   4   5
ENDBRANCH   1   4
BRANCH   2  13
ATOM     13  O   UNL     1       8.443   6.880  19.182  0.00  0.00    +0.000 OA
ATOM     14  H   UNL     1       9.315   7.293  19.372  0.00  0.00    +0.000 HD
ENDBRANCH   2  13
BRANCH   2  15
ATOM     15  C   UNL     1       8.183   8.878  17.896  0.00  0.00    +0.000 C 
ATOM     16  C   UNL     1       8.957   9.611  18.712  0.00  0.00    +0.000 C 
BRANCH  16  17
ATOM     17  C   UNL     1       9.091  11.015  18.549  0.00  0.00    +0.000 A 
ATOM     18  C   UNL     1       8.504  11.975  17.743  0.00  0.00    +0.000 A 
ATOM     19  C   UNL     1       9.049  13.236  18.090  0.00  0.00    +0.000 A 
ATOM     20  C   UNL     1       9.965  13.020  19.092  0.00  0.00    +0.000 A 
ATOM     21  N   UNL     1       9.991  11.675  19.358  0.00  0.00    +0.000 N 
ATOM     22  H   UNL     1      10.578  11.236  20.055  0.00  0.00    +0.000 HD
ENDBRANCH  16  17
ENDBRANCH   2  15
TORSDOF 6
ENDMDL
MODEL 8
REMARK VINA RESULT:      -7.0      4.923      7.508
REMARK  Name = 
REMARK  6 active torsions:
REMARK  status: ('A' for Active; 'I' for Inactive)
REMARK    1  A    between atoms: C_2  and  C_3
REMARK    2  A    between atoms: C_2  and  C_13
REMARK    3  A    between atoms: C_4  and  O_5
REMARK    4  A    between atoms: C_4  and  C_6
REMARK    5  A    between atoms: C_7  and  C_8
REMARK    6  A    between atoms: C_14  and  C_15
REMARK                            x       y       z     vdW  Elec       q    Type
REMARK                         _______ _______ _______ _____ _____    ______ ____
ROOT
ATOM      1  C   UNL     1       5.663   5.361  16.897  0.00  0.00    +0.000 C 
ATOM      2  C   UNL     1       5.850   4.709  18.058  0.00  0.00    +0.000 C 
ENDROOT
BRANCH   1   4
ATOM      3  O   UNL     1       7.715   6.340  16.206  0.00  0.00    +0.000 OA
ATOM      4  C   UNL     1       6.771   5.603  15.935  0.00  0.00    +0.000 C 
BRANCH   4   5
ATOM      5  C   UNL     1       6.638   4.884  14.645  0.00  0.00    +0.000 C 
ATOM      6  C   UNL     1       5.491   4.280  14.294  0.00  0.00    +0.000 C 
BRANCH   6   7
ATOM      7  C   UNL     1       5.400   3.590  13.057  0.00  0.00    +0.000 A 
ATOM      8  C   UNL     1       4.419   3.461  12.088  0.00  0.00    +0.000 A 
ATOM      9  C   UNL     1       4.920   2.631  11.058  0.00  0.00    +0.000 A 
ATOM     10  C   UNL     1       6.196   2.267  11.418  0.00  0.00    +0.000 A 
ATOM     11  N   UNL     1       6.480   2.849  12.628  0.00  0.00    +0.000 N 
ATOM     12  H   UNL     1       7.355   2.747  13.124  0.00  0.00    +0.000 HD
ENDBRANCH   6   7
ENDBRANCH   4   5
ENDBRANCH   1   4
BRANCH   2  13
ATOM     13  O   UNL     1       7.072   4.217  18.466  0.00  0.00    +0.000 OA
ATOM     14  H   UNL     1       7.512   3.816  17.684  0.00  0.00    +0.000 HD
ENDBRANCH   2  13
BRANCH   2  15
ATOM     15  C   UNL     1       4.748   4.452  18.973  0.00  0.00    +0.000 C 
ATOM     16  C   UNL     1       4.201   3.248  19.205  0.00  0.00    +0.000 C 
BRANCH  16  17
ATOM     17  C   UNL     1       3.090   3.089  20.074  0.00  0.00    +0.000 A 
ATOM     18  C   UNL     1       2.892   2.545  21.331  0.00  0.00    +0.000 A 
ATOM     19  C   UNL     1       1.531   2.731  21.682  0.00  0.00    +0.000 A 
ATOM     20  C   UNL     1       0.924   3.374  20.629  0.00  0.00    +0.000 A 
ATOM     21  N   UNL     1       1.871   3.579  19.658  0.00  0.00    +0.000 N 
ATOM     22  H   UNL     1       1.698   4.035  18.772  0.00  0.00    +0.000 HD
ENDBRANCH  16  17
ENDBRANCH   2  15
TORSDOF 6
ENDMDL
MODEL 9
REMARK VINA RESULT:      -7.0      1.512      8.586
REMARK  Name = 
REMARK  6 active torsions:
REMARK  status: ('A' for Active; 'I' for Inactive)
REMARK    1  A    between atoms: C_2  and  C_3
REMARK    2  A    between atoms: C_2  and  C_13
REMARK    3  A    between atoms: C_4  and  O_5
REMARK    4  A    between atoms: C_4  and  C_6
REMARK    5  A    between atoms: C_7  and  C_8
REMARK    6  A    between atoms: C_14  and  C_15
REMARK                            x       y       z     vdW  Elec       q    Type
REMARK                         _______ _______ _______ _____ _____    ______ ____
ROOT
ATOM      1  C   UNL     1       6.012   6.462  17.855  0.00  0.00    +0.000 C 
ATOM      2  C   UNL     1       6.020   5.216  18.359  0.00  0.00    +0.000 C 
ENDROOT
BRANCH   1   4
ATOM      3  O   UNL     1       7.722   6.404  16.206  0.00  0.00    +0.000 OA
ATOM      4  C   UNL     1       7.169   7.025  17.109  0.00  0.00    +0.000 C 
BRANCH   4   5
ATOM      5  C   UNL     1       7.584   8.381  17.543  0.00  0.00    +0.000 C 
ATOM      6  C   UNL     1       8.594   8.562  18.408  0.00  0.00    +0.000 C 
BRANCH   6   7
ATOM      7  C   UNL     1       8.959   9.873  18.812  0.00  0.00    +0.000 A 
ATOM      8  C   UNL     1       9.092  11.088  18.161  0.00  0.00    +0.000 A 
ATOM      9  C   UNL     1       9.488  12.059  19.110  0.00  0.00    +0.000 A 
ATOM     10  C   UNL     1       9.594  11.419  20.322  0.00  0.00    +0.000 A 
ATOM     11  N   UNL     1       9.274  10.096  20.135  0.00  0.00    +0.000 N 
ATOM     12  H   UNL     1       9.269   9.398  20.866  0.00  0.00    +0.000 HD
ENDBRANCH   6   7
ENDBRANCH   4   5
ENDBRANCH   1   4
BRANCH   2  13
ATOM     13  O   UNL     1       7.091   4.354  18.240  0.00  0.00    +0.000 OA
ATOM     14  H   UNL     1       7.222   3.915  19.110  0.00  0.00    +0.000 HD
ENDBRANCH   2  13
BRANCH   2  15
ATOM     15  C   UNL     1       4.868   4.671  19.059  0.00  0.00    +0.000 C 
ATOM     16  C   UNL     1       3.736   4.249  18.473  0.00  0.00    +0.000 C 
BRANCH  16  17
ATOM     17  C   UNL     1       2.633   3.779  19.233  0.00  0.00    +0.000 A 
ATOM     18  C   UNL     1       2.162   3.985  20.518  0.00  0.00    +0.000 A 
ATOM     19  C   UNL     1       0.964   3.244  20.672  0.00  0.00    +0.000 A 
ATOM     20  C   UNL     1       0.733   2.592  19.484  0.00  0.00    +0.000 A 
ATOM     21  N   UNL     1       1.751   2.914  18.622  0.00  0.00    +0.000 N 
ATOM     22  H   UNL     1       1.832   2.573  17.674  0.00  0.00    +0.000 HD
ENDBRANCH  16  17
ENDBRANCH   2  15
TORSDOF 6
ENDMDL
