MODEL 1
REMARK VINA RESULT:      -6.8      0.000      0.000
REMARK  Name = 
REMARK  4 active torsions:
REMARK  status: ('A' for Active; 'I' for Inactive)
REMARK    1  A    between atoms: C_9  and  S_10
REMARK    2  A    between atoms: S_10  and  C_11
REMARK    3  A    between atoms: C_11  and  C_12
REMARK    4  A    between atoms: C_12  and  N_13
REMARK                            x       y       z     vdW  Elec       q    Type
REMARK                         _______ _______ _______ _____ _____    ______ ____
ROOT
ATOM      1 BR   UNL     1      -1.872  12.976  22.419  0.00  0.00    +0.000 Br
ATOM      2  C   UNL     1      -0.867  11.400  22.114  0.00  0.00    +0.000 A 
ATOM      3  C   UNL     1      -0.781  10.444  23.124  0.00  0.00    +0.000 A 
ATOM      4  C   UNL     1      -0.046   9.269  22.933  0.00  0.00    +0.000 A 
ATOM      5  C   UNL     1       0.595   9.100  21.695  0.00  0.00    +0.000 A 
ATOM      6  N   UNL     1       1.377   8.055  21.244  0.00  0.00    +0.000 N 
ATOM      7  C   UNL     1       1.804   8.305  19.968  0.00  0.00    +0.000 A 
ATOM      8  N   UNL     1       2.582   7.493  19.236  0.00  0.00    +0.000 NA
ATOM      9  C   UNL     1       2.825   8.022  18.018  0.00  0.00    +0.000 A 
ATOM     10  N   UNL     1       2.340   9.211  17.561  0.00  0.00    +0.000 NA
ATOM     11  N   UNL     1       1.570   9.998  18.336  0.00  0.00    +0.000 NA
ATOM     12  C   UNL     1       1.291   9.529  19.576  0.00  0.00    +0.000 A 
ATOM     13  C   UNL     1       0.523  10.046  20.664  0.00  0.00    +0.000 A 
ATOM     14  C   UNL     1      -0.227  11.224  20.882  0.00  0.00    +0.000 A 
ATOM     15  H   UNL     1       1.605   7.225  21.761  0.00  0.00    +0.000 HD
ENDROOT
BRANCH   9  16
ATOM     16  S   UNL     1       3.808   7.011  16.925  0.00  0.00    +0.000 S 
BRANCH  16  17
ATOM     17  C   UNL     1       4.248   5.607  18.019  0.00  0.00    +0.000 C 
BRANCH  17  18
ATOM     18  C   UNL     1       3.577   4.266  17.653  0.00  0.00    +0.000 C 
BRANCH  18  19
ATOM     19  N   UNL     1       2.446   3.894  18.506  0.00  0.00    +0.000 NA
ATOM     20  C   UNL     1       2.126   2.454  18.527  0.00  0.00    +0.000 C 
ATOM     21  C   UNL     1       0.811   2.253  19.303  0.00  0.00    +0.000 C 
ATOM     22  O   UNL     1       0.922   2.731  20.652  0.00  0.00    +0.000 OA
ATOM     23  C   UNL     1       1.293   4.118  20.660  0.00  0.00    +0.000 C 
ATOM     24  C   UNL     1       2.611   4.347  19.901  0.00  0.00    +0.000 C 
ENDBRANCH  18  19
ENDBRANCH  17  18
ENDBRANCH  16  17
ENDBRANCH   9  16
TORSDOF 4
ENDMDL
MODEL 2
REMARK VINA RESULT:      -6.8      1.276      2.382
REMARK  Name = 
REMARK  4 active torsions:
REMARK  status: ('A' for Active; 'I' for Inactive)
REMARK    1  A    between atoms: C_9  and  S_10
REMARK    2  A    between atoms: S_10  and  C_11
REMARK    3  A    between atoms: C_11  and  C_12
REMARK    4  A    between atoms: C_12  and  N_13
REMARK                            x       y       z     vdW  Elec       q    Type
REMARK                         _______ _______ _______ _____ _____    ______ ____
ROOT
ATOM      1 BR   UNL     1      -1.153  10.641  23.039  0.00  0.00    +0.000 Br
ATOM      2  C   UNL     1      -0.327  10.394  21.352  0.00  0.00    +0.000 A 
ATOM      3  C   UNL     1      -0.585  11.305  20.331  0.00  0.00    +0.000 A 
ATOM      4  C   UNL     1       0.007  11.152  19.072  0.00  0.00    +0.000 A 
ATOM      5  C   UNL     1       0.859  10.051  18.887  0.00  0.00    +0.000 A 
ATOM      6  N   UNL     1       1.563   9.662  17.764  0.00  0.00    +0.000 N 
ATOM      7  C   UNL     1       2.271   8.520  18.027  0.00  0.00    +0.000 A 
ATOM      8  N   UNL     1       3.058   7.876  17.152  0.00  0.00    +0.000 NA
ATOM      9  C   UNL     1       3.620   6.786  17.716  0.00  0.00    +0.000 A 
ATOM     10  N   UNL     1       3.441   6.382  19.006  0.00  0.00    +0.000 NA
ATOM     11  N   UNL     1       2.632   7.055  19.845  0.00  0.00    +0.000 NA
ATOM     12  C   UNL     1       2.031   8.160  19.342  0.00  0.00    +0.000 A 
ATOM     13  C   UNL     1       1.135   9.121  19.899  0.00  0.00    +0.000 A 
ATOM     14  C   UNL     1       0.525   9.301  21.161  0.00  0.00    +0.000 A 
ATOM     15  H   UNL     1       1.569  10.137  16.880  0.00  0.00    +0.000 HD
ENDROOT
BRANCH   9  16
ATOM     16  S   UNL     1       4.736   5.868  16.669  0.00  0.00    +0.000 S 
BRANCH  16  17
ATOM     17  C   UNL     1       4.016   4.184  16.752  0.00  0.00    +0.000 C 
BRANCH  17  18
ATOM     18  C   UNL     1       4.367   3.392  18.028  0.00  0.00    +0.000 C 
BRANCH  18  19
ATOM     19  N   UNL     1       3.213   2.867  18.761  0.00  0.00    +0.000 NA
ATOM     20  C   UNL     1       3.164   3.225  20.191  0.00  0.00    +0.000 C 
ATOM     21  C   UNL     1       2.013   2.446  20.855  0.00  0.00    +0.000 C 
ATOM     22  O   UNL     1       0.751   2.762  20.248  0.00  0.00    +0.000 OA
ATOM     23  C   UNL     1       0.791   2.481  18.841  0.00  0.00    +0.000 C 
ATOM     24  C   UNL     1       1.926   3.254  18.149  0.00  0.00    +0.000 C 
ENDBRANCH  18  19
ENDBRANCH  17  18
ENDBRANCH  16  17
ENDBRANCH   9  16
TORSDOF 4
ENDMDL
MODEL 3
REMARK VINA RESULT:      -6.8      4.657      7.697
REMARK  Name = 
REMARK  4 active torsions:
REMARK  status: ('A' for Active; 'I' for Inactive)
REMARK    1  A    between atoms: C_9  and  S_10
REMARK    2  A    between atoms: S_10  and  C_11
REMARK    3  A    between atoms: C_11  and  C_12
REMARK    4  A    between atoms: C_12  and  N_13
REMARK                            x       y       z     vdW  Elec       q    Type
REMARK                         _______ _______ _______ _____ _____    ______ ____
ROOT
ATOM      1 BR   UNL     1       5.609   3.645  15.935  0.00  0.00    +0.000 Br
ATOM      2  C   UNL     1       4.617   4.491  17.309  0.00  0.00    +0.000 A 
ATOM      3  C   UNL     1       4.391   3.808  18.501  0.00  0.00    +0.000 A 
ATOM      4  C   UNL     1       3.661   4.402  19.537  0.00  0.00    +0.000 A 
ATOM      5  C   UNL     1       3.171   5.700  19.320  0.00  0.00    +0.000 A 
ATOM      6  N   UNL     1       2.428   6.511  20.156  0.00  0.00    +0.000 N 
ATOM      7  C   UNL     1       2.163   7.703  19.539  0.00  0.00    +0.000 A 
ATOM      8  N   UNL     1       1.463   8.716  20.073  0.00  0.00    +0.000 NA
ATOM      9  C   UNL     1       1.380   9.754  19.215  0.00  0.00    +0.000 A 
ATOM     10  N   UNL     1       1.940   9.800  17.973  0.00  0.00    +0.000 NA
ATOM     11  N   UNL     1       2.626   8.755  17.474  0.00  0.00    +0.000 NA
ATOM     12  C   UNL     1       2.744   7.675  18.283  0.00  0.00    +0.000 A 
ATOM     13  C   UNL     1       3.385   6.408  18.130  0.00  0.00    +0.000 A 
ATOM     14  C   UNL     1       4.127   5.784  17.101  0.00  0.00    +0.000 A 
ATOM     15  H   UNL     1       2.124   6.277  21.084  0.00  0.00    +0.000 HD
ENDROOT
BRANCH   9  16
ATOM     16  S   UNL     1       0.516  11.190  19.829  0.00  0.00    +0.000 S 
BRANCH  16  17
ATOM     17  C   UNL     1      -1.233  10.660  19.673  0.00  0.00    +0.000 C 
BRANCH  17  18
ATOM     18  C   UNL     1      -2.225  11.793  19.338  0.00  0.00    +0.000 C 
BRANCH  18  19
ATOM     19  N   UNL     1      -2.809  11.719  17.997  0.00  0.00    +0.000 NA
ATOM     20  C   UNL     1      -2.206  10.709  17.107  0.00  0.00    +0.000 C 
ATOM     21  C   UNL     1      -2.790  10.889  15.693  0.00  0.00    +0.000 C 
ATOM     22  O   UNL     1      -4.217  10.726  15.692  0.00  0.00    +0.000 OA
ATOM     23  C   UNL     1      -4.824  11.658  16.599  0.00  0.00    +0.000 C 
ATOM     24  C   UNL     1      -4.268  11.494  18.023  0.00  0.00    +0.000 C 
ENDBRANCH  18  19
ENDBRANCH  17  18
ENDBRANCH  16  17
ENDBRANCH   9  16
TORSDOF 4
ENDMDL
MODEL 4
REMARK VINA RESULT:      -6.8      1.352      2.347
REMARK  Name = 
REMARK  4 active torsions:
REMARK  status: ('A' for Active; 'I' for Inactive)
REMARK    1  A    between atoms: C_9  and  S_10
REMARK    2  A    between atoms: S_10  and  C_11
REMARK    3  A    between atoms: C_11  and  C_12
REMARK    4  A    between atoms: C_12  and  N_13
REMARK                            x       y       z     vdW  Elec       q    Type
REMARK                         _______ _______ _______ _____ _____    ______ ____
ROOT
ATOM      1 BR   UNL     1      -1.693  11.959  22.663  0.00  0.00    +0.000 Br
ATOM      2  C   UNL     1      -0.759  11.373  21.123  0.00  0.00    +0.000 A 
ATOM      3  C   UNL     1      -0.799  12.152  19.969  0.00  0.00    +0.000 A 
ATOM      4  C   UNL     1      -0.123  11.749  18.812  0.00  0.00    +0.000 A 
ATOM      5  C   UNL     1       0.587  10.537  18.867  0.00  0.00    +0.000 A 
ATOM      6  N   UNL     1       1.330   9.909  17.888  0.00  0.00    +0.000 N 
ATOM      7  C   UNL     1       1.852   8.740  18.373  0.00  0.00    +0.000 A 
ATOM      8  N   UNL     1       2.622   7.887  17.681  0.00  0.00    +0.000 NA
ATOM      9  C   UNL     1       2.979   6.829  18.440  0.00  0.00    +0.000 A 
ATOM     10  N   UNL     1       2.632   6.640  19.745  0.00  0.00    +0.000 NA
ATOM     11  N   UNL     1       1.848   7.520  20.396  0.00  0.00    +0.000 NA
ATOM     12  C   UNL     1       1.449   8.604  19.690  0.00  0.00    +0.000 A 
ATOM     13  C   UNL     1       0.643   9.738  20.016  0.00  0.00    +0.000 A 
ATOM     14  C   UNL     1      -0.049  10.169  21.170  0.00  0.00    +0.000 A 
ATOM     15  H   UNL     1       1.480  10.247  16.954  0.00  0.00    +0.000 HD
ENDROOT
BRANCH   9  16
ATOM     16  S   UNL     1       4.051   5.643  17.649  0.00  0.00    +0.000 S 
BRANCH  16  17
ATOM     17  C   UNL     1       2.869   4.311  17.215  0.00  0.00    +0.000 C 
BRANCH  17  18
ATOM     18  C   UNL     1       3.219   2.922  17.788  0.00  0.00    +0.000 C 
BRANCH  18  19
ATOM     19  N   UNL     1       2.704   2.667  19.136  0.00  0.00    +0.000 NA
ATOM     20  C   UNL     1       3.673   2.883  20.227  0.00  0.00    +0.000 C 
ATOM     21  C   UNL     1       3.047   2.391  21.545  0.00  0.00    +0.000 C 
ATOM     22  O   UNL     1       1.834   3.100  21.845  0.00  0.00    +0.000 OA
ATOM     23  C   UNL     1       0.896   2.956  20.768  0.00  0.00    +0.000 C 
ATOM     24  C   UNL     1       1.490   3.450  19.439  0.00  0.00    +0.000 C 
ENDBRANCH  18  19
ENDBRANCH  17  18
ENDBRANCH  16  17
ENDBRANCH   9  16
TORSDOF 4
ENDMDL
MODEL 5
REMARK VINA RESULT:      -6.7      4.478      7.518
REMARK  Name = 
REMARK  4 active torsions:
REMARK  status: ('A' for Active; 'I' for Inactive)
REMARK    1  A    between atoms: C_9  and  S_10
REMARK    2  A    between atoms: S_10  and  C_11
REMARK    3  A    between atoms: C_11  and  C_12
REMARK    4  A    between atoms: C_12  and  N_13
REMARK                            x       y       z     vdW  Elec       q    Type
REMARK                         _______ _______ _______ _____ _____    ______ ____
ROOT
ATOM      1 BR   UNL     1       5.623   5.464  15.291  0.00  0.00    +0.000 Br
ATOM      2  C   UNL     1       4.663   5.763  16.897  0.00  0.00    +0.000 A 
ATOM      3  C   UNL     1       4.747   4.822  17.921  0.00  0.00    +0.000 A 
ATOM      4  C   UNL     1       4.050   5.010  19.120  0.00  0.00    +0.000 A 
ATOM      5  C   UNL     1       3.272   6.173  19.241  0.00  0.00    +0.000 A 
ATOM      6  N   UNL     1       2.491   6.603  20.296  0.00  0.00    +0.000 N 
ATOM      7  C   UNL     1       1.900   7.798  19.985  0.00  0.00    +0.000 A 
ATOM      8  N   UNL     1       1.078   8.490  20.788  0.00  0.00    +0.000 NA
ATOM      9  C   UNL     1       0.664   9.629  20.193  0.00  0.00    +0.000 A 
ATOM     10  N   UNL     1       1.033  10.052  18.951  0.00  0.00    +0.000 NA
ATOM     11  N   UNL     1       1.853   9.318  18.176  0.00  0.00    +0.000 NA
ATOM     12  C   UNL     1       2.304   8.157  18.711  0.00  0.00    +0.000 A 
ATOM     13  C   UNL     1       3.173   7.133  18.225  0.00  0.00    +0.000 A 
ATOM     14  C   UNL     1       3.887   6.919  17.025  0.00  0.00    +0.000 A 
ATOM     15  H   UNL     1       2.368   6.125  21.170  0.00  0.00    +0.000 HD
ENDROOT
BRANCH   9  16
ATOM     16  S   UNL     1      -0.396  10.670  21.182  0.00  0.00    +0.000 S 
BRANCH  16  17
ATOM     17  C   UNL     1      -0.880  11.957  19.970  0.00  0.00    +0.000 C 
BRANCH  17  18
ATOM     18  C   UNL     1      -2.390  12.017  19.657  0.00  0.00    +0.000 C 
BRANCH  18  19
ATOM     19  N   UNL     1      -2.744  11.673  18.278  0.00  0.00    +0.000 NA
ATOM     20  C   UNL     1      -2.201  10.390  17.794  0.00  0.00    +0.000 C 
ATOM     21  C   UNL     1      -2.495  10.267  16.288  0.00  0.00    +0.000 C 
ATOM     22  O   UNL     1      -3.907  10.311  16.025  0.00  0.00    +0.000 OA
ATOM     23  C   UNL     1      -4.472  11.525  16.542  0.00  0.00    +0.000 C 
ATOM     24  C   UNL     1      -4.203  11.668  18.049  0.00  0.00    +0.000 C 
ENDBRANCH  18  19
ENDBRANCH  17  18
ENDBRANCH  16  17
ENDBRANCH   9  16
TORSDOF 4
ENDMDL
MODEL 6
REMARK VINA RESULT:      -6.6      1.482      2.431
REMARK  Name = 
REMARK  4 active torsions:
REMARK  status: ('A' for Active; 'I' for Inactive)
REMARK    1  A    between atoms: C_9  and  S_10
REMARK    2  A    between atoms: S_10  and  C_11
REMARK    3  A    between atoms: C_11  and  C_12
REMARK    4  A    between atoms: C_12  and  N_13
REMARK                            x       y       z     vdW  Elec       q    Type
REMARK                         _______ _______ _______ _____ _____    ______ ____
ROOT
ATOM      1 BR   UNL     1      -0.856  10.075  23.132  0.00  0.00    +0.000 Br
ATOM      2  C   UNL     1      -0.083   9.969  21.406  0.00  0.00    +0.000 A 
ATOM      3  C   UNL     1      -0.415  10.930  20.455  0.00  0.00    +0.000 A 
ATOM      4  C   UNL     1       0.135  10.882  19.169  0.00  0.00    +0.000 A 
ATOM      5  C   UNL     1       1.024   9.831  18.885  0.00  0.00    +0.000 A 
ATOM      6  N   UNL     1       1.701   9.544  17.717  0.00  0.00    +0.000 N 
ATOM      7  C   UNL     1       2.464   8.420  17.881  0.00  0.00    +0.000 A 
ATOM      8  N   UNL     1       3.245   7.866  16.941  0.00  0.00    +0.000 NA
ATOM      9  C   UNL     1       3.870   6.768  17.414  0.00  0.00    +0.000 A 
ATOM     10  N   UNL     1       3.756   6.276  18.681  0.00  0.00    +0.000 NA
ATOM     11  N   UNL     1       2.951   6.860  19.589  0.00  0.00    +0.000 NA
ATOM     12  C   UNL     1       2.288   7.968  19.178  0.00  0.00    +0.000 A 
ATOM     13  C   UNL     1       1.374   8.854  19.826  0.00  0.00    +0.000 A 
ATOM     14  C   UNL     1       0.804   8.927  21.117  0.00  0.00    +0.000 A 
ATOM     15  H   UNL     1       1.655  10.073  16.865  0.00  0.00    +0.000 HD
ENDROOT
BRANCH   9  16
ATOM     16  S   UNL     1       4.983   5.966  16.273  0.00  0.00    +0.000 S 
BRANCH  16  17
ATOM     17  C   UNL     1       5.489   4.487  17.231  0.00  0.00    +0.000 C 
BRANCH  17  18
ATOM     18  C   UNL     1       4.557   3.266  17.077  0.00  0.00    +0.000 C 
BRANCH  18  19
ATOM     19  N   UNL     1       3.527   3.147  18.111  0.00  0.00    +0.000 NA
ATOM     20  C   UNL     1       2.347   2.349  17.730  0.00  0.00    +0.000 C 
ATOM     21  C   UNL     1       1.285   2.481  18.837  0.00  0.00    +0.000 C 
ATOM     22  O   UNL     1       1.784   2.011  20.099  0.00  0.00    +0.000 OA
ATOM     23  C   UNL     1       2.970   2.732  20.464  0.00  0.00    +0.000 C 
ATOM     24  C   UNL     1       4.054   2.608  19.381  0.00  0.00    +0.000 C 
ENDBRANCH  18  19
ENDBRANCH  17  18
ENDBRANCH  16  17
ENDBRANCH   9  16
TORSDOF 4
ENDMDL
MODEL 7
REMARK VINA RESULT:      -6.6      4.565      7.292
REMARK  Name = 
REMARK  4 active torsions:
REMARK  status: ('A' for Active; 'I' for Inactive)
REMARK    1  A    between atoms: C_9  and  S_10
REMARK    2  A    between atoms: S_10  and  C_11
REMARK    3  A    between atoms: C_11  and  C_12
REMARK    4  A    between atoms: C_12  and  N_13
REMARK                            x       y       z     vdW  Elec       q    Type
REMARK                         _______ _______ _______ _____ _____    ______ ____
ROOT
ATOM      1 BR   UNL     1       4.063   4.137  16.969  0.00  0.00    +0.000 Br
ATOM      2  C   UNL     1       3.218   5.190  18.297  0.00  0.00    +0.000 A 
ATOM      3  C   UNL     1       2.854   4.596  19.503  0.00  0.00    +0.000 A 
ATOM      4  C   UNL     1       2.227   5.343  20.506  0.00  0.00    +0.000 A 
ATOM      5  C   UNL     1       1.983   6.702  20.244  0.00  0.00    +0.000 A 
ATOM      6  N   UNL     1       1.386   7.658  21.042  0.00  0.00    +0.000 N 
ATOM      7  C   UNL     1       1.351   8.859  20.387  0.00  0.00    +0.000 A 
ATOM      8  N   UNL     1       0.837   9.997  20.878  0.00  0.00    +0.000 NA
ATOM      9  C   UNL     1       0.956  11.006  19.990  0.00  0.00    +0.000 A 
ATOM     10  N   UNL     1       1.535  10.913  18.759  0.00  0.00    +0.000 NA
ATOM     11  N   UNL     1       2.029   9.746  18.304  0.00  0.00    +0.000 NA
ATOM     12  C   UNL     1       1.937   8.688  19.145  0.00  0.00    +0.000 A 
ATOM     13  C   UNL     1       2.341   7.322  19.040  0.00  0.00    +0.000 A 
ATOM     14  C   UNL     1       2.974   6.544  18.044  0.00  0.00    +0.000 A 
ATOM     15  H   UNL     1       1.030   7.512  21.969  0.00  0.00    +0.000 HD
ENDROOT
BRANCH   9  16
ATOM     16  S   UNL     1       0.356  12.593  20.546  0.00  0.00    +0.000 S 
BRANCH  16  17
ATOM     17  C   UNL     1      -1.014  12.900  19.367  0.00  0.00    +0.000 C 
BRANCH  17  18
ATOM     18  C   UNL     1      -2.021  11.739  19.227  0.00  0.00    +0.000 C 
BRANCH  18  19
ATOM     19  N   UNL     1      -2.690  11.661  17.926  0.00  0.00    +0.000 NA
ATOM     20  C   UNL     1      -2.100  10.700  16.975  0.00  0.00    +0.000 C 
ATOM     21  C   UNL     1      -2.786  10.877  15.608  0.00  0.00    +0.000 C 
ATOM     22  O   UNL     1      -4.200  10.642  15.698  0.00  0.00    +0.000 OA
ATOM     23  C   UNL     1      -4.789  11.525  16.664  0.00  0.00    +0.000 C 
ATOM     24  C   UNL     1      -4.131  11.362  18.044  0.00  0.00    +0.000 C 
ENDBRANCH  18  19
ENDBRANCH  17  18
ENDBRANCH  16  17
ENDBRANCH   9  16
TORSDOF 4
ENDMDL
MODEL 8
REMARK VINA RESULT:      -6.5      1.598      2.115
REMARK  Name = 
REMARK  4 active torsions:
REMARK  status: ('A' for Active; 'I' for Inactive)
REMARK    1  A    between atoms: C_9  and  S_10
REMARK    2  A    between atoms: S_10  and  C_11
REMARK    3  A    between atoms: C_11  and  C_12
REMARK    4  A    between atoms: C_12  and  N_13
REMARK                            x       y       z     vdW  Elec       q    Type
REMARK                         _______ _______ _______ _____ _____    ______ ____
ROOT
ATOM      1 BR   UNL     1      -1.326  11.977  19.188  0.00  0.00    +0.000 Br
ATOM      2  C   UNL     1      -0.309  10.486  19.763  0.00  0.00    +0.000 A 
ATOM      3  C   UNL     1      -0.479  10.009  21.061  0.00  0.00    +0.000 A 
ATOM      4  C   UNL     1       0.257   8.911  21.520  0.00  0.00    +0.000 A 
ATOM      5  C   UNL     1       1.165   8.321  20.625  0.00  0.00    +0.000 A 
ATOM      6  N   UNL     1       2.009   7.244  20.811  0.00  0.00    +0.000 N 
ATOM      7  C   UNL     1       2.726   7.008  19.669  0.00  0.00    +0.000 A 
ATOM      8  N   UNL     1       3.636   6.035  19.510  0.00  0.00    +0.000 NA
ATOM      9  C   UNL     1       4.165   6.063  18.269  0.00  0.00    +0.000 A 
ATOM     10  N   UNL     1       3.823   6.940  17.283  0.00  0.00    +0.000 NA
ATOM     11  N   UNL     1       2.910   7.907  17.491  0.00  0.00    +0.000 NA
ATOM     12  C   UNL     1       2.342   7.940  18.721  0.00  0.00    +0.000 A 
ATOM     13  C   UNL     1       1.353   8.782  19.315  0.00  0.00    +0.000 A 
ATOM     14  C   UNL     1       0.596   9.892  18.877  0.00  0.00    +0.000 A 
ATOM     15  H   UNL     1       2.094   6.701  21.651  0.00  0.00    +0.000 HD
ENDROOT
BRANCH   9  16
ATOM     16  S   UNL     1       5.355   4.782  17.913  0.00  0.00    +0.000 S 
BRANCH  16  17
ATOM     17  C   UNL     1       4.346   3.605  16.934  0.00  0.00    +0.000 C 
BRANCH  17  18
ATOM     18  C   UNL     1       2.856   3.543  17.332  0.00  0.00    +0.000 C 
BRANCH  18  19
ATOM     19  N   UNL     1       2.610   3.449  18.772  0.00  0.00    +0.000 NA
ATOM     20  C   UNL     1       1.188   3.400  19.162  0.00  0.00    +0.000 C 
ATOM     21  C   UNL     1       1.095   3.500  20.696  0.00  0.00    +0.000 C 
ATOM     22  O   UNL     1       1.796   2.420  21.333  0.00  0.00    +0.000 OA
ATOM     23  C   UNL     1       3.171   2.408  20.922  0.00  0.00    +0.000 C 
ATOM     24  C   UNL     1       3.295   2.298  19.393  0.00  0.00    +0.000 C 
ENDBRANCH  18  19
ENDBRANCH  17  18
ENDBRANCH  16  17
ENDBRANCH   9  16
TORSDOF 4
ENDMDL
MODEL 9
REMARK VINA RESULT:      -6.5      4.914      8.464
REMARK  Name = 
REMARK  4 active torsions:
REMARK  status: ('A' for Active; 'I' for Inactive)
REMARK    1  A    between atoms: C_9  and  S_10
REMARK    2  A    between atoms: S_10  and  C_11
REMARK    3  A    between atoms: C_11  and  C_12
REMARK    4  A    between atoms: C_12  and  N_13
REMARK                            x       y       z     vdW  Elec       q    Type
REMARK                         _______ _______ _______ _____ _____    ______ ____
ROOT
ATOM      1 BR   UNL     1       6.431   4.785  14.981  0.00  0.00    +0.000 Br
ATOM      2  C   UNL     1       5.418   5.179  16.532  0.00  0.00    +0.000 A 
ATOM      3  C   UNL     1       5.513   4.335  17.636  0.00  0.00    +0.000 A 
ATOM      4  C   UNL     1       4.777   4.594  18.798  0.00  0.00    +0.000 A 
ATOM      5  C   UNL     1       3.948   5.728  18.799  0.00  0.00    +0.000 A 
ATOM      6  N   UNL     1       3.123   6.213  19.794  0.00  0.00    +0.000 N 
ATOM      7  C   UNL     1       2.491   7.350  19.367  0.00  0.00    +0.000 A 
ATOM      8  N   UNL     1       1.620   8.072  20.088  0.00  0.00    +0.000 NA
ATOM      9  C   UNL     1       1.175   9.136  19.387  0.00  0.00    +0.000 A 
ATOM     10  N   UNL     1       1.559   9.466  18.121  0.00  0.00    +0.000 NA
ATOM     11  N   UNL     1       2.430   8.705  17.432  0.00  0.00    +0.000 NA
ATOM     12  C   UNL     1       2.913   7.615  18.076  0.00  0.00    +0.000 A 
ATOM     13  C   UNL     1       3.837   6.592  17.702  0.00  0.00    +0.000 A 
ATOM     14  C   UNL     1       4.591   6.307  16.542  0.00  0.00    +0.000 A 
ATOM     15  H   UNL     1       2.996   5.807  20.704  0.00  0.00    +0.000 HD
ENDROOT
BRANCH   9  16
ATOM     16  S   UNL     1       0.047  10.211  20.257  0.00  0.00    +0.000 S 
BRANCH  16  17
ATOM     17  C   UNL     1       0.917  11.821  20.149  0.00  0.00    +0.000 C 
BRANCH  17  18
ATOM     18  C   UNL     1       0.370  12.782  19.072  0.00  0.00    +0.000 C 
BRANCH  18  19
ATOM     19  N   UNL     1       1.305  13.827  18.652  0.00  0.00    +0.000 NA
ATOM     20  C   UNL     1       1.064  15.157  19.243  0.00  0.00    +0.000 C 
ATOM     21  C   UNL     1       1.996  16.175  18.560  0.00  0.00    +0.000 C 
ATOM     22  O   UNL     1       3.377  15.823  18.741  0.00  0.00    +0.000 OA
ATOM     23  C   UNL     1       3.625  14.505  18.228  0.00  0.00    +0.000 C 
ATOM     24  C   UNL     1       2.715  13.465  18.900  0.00  0.00    +0.000 C 
ENDBRANCH  18  19
ENDBRANCH  17  18
ENDBRANCH  16  17
ENDBRANCH   9  16
TORSDOF 4
ENDMDL
