MODEL 1
REMARK VINA RESULT:      -7.9      0.000      0.000
REMARK  Name = 
REMARK  9 active torsions:
REMARK  status: ('A' for Active; 'I' for Inactive)
REMARK    1  A    between atoms: C_2  and  C_3
REMARK    2  A    between atoms: C_6  and  O_7
REMARK    3  A    between atoms: O_7  and  C_8
REMARK    4  A    between atoms: C_11  and  C_12
REMARK    5  A    between atoms: C_16  and  C_17
REMARK    6  A    between atoms: C_17  and  O_18
REMARK    7  A    between atoms: C_17  and  C_19
REMARK    8  A    between atoms: C_19  and  O_20
REMARK    9  A    between atoms: C_24  and  C_25
REMARK                            x       y       z     vdW  Elec       q    Type
REMARK                         _______ _______ _______ _____ _____    ______ ____
ROOT
ATOM      1  C   UNL     1       2.608   7.199  19.265  0.00  0.00    +0.000 A 
ATOM      2  C   UNL     1       1.943   7.501  20.451  0.00  0.00    +0.000 A 
ATOM      3  C   UNL     1       1.033   8.572  20.501  0.00  0.00    +0.000 A 
ATOM      4  C   UNL     1       0.769   9.381  19.373  0.00  0.00    +0.000 A 
ATOM      5  C   UNL     1       1.426   9.035  18.181  0.00  0.00    +0.000 A 
ATOM      6  C   UNL     1       2.355   7.987  18.131  0.00  0.00    +0.000 A 
ENDROOT
BRANCH   4   7
ATOM      7  C   UNL     1      -0.101  10.584  19.441  0.00  0.00    +0.000 A 
ATOM      8  C   UNL     1       0.236  11.675  20.245  0.00  0.00    +0.000 A 
ATOM      9  C   UNL     1      -0.574  12.805  20.252  0.00  0.00    +0.000 A 
ATOM     10  C   UNL     1      -1.711  12.828  19.457  0.00  0.00    +0.000 A 
ATOM     11  C   UNL     1      -2.001  11.721  18.665  0.00  0.00    +0.000 A 
ATOM     12  N   UNL     1      -1.206  10.605  18.636  0.00  0.00    +0.000 NA
BRANCH  11  13
ATOM     13  C   UNL     1      -3.270  11.733  17.822  0.00  0.00    +0.000 C 
BRANCH  13  14
ATOM     14  O   UNL     1      -4.390  11.406  18.647  0.00  0.00    +0.000 OA
ATOM     15  H   UNL     1      -5.172  11.724  18.156  0.00  0.00    +0.000 HD
ENDBRANCH  13  14
BRANCH  13  16
ATOM     16  C   UNL     1      -3.197  10.762  16.632  0.00  0.00    +0.000 C 
BRANCH  16  17
ATOM     17  O   UNL     1      -2.311  11.233  15.611  0.00  0.00    +0.000 OA
ATOM     18  H   UNL     1      -1.903  12.052  15.958  0.00  0.00    +0.000 HD
ENDBRANCH  16  17
ENDBRANCH  13  16
ENDBRANCH  11  13
ENDBRANCH   4   7
BRANCH   1  19
ATOM     19  O   UNL     1       3.515   6.153  19.285  0.00  0.00    +0.000 OA
BRANCH  19  23
ATOM     20  C   UNL     1       5.354   4.856  15.747  0.00  0.00    +0.000 A 
ATOM     21  C   UNL     1       5.802   6.011  16.382  0.00  0.00    +0.000 A 
ATOM     22  C   UNL     1       5.146   6.466  17.522  0.00  0.00    +0.000 A 
ATOM     23  C   UNL     1       4.085   5.740  18.095  0.00  0.00    +0.000 A 
ATOM     24  C   UNL     1       3.583   4.610  17.424  0.00  0.00    +0.000 A 
ATOM     25  C   UNL     1       4.244   4.176  16.252  0.00  0.00    +0.000 A 
BRANCH  24  26
ATOM     26  C   UNL     1       2.370   3.812  17.839  0.00  0.00    +0.000 C 
ATOM     27  F   UNL     1       2.314   3.447  19.142  0.00  0.00    +0.000 F 
ATOM     28  F   UNL     1       1.217   4.504  17.594  0.00  0.00    +0.000 F 
ATOM     29  F   UNL     1       2.251   2.661  17.116  0.00  0.00    +0.000 F 
ENDBRANCH  24  26
BRANCH  20  31
ATOM     30  N   UNL     1       6.554   3.987  13.631  0.00  0.00    +0.000 NA
ATOM     31  C   UNL     1       6.011   4.381  14.569  0.00  0.00    +0.000 C 
ENDBRANCH  20  31
ENDBRANCH  19  23
ENDBRANCH   1  19
TORSDOF 9
ENDMDL
MODEL 2
REMARK VINA RESULT:      -7.9      0.574      1.591
REMARK  Name = 
REMARK  9 active torsions:
REMARK  status: ('A' for Active; 'I' for Inactive)
REMARK    1  A    between atoms: C_2  and  C_3
REMARK    2  A    between atoms: C_6  and  O_7
REMARK    3  A    between atoms: O_7  and  C_8
REMARK    4  A    between atoms: C_11  and  C_12
REMARK    5  A    between atoms: C_16  and  C_17
REMARK    6  A    between atoms: C_17  and  O_18
REMARK    7  A    between atoms: C_17  and  C_19
REMARK    8  A    between atoms: C_19  and  O_20
REMARK    9  A    between atoms: C_24  and  C_25
REMARK                            x       y       z     vdW  Elec       q    Type
REMARK                         _______ _______ _______ _____ _____    ______ ____
ROOT
ATOM      1  C   UNL     1       2.674   7.148  19.336  0.00  0.00    +0.000 A 
ATOM      2  C   UNL     1       2.451   7.816  18.134  0.00  0.00    +0.000 A 
ATOM      3  C   UNL     1       1.511   8.860  18.066  0.00  0.00    +0.000 A 
ATOM      4  C   UNL     1       0.757   9.259  19.193  0.00  0.00    +0.000 A 
ATOM      5  C   UNL     1       1.024   8.594  20.399  0.00  0.00    +0.000 A 
ATOM      6  C   UNL     1       1.938   7.534  20.467  0.00  0.00    +0.000 A 
ENDROOT
BRANCH   4   7
ATOM      7  C   UNL     1      -0.320  10.281  19.109  0.00  0.00    +0.000 A 
ATOM      8  C   UNL     1      -0.383  11.340  20.016  0.00  0.00    +0.000 A 
ATOM      9  C   UNL     1      -1.374  12.306  19.884  0.00  0.00    +0.000 A 
ATOM     10  C   UNL     1      -2.291  12.198  18.849  0.00  0.00    +0.000 A 
ATOM     11  C   UNL     1      -2.183  11.129  17.963  0.00  0.00    +0.000 A 
ATOM     12  N   UNL     1      -1.204  10.177  18.072  0.00  0.00    +0.000 NA
BRANCH  11  13
ATOM     13  C   UNL     1      -3.214  10.990  16.850  0.00  0.00    +0.000 C 
BRANCH  13  14
ATOM     14  O   UNL     1      -2.633  11.402  15.611  0.00  0.00    +0.000 OA
ATOM     15  H   UNL     1      -1.900  10.777  15.451  0.00  0.00    +0.000 HD
ENDBRANCH  13  14
BRANCH  13  16
ATOM     16  C   UNL     1      -4.491  11.801  17.123  0.00  0.00    +0.000 C 
BRANCH  16  17
ATOM     17  O   UNL     1      -5.641  10.959  17.255  0.00  0.00    +0.000 OA
ATOM     18  H   UNL     1      -5.371  10.073  16.939  0.00  0.00    +0.000 HD
ENDBRANCH  16  17
ENDBRANCH  13  16
ENDBRANCH  11  13
ENDBRANCH   4   7
BRANCH   1  19
ATOM     19  O   UNL     1       3.589   6.109  19.334  0.00  0.00    +0.000 OA
BRANCH  19  23
ATOM     20  C   UNL     1       5.319   4.798  15.746  0.00  0.00    +0.000 A 
ATOM     21  C   UNL     1       5.765   5.971  16.347  0.00  0.00    +0.000 A 
ATOM     22  C   UNL     1       5.144   6.430  17.504  0.00  0.00    +0.000 A 
ATOM     23  C   UNL     1       4.122   5.690  18.129  0.00  0.00    +0.000 A 
ATOM     24  C   UNL     1       3.620   4.539  17.495  0.00  0.00    +0.000 A 
ATOM     25  C   UNL     1       4.245   4.101  16.304  0.00  0.00    +0.000 A 
BRANCH  24  26
ATOM     26  C   UNL     1       2.442   3.721  17.968  0.00  0.00    +0.000 C 
ATOM     27  F   UNL     1       2.177   2.595  17.263  0.00  0.00    +0.000 F 
ATOM     28  F   UNL     1       2.608   3.321  19.264  0.00  0.00    +0.000 F 
ATOM     29  F   UNL     1       1.289   4.450  17.968  0.00  0.00    +0.000 F 
ENDBRANCH  24  26
BRANCH  20  31
ATOM     30  N   UNL     1       6.440   3.951  13.578  0.00  0.00    +0.000 NA
ATOM     31  C   UNL     1       5.941   4.319  14.551  0.00  0.00    +0.000 C 
ENDBRANCH  20  31
ENDBRANCH  19  23
ENDBRANCH   1  19
TORSDOF 9
ENDMDL
MODEL 3
REMARK VINA RESULT:      -7.9      3.499      9.067
REMARK  Name = 
REMARK  9 active torsions:
REMARK  status: ('A' for Active; 'I' for Inactive)
REMARK    1  A    between atoms: C_2  and  C_3
REMARK    2  A    between atoms: C_6  and  O_7
REMARK    3  A    between atoms: O_7  and  C_8
REMARK    4  A    between atoms: C_11  and  C_12
REMARK    5  A    between atoms: C_16  and  C_17
REMARK    6  A    between atoms: C_17  and  O_18
REMARK    7  A    between atoms: C_17  and  C_19
REMARK    8  A    between atoms: C_19  and  O_20
REMARK    9  A    between atoms: C_24  and  C_25
REMARK                            x       y       z     vdW  Elec       q    Type
REMARK                         _______ _______ _______ _____ _____    ______ ____
ROOT
ATOM      1  C   UNL     1       1.070   9.082  19.645  0.00  0.00    +0.000 A 
ATOM      2  C   UNL     1       1.405   8.000  20.454  0.00  0.00    +0.000 A 
ATOM      3  C   UNL     1       2.286   7.009  19.984  0.00  0.00    +0.000 A 
ATOM      4  C   UNL     1       2.847   7.063  18.688  0.00  0.00    +0.000 A 
ATOM      5  C   UNL     1       2.520   8.180  17.905  0.00  0.00    +0.000 A 
ATOM      6  C   UNL     1       1.621   9.157  18.356  0.00  0.00    +0.000 A 
ENDROOT
BRANCH   4   7
ATOM      7  C   UNL     1       3.686   5.966  18.137  0.00  0.00    +0.000 A 
ATOM      8  C   UNL     1       3.108   4.836  17.557  0.00  0.00    +0.000 A 
ATOM      9  C   UNL     1       3.919   3.849  17.009  0.00  0.00    +0.000 A 
ATOM     10  C   UNL     1       5.297   4.004  17.049  0.00  0.00    +0.000 A 
ATOM     11  C   UNL     1       5.827   5.153  17.630  0.00  0.00    +0.000 A 
ATOM     12  N   UNL     1       5.042   6.141  18.162  0.00  0.00    +0.000 NA
BRANCH  11  13
ATOM     13  C   UNL     1       7.341   5.304  17.709  0.00  0.00    +0.000 C 
BRANCH  13  14
ATOM     14  O   UNL     1       7.940   4.014  17.845  0.00  0.00    +0.000 OA
ATOM     15  H   UNL     1       7.263   3.460  18.278  0.00  0.00    +0.000 HD
ENDBRANCH  13  14
BRANCH  13  16
ATOM     16  C   UNL     1       7.784   6.211  18.869  0.00  0.00    +0.000 C 
BRANCH  16  17
ATOM     17  O   UNL     1       8.195   5.454  20.011  0.00  0.00    +0.000 OA
ATOM     18  H   UNL     1       7.799   5.895  20.791  0.00  0.00    +0.000 HD
ENDBRANCH  16  17
ENDBRANCH  13  16
ENDBRANCH  11  13
ENDBRANCH   4   7
BRANCH   1  19
ATOM     19  O   UNL     1       0.174  10.010  20.151  0.00  0.00    +0.000 OA
BRANCH  19  23
ATOM     20  C   UNL     1       0.822  14.028  19.144  0.00  0.00    +0.000 A 
ATOM     21  C   UNL     1       1.521  13.453  20.201  0.00  0.00    +0.000 A 
ATOM     22  C   UNL     1       1.255  12.137  20.565  0.00  0.00    +0.000 A 
ATOM     23  C   UNL     1       0.347  11.345  19.838  0.00  0.00    +0.000 A 
ATOM     24  C   UNL     1      -0.413  11.936  18.811  0.00  0.00    +0.000 A 
ATOM     25  C   UNL     1      -0.148  13.283  18.471  0.00  0.00    +0.000 A 
BRANCH  24  26
ATOM     26  C   UNL     1      -1.516  11.257  18.036  0.00  0.00    +0.000 C 
ATOM     27  F   UNL     1      -1.155  10.167  17.317  0.00  0.00    +0.000 F 
ATOM     28  F   UNL     1      -2.519  10.842  18.866  0.00  0.00    +0.000 F 
ATOM     29  F   UNL     1      -2.115  12.111  17.157  0.00  0.00    +0.000 F 
ENDBRANCH  24  26
BRANCH  20  31
ATOM     30  N   UNL     1       1.276  16.482  18.475  0.00  0.00    +0.000 NA
ATOM     31  C   UNL     1       1.077  15.382  18.763  0.00  0.00    +0.000 C 
ENDBRANCH  20  31
ENDBRANCH  19  23
ENDBRANCH   1  19
TORSDOF 9
ENDMDL
MODEL 4
REMARK VINA RESULT:      -7.9      1.947      2.660
REMARK  Name = 
REMARK  9 active torsions:
REMARK  status: ('A' for Active; 'I' for Inactive)
REMARK    1  A    between atoms: C_2  and  C_3
REMARK    2  A    between atoms: C_6  and  O_7
REMARK    3  A    between atoms: O_7  and  C_8
REMARK    4  A    between atoms: C_11  and  C_12
REMARK    5  A    between atoms: C_16  and  C_17
REMARK    6  A    between atoms: C_17  and  O_18
REMARK    7  A    between atoms: C_17  and  C_19
REMARK    8  A    between atoms: C_19  and  O_20
REMARK    9  A    between atoms: C_24  and  C_25
REMARK                            x       y       z     vdW  Elec       q    Type
REMARK                         _______ _______ _______ _____ _____    ______ ____
ROOT
ATOM      1  C   UNL     1       2.701   7.139  19.165  0.00  0.00    +0.000 A 
ATOM      2  C   UNL     1       2.045   7.437  20.357  0.00  0.00    +0.000 A 
ATOM      3  C   UNL     1       1.112   8.488  20.410  0.00  0.00    +0.000 A 
ATOM      4  C   UNL     1       0.817   9.281  19.278  0.00  0.00    +0.000 A 
ATOM      5  C   UNL     1       1.466   8.939  18.082  0.00  0.00    +0.000 A 
ATOM      6  C   UNL     1       2.417   7.912  18.028  0.00  0.00    +0.000 A 
ENDROOT
BRANCH   4   7
ATOM      7  C   UNL     1      -0.079  10.466  19.347  0.00  0.00    +0.000 A 
ATOM      8  C   UNL     1      -0.789  10.901  18.226  0.00  0.00    +0.000 A 
ATOM      9  C   UNL     1      -1.654  11.984  18.334  0.00  0.00    +0.000 A 
ATOM     10  C   UNL     1      -1.796  12.619  19.559  0.00  0.00    +0.000 A 
ATOM     11  C   UNL     1      -1.074  12.143  20.651  0.00  0.00    +0.000 A 
ATOM     12  N   UNL     1      -0.228  11.069  20.565  0.00  0.00    +0.000 NA
BRANCH  11  13
ATOM     13  C   UNL     1      -1.201  12.865  21.986  0.00  0.00    +0.000 C 
BRANCH  13  14
ATOM     14  O   UNL     1       0.065  13.425  22.345  0.00  0.00    +0.000 OA
ATOM     15  H   UNL     1       0.624  13.325  21.551  0.00  0.00    +0.000 HD
ENDBRANCH  13  14
BRANCH  13  16
ATOM     16  C   UNL     1      -1.701  11.943  23.111  0.00  0.00    +0.000 C 
BRANCH  16  17
ATOM     17  O   UNL     1      -0.791  10.869  23.365  0.00  0.00    +0.000 OA
ATOM     18  H   UNL     1      -1.260  10.245  23.957  0.00  0.00    +0.000 HD
ENDBRANCH  16  17
ENDBRANCH  13  16
ENDBRANCH  11  13
ENDBRANCH   4   7
BRANCH   1  19
ATOM     19  O   UNL     1       3.631   6.113  19.182  0.00  0.00    +0.000 OA
BRANCH  19  23
ATOM     20  C   UNL     1       5.377   4.758  15.619  0.00  0.00    +0.000 A 
ATOM     21  C   UNL     1       5.804   5.950  16.195  0.00  0.00    +0.000 A 
ATOM     22  C   UNL     1       5.178   6.422  17.344  0.00  0.00    +0.000 A 
ATOM     23  C   UNL     1       4.168   5.678  17.985  0.00  0.00    +0.000 A 
ATOM     24  C   UNL     1       3.684   4.507  17.375  0.00  0.00    +0.000 A 
ATOM     25  C   UNL     1       4.314   4.056  16.192  0.00  0.00    +0.000 A 
BRANCH  24  26
ATOM     26  C   UNL     1       2.520   3.681  17.866  0.00  0.00    +0.000 C 
ATOM     27  F   UNL     1       2.290   2.522  17.203  0.00  0.00    +0.000 F 
ATOM     28  F   UNL     1       2.679   3.335  19.178  0.00  0.00    +0.000 F 
ATOM     29  F   UNL     1       1.350   4.381  17.825  0.00  0.00    +0.000 F 
ENDBRANCH  24  26
BRANCH  20  31
ATOM     30  N   UNL     1       6.509   3.887  13.467  0.00  0.00    +0.000 NA
ATOM     31  C   UNL     1       6.004   4.265  14.432  0.00  0.00    +0.000 C 
ENDBRANCH  20  31
ENDBRANCH  19  23
ENDBRANCH   1  19
TORSDOF 9
ENDMDL
MODEL 5
REMARK VINA RESULT:      -7.9      0.655      1.100
REMARK  Name = 
REMARK  9 active torsions:
REMARK  status: ('A' for Active; 'I' for Inactive)
REMARK    1  A    between atoms: C_2  and  C_3
REMARK    2  A    between atoms: C_6  and  O_7
REMARK    3  A    between atoms: O_7  and  C_8
REMARK    4  A    between atoms: C_11  and  C_12
REMARK    5  A    between atoms: C_16  and  C_17
REMARK    6  A    between atoms: C_17  and  O_18
REMARK    7  A    between atoms: C_17  and  C_19
REMARK    8  A    between atoms: C_19  and  O_20
REMARK    9  A    between atoms: C_24  and  C_25
REMARK                            x       y       z     vdW  Elec       q    Type
REMARK                         _______ _______ _______ _____ _____    ______ ____
ROOT
ATOM      1  C   UNL     1       2.637   7.235  19.227  0.00  0.00    +0.000 A 
ATOM      2  C   UNL     1       1.954   7.526  20.405  0.00  0.00    +0.000 A 
ATOM      3  C   UNL     1       1.019   8.576  20.441  0.00  0.00    +0.000 A 
ATOM      4  C   UNL     1       0.747   9.373  19.307  0.00  0.00    +0.000 A 
ATOM      5  C   UNL     1       1.423   9.038  18.124  0.00  0.00    +0.000 A 
ATOM      6  C   UNL     1       2.377   8.012  18.087  0.00  0.00    +0.000 A 
ENDROOT
BRANCH   4   7
ATOM      7  C   UNL     1      -0.151  10.556  19.361  0.00  0.00    +0.000 A 
ATOM      8  C   UNL     1       0.275  11.762  19.921  0.00  0.00    +0.000 A 
ATOM      9  C   UNL     1      -0.572  12.865  19.915  0.00  0.00    +0.000 A 
ATOM     10  C   UNL     1      -1.835  12.746  19.352  0.00  0.00    +0.000 A 
ATOM     11  C   UNL     1      -2.212  11.526  18.798  0.00  0.00    +0.000 A 
ATOM     12  N   UNL     1      -1.384  10.434  18.784  0.00  0.00    +0.000 NA
BRANCH  11  13
ATOM     13  C   UNL     1      -3.613  11.385  18.215  0.00  0.00    +0.000 C 
BRANCH  13  14
ATOM     14  O   UNL     1      -3.630  11.919  16.889  0.00  0.00    +0.000 OA
ATOM     15  H   UNL     1      -3.126  12.752  16.941  0.00  0.00    +0.000 HD
ENDBRANCH  13  14
BRANCH  13  16
ATOM     16  C   UNL     1      -4.682  12.082  19.073  0.00  0.00    +0.000 C 
BRANCH  16  17
ATOM     17  O   UNL     1      -5.322  13.149  18.365  0.00  0.00    +0.000 OA
ATOM     18  H   UNL     1      -6.235  13.202  18.715  0.00  0.00    +0.000 HD
ENDBRANCH  16  17
ENDBRANCH  13  16
ENDBRANCH  11  13
ENDBRANCH   4   7
BRANCH   1  19
ATOM     19  O   UNL     1       3.569   6.210  19.260  0.00  0.00    +0.000 OA
BRANCH  19  23
ATOM     20  C   UNL     1       5.381   4.857  15.729  0.00  0.00    +0.000 A 
ATOM     21  C   UNL     1       5.834   6.020  16.344  0.00  0.00    +0.000 A 
ATOM     22  C   UNL     1       5.188   6.494  17.481  0.00  0.00    +0.000 A 
ATOM     23  C   UNL     1       4.129   5.778  18.072  0.00  0.00    +0.000 A 
ATOM     24  C   UNL     1       3.621   4.639  17.422  0.00  0.00    +0.000 A 
ATOM     25  C   UNL     1       4.273   4.186  16.252  0.00  0.00    +0.000 A 
BRANCH  24  26
ATOM     26  C   UNL     1       2.410   3.850  17.858  0.00  0.00    +0.000 C 
ATOM     27  F   UNL     1       2.387   3.460  19.155  0.00  0.00    +0.000 F 
ATOM     28  F   UNL     1       1.260   4.562  17.662  0.00  0.00    +0.000 F 
ATOM     29  F   UNL     1       2.253   2.715  17.117  0.00  0.00    +0.000 F 
ENDBRANCH  24  26
BRANCH  20  31
ATOM     30  N   UNL     1       6.538   3.976  13.594  0.00  0.00    +0.000 NA
ATOM     31  C   UNL     1       6.028   4.363  14.554  0.00  0.00    +0.000 C 
ENDBRANCH  20  31
ENDBRANCH  19  23
ENDBRANCH   1  19
TORSDOF 9
ENDMDL
MODEL 6
REMARK VINA RESULT:      -7.8      1.855      2.647
REMARK  Name = 
REMARK  9 active torsions:
REMARK  status: ('A' for Active; 'I' for Inactive)
REMARK    1  A    between atoms: C_2  and  C_3
REMARK    2  A    between atoms: C_6  and  O_7
REMARK    3  A    between atoms: O_7  and  C_8
REMARK    4  A    between atoms: C_11  and  C_12
REMARK    5  A    between atoms: C_16  and  C_17
REMARK    6  A    between atoms: C_17  and  O_18
REMARK    7  A    between atoms: C_17  and  C_19
REMARK    8  A    between atoms: C_19  and  O_20
REMARK    9  A    between atoms: C_24  and  C_25
REMARK                            x       y       z     vdW  Elec       q    Type
REMARK                         _______ _______ _______ _____ _____    ______ ____
ROOT
ATOM      1  C   UNL     1       2.662   7.002  19.450  0.00  0.00    +0.000 A 
ATOM      2  C   UNL     1       2.469   7.723  18.275  0.00  0.00    +0.000 A 
ATOM      3  C   UNL     1       1.588   8.820  18.253  0.00  0.00    +0.000 A 
ATOM      4  C   UNL     1       0.865   9.220  19.399  0.00  0.00    +0.000 A 
ATOM      5  C   UNL     1       1.103   8.498  20.579  0.00  0.00    +0.000 A 
ATOM      6  C   UNL     1       1.957   7.387  20.601  0.00  0.00    +0.000 A 
ENDROOT
BRANCH   4   7
ATOM      7  C   UNL     1      -0.153  10.302  19.362  0.00  0.00    +0.000 A 
ATOM      8  C   UNL     1      -0.874  10.576  18.197  0.00  0.00    +0.000 A 
ATOM      9  C   UNL     1      -1.852  11.564  18.206  0.00  0.00    +0.000 A 
ATOM     10  C   UNL     1      -2.095  12.266  19.377  0.00  0.00    +0.000 A 
ATOM     11  C   UNL     1      -1.358  11.952  20.516  0.00  0.00    +0.000 A 
ATOM     12  N   UNL     1      -0.400  10.972  20.527  0.00  0.00    +0.000 NA
BRANCH  11  13
ATOM     13  C   UNL     1      -1.599  12.750  21.791  0.00  0.00    +0.000 C 
BRANCH  13  14
ATOM     14  O   UNL     1      -0.440  13.533  22.086  0.00  0.00    +0.000 OA
ATOM     15  H   UNL     1      -0.379  14.184  21.362  0.00  0.00    +0.000 HD
ENDBRANCH  13  14
BRANCH  13  16
ATOM     16  C   UNL     1      -1.944  11.854  22.992  0.00  0.00    +0.000 C 
BRANCH  16  17
ATOM     17  O   UNL     1      -0.860  10.988  23.341  0.00  0.00    +0.000 OA
ATOM     18  H   UNL     1      -0.193  11.082  22.630  0.00  0.00    +0.000 HD
ENDBRANCH  16  17
ENDBRANCH  13  16
ENDBRANCH  11  13
ENDBRANCH   4   7
BRANCH   1  19
ATOM     19  O   UNL     1       3.517   5.913  19.403  0.00  0.00    +0.000 OA
BRANCH  19  23
ATOM     20  C   UNL     1       5.349   4.798  15.800  0.00  0.00    +0.000 A 
ATOM     21  C   UNL     1       5.793   5.922  16.489  0.00  0.00    +0.000 A 
ATOM     22  C   UNL     1       5.140   6.319  17.652  0.00  0.00    +0.000 A 
ATOM     23  C   UNL     1       4.084   5.561  18.193  0.00  0.00    +0.000 A 
ATOM     24  C   UNL     1       3.585   4.462  17.470  0.00  0.00    +0.000 A 
ATOM     25  C   UNL     1       4.244   4.089  16.276  0.00  0.00    +0.000 A 
BRANCH  24  26
ATOM     26  C   UNL     1       2.377   3.640  17.849  0.00  0.00    +0.000 C 
ATOM     27  F   UNL     1       2.323   3.219  19.136  0.00  0.00    +0.000 F 
ATOM     28  F   UNL     1       1.220   4.334  17.634  0.00  0.00    +0.000 F 
ATOM     29  F   UNL     1       2.266   2.519  17.079  0.00  0.00    +0.000 F 
ENDBRANCH  24  26
BRANCH  20  31
ATOM     30  N   UNL     1       6.516   4.058  13.618  0.00  0.00    +0.000 NA
ATOM     31  C   UNL     1       6.003   4.383  14.599  0.00  0.00    +0.000 C 
ENDBRANCH  20  31
ENDBRANCH  19  23
ENDBRANCH   1  19
TORSDOF 9
ENDMDL
MODEL 7
REMARK VINA RESULT:      -7.8      3.572      8.977
REMARK  Name = 
REMARK  9 active torsions:
REMARK  status: ('A' for Active; 'I' for Inactive)
REMARK    1  A    between atoms: C_2  and  C_3
REMARK    2  A    between atoms: C_6  and  O_7
REMARK    3  A    between atoms: O_7  and  C_8
REMARK    4  A    between atoms: C_11  and  C_12
REMARK    5  A    between atoms: C_16  and  C_17
REMARK    6  A    between atoms: C_17  and  O_18
REMARK    7  A    between atoms: C_17  and  C_19
REMARK    8  A    between atoms: C_19  and  O_20
REMARK    9  A    between atoms: C_24  and  C_25
REMARK                            x       y       z     vdW  Elec       q    Type
REMARK                         _______ _______ _______ _____ _____    ______ ____
ROOT
ATOM      1  C   UNL     1       1.090   9.085  19.850  0.00  0.00    +0.000 A 
ATOM      2  C   UNL     1       1.508   9.186  18.525  0.00  0.00    +0.000 A 
ATOM      3  C   UNL     1       2.275   8.162  17.943  0.00  0.00    +0.000 A 
ATOM      4  C   UNL     1       2.659   7.013  18.670  0.00  0.00    +0.000 A 
ATOM      5  C   UNL     1       2.198   6.919  19.992  0.00  0.00    +0.000 A 
ATOM      6  C   UNL     1       1.457   7.948  20.587  0.00  0.00    +0.000 A 
ENDROOT
BRANCH   4   7
ATOM      7  C   UNL     1       3.565   5.978  18.104  0.00  0.00    +0.000 A 
ATOM      8  C   UNL     1       3.063   4.779  17.594  0.00  0.00    +0.000 A 
ATOM      9  C   UNL     1       3.931   3.851  17.029  0.00  0.00    +0.000 A 
ATOM     10  C   UNL     1       5.288   4.133  16.985  0.00  0.00    +0.000 A 
ATOM     11  C   UNL     1       5.741   5.345  17.498  0.00  0.00    +0.000 A 
ATOM     12  N   UNL     1       4.898   6.276  18.045  0.00  0.00    +0.000 NA
BRANCH  11  13
ATOM     13  C   UNL     1       7.236   5.636  17.484  0.00  0.00    +0.000 C 
BRANCH  13  14
ATOM     14  O   UNL     1       7.937   4.496  16.981  0.00  0.00    +0.000 OA
ATOM     15  H   UNL     1       8.555   4.241  17.692  0.00  0.00    +0.000 HD
ENDBRANCH  13  14
BRANCH  13  16
ATOM     16  C   UNL     1       7.778   6.012  18.873  0.00  0.00    +0.000 C 
BRANCH  16  17
ATOM     17  O   UNL     1       7.036   5.384  19.923  0.00  0.00    +0.000 OA
ATOM     18  H   UNL     1       6.265   5.962  20.098  0.00  0.00    +0.000 HD
ENDBRANCH  16  17
ENDBRANCH  13  16
ENDBRANCH  11  13
ENDBRANCH   4   7
BRANCH   1  19
ATOM     19  O   UNL     1       0.363  10.140  20.377  0.00  0.00    +0.000 OA
BRANCH  19  23
ATOM     20  C   UNL     1       1.385  13.994  19.081  0.00  0.00    +0.000 A 
ATOM     21  C   UNL     1       2.133  13.372  20.077  0.00  0.00    +0.000 A 
ATOM     22  C   UNL     1       1.750  12.119  20.542  0.00  0.00    +0.000 A 
ATOM     23  C   UNL     1       0.664  11.427  19.973  0.00  0.00    +0.000 A 
ATOM     24  C   UNL     1      -0.137  12.073  19.014  0.00  0.00    +0.000 A 
ATOM     25  C   UNL     1       0.251  13.359  18.571  0.00  0.00    +0.000 A 
BRANCH  24  26
ATOM     26  C   UNL     1      -1.407  11.518  18.416  0.00  0.00    +0.000 C 
ATOM     27  F   UNL     1      -1.329  10.262  17.913  0.00  0.00    +0.000 F 
ATOM     28  F   UNL     1      -2.416  11.489  19.337  0.00  0.00    +0.000 F 
ATOM     29  F   UNL     1      -1.874  12.304  17.403  0.00  0.00    +0.000 F 
ENDBRANCH  24  26
BRANCH  20  31
ATOM     30  N   UNL     1       2.082  16.327  18.219  0.00  0.00    +0.000 NA
ATOM     31  C   UNL     1       1.760  15.287  18.599  0.00  0.00    +0.000 C 
ENDBRANCH  20  31
ENDBRANCH  19  23
ENDBRANCH   1  19
TORSDOF 9
ENDMDL
MODEL 8
REMARK VINA RESULT:      -7.8      1.862      2.439
REMARK  Name = 
REMARK  9 active torsions:
REMARK  status: ('A' for Active; 'I' for Inactive)
REMARK    1  A    between atoms: C_2  and  C_3
REMARK    2  A    between atoms: C_6  and  O_7
REMARK    3  A    between atoms: O_7  and  C_8
REMARK    4  A    between atoms: C_11  and  C_12
REMARK    5  A    between atoms: C_16  and  C_17
REMARK    6  A    between atoms: C_17  and  O_18
REMARK    7  A    between atoms: C_17  and  C_19
REMARK    8  A    between atoms: C_19  and  O_20
REMARK    9  A    between atoms: C_24  and  C_25
REMARK                            x       y       z     vdW  Elec       q    Type
REMARK                         _______ _______ _______ _____ _____    ______ ____
ROOT
ATOM      1  C   UNL     1       2.445   7.198  19.252  0.00  0.00    +0.000 A 
ATOM      2  C   UNL     1       1.854   7.634  20.435  0.00  0.00    +0.000 A 
ATOM      3  C   UNL     1       1.097   8.819  20.455  0.00  0.00    +0.000 A 
ATOM      4  C   UNL     1       0.918   9.610  19.298  0.00  0.00    +0.000 A 
ATOM      5  C   UNL     1       1.495   9.133  18.112  0.00  0.00    +0.000 A 
ATOM      6  C   UNL     1       2.274   7.968  18.090  0.00  0.00    +0.000 A 
ENDROOT
BRANCH   4   7
ATOM      7  C   UNL     1       0.219  10.922  19.330  0.00  0.00    +0.000 A 
ATOM      8  C   UNL     1      -1.170  10.997  19.452  0.00  0.00    +0.000 A 
ATOM      9  C   UNL     1      -1.791  12.239  19.526  0.00  0.00    +0.000 A 
ATOM     10  C   UNL     1      -1.016  13.388  19.474  0.00  0.00    +0.000 A 
ATOM     11  C   UNL     1       0.366  13.263  19.362  0.00  0.00    +0.000 A 
ATOM     12  N   UNL     1       0.995  12.047  19.302  0.00  0.00    +0.000 NA
BRANCH  11  13
ATOM     13  C   UNL     1       1.213  14.526  19.267  0.00  0.00    +0.000 C 
BRANCH  13  14
ATOM     14  O   UNL     1       0.453  15.561  18.638  0.00  0.00    +0.000 OA
ATOM     15  H   UNL     1      -0.201  15.841  19.306  0.00  0.00    +0.000 HD
ENDBRANCH  13  14
BRANCH  13  16
ATOM     16  C   UNL     1       2.525  14.301  18.497  0.00  0.00    +0.000 C 
BRANCH  16  17
ATOM     17  O   UNL     1       2.325  13.512  17.320  0.00  0.00    +0.000 OA
ATOM     18  H   UNL     1       3.075  12.885  17.279  0.00  0.00    +0.000 HD
ENDBRANCH  16  17
ENDBRANCH  13  16
ENDBRANCH  11  13
ENDBRANCH   4   7
BRANCH   1  19
ATOM     19  O   UNL     1       3.204   6.041  19.300  0.00  0.00    +0.000 OA
BRANCH  19  23
ATOM     20  C   UNL     1       5.259   4.709  15.896  0.00  0.00    +0.000 A 
ATOM     21  C   UNL     1       5.626   5.903  16.510  0.00  0.00    +0.000 A 
ATOM     22  C   UNL     1       4.900   6.367  17.602  0.00  0.00    +0.000 A 
ATOM     23  C   UNL     1       3.845   5.614  18.152  0.00  0.00    +0.000 A 
ATOM     24  C   UNL     1       3.423   4.441  17.500  0.00  0.00    +0.000 A 
ATOM     25  C   UNL     1       4.157   3.998  16.375  0.00  0.00    +0.000 A 
BRANCH  24  26
ATOM     26  C   UNL     1       2.228   3.604  17.888  0.00  0.00    +0.000 C 
ATOM     27  F   UNL     1       2.111   3.306  19.205  0.00  0.00    +0.000 F 
ATOM     28  F   UNL     1       1.060   4.222  17.540  0.00  0.00    +0.000 F 
ATOM     29  F   UNL     1       2.209   2.412  17.225  0.00  0.00    +0.000 F 
ENDBRANCH  24  26
BRANCH  20  31
ATOM     30  N   UNL     1       6.567   3.846  13.843  0.00  0.00    +0.000 NA
ATOM     31  C   UNL     1       5.989   4.225  14.767  0.00  0.00    +0.000 C 
ENDBRANCH  20  31
ENDBRANCH  19  23
ENDBRANCH   1  19
TORSDOF 9
ENDMDL
MODEL 9
REMARK VINA RESULT:      -7.8      4.195      9.141
REMARK  Name = 
REMARK  9 active torsions:
REMARK  status: ('A' for Active; 'I' for Inactive)
REMARK    1  A    between atoms: C_2  and  C_3
REMARK    2  A    between atoms: C_6  and  O_7
REMARK    3  A    between atoms: O_7  and  C_8
REMARK    4  A    between atoms: C_11  and  C_12
REMARK    5  A    between atoms: C_16  and  C_17
REMARK    6  A    between atoms: C_17  and  O_18
REMARK    7  A    between atoms: C_17  and  C_19
REMARK    8  A    between atoms: C_19  and  O_20
REMARK    9  A    between atoms: C_24  and  C_25
REMARK                            x       y       z     vdW  Elec       q    Type
REMARK                         _______ _______ _______ _____ _____    ______ ____
ROOT
ATOM      1  C   UNL     1       1.217   9.658  18.952  0.00  0.00    +0.000 A 
ATOM      2  C   UNL     1       1.887   9.191  17.823  0.00  0.00    +0.000 A 
ATOM      3  C   UNL     1       2.524   7.937  17.845  0.00  0.00    +0.000 A 
ATOM      4  C   UNL     1       2.522   7.119  18.998  0.00  0.00    +0.000 A 
ATOM      5  C   UNL     1       1.812   7.598  20.110  0.00  0.00    +0.000 A 
ATOM      6  C   UNL     1       1.199   8.858  20.105  0.00  0.00    +0.000 A 
ENDROOT
BRANCH   4   7
ATOM      7  C   UNL     1       3.286   5.846  19.073  0.00  0.00    +0.000 A 
ATOM      8  C   UNL     1       4.654   5.808  18.794  0.00  0.00    +0.000 A 
ATOM      9  C   UNL     1       5.351   4.611  18.918  0.00  0.00    +0.000 A 
ATOM     10  C   UNL     1       4.671   3.469  19.316  0.00  0.00    +0.000 A 
ATOM     11  C   UNL     1       3.310   3.559  19.591  0.00  0.00    +0.000 A 
ATOM     12  N   UNL     1       2.611   4.733  19.487  0.00  0.00    +0.000 NA
BRANCH  11  13
ATOM     13  C   UNL     1       2.556   2.296  19.990  0.00  0.00    +0.000 C 
BRANCH  13  14
ATOM     14  O   UNL     1       1.860   1.780  18.853  0.00  0.00    +0.000 OA
ATOM     15  H   UNL     1       2.531   1.721  18.147  0.00  0.00    +0.000 HD
ENDBRANCH  13  14
BRANCH  13  16
ATOM     16  C   UNL     1       1.568   2.537  21.142  0.00  0.00    +0.000 C 
BRANCH  16  17
ATOM     17  O   UNL     1       2.159   3.292  22.205  0.00  0.00    +0.000 OA
ATOM     18  H   UNL     1       2.741   2.673  22.691  0.00  0.00    +0.000 HD
ENDBRANCH  16  17
ENDBRANCH  13  16
ENDBRANCH  11  13
ENDBRANCH   4   7
BRANCH   1  19
ATOM     19  O   UNL     1       0.635  10.913  18.880  0.00  0.00    +0.000 OA
BRANCH  19  23
ATOM     20  C   UNL     1      -3.497  11.086  18.192  0.00  0.00    +0.000 A 
ATOM     21  C   UNL     1      -2.724  10.123  17.551  0.00  0.00    +0.000 A 
ATOM     22  C   UNL     1      -1.345  10.112  17.739  0.00  0.00    +0.000 A 
ATOM     23  C   UNL     1      -0.720  11.008  18.627  0.00  0.00    +0.000 A 
ATOM     24  C   UNL     1      -1.483  12.027  19.227  0.00  0.00    +0.000 A 
ATOM     25  C   UNL     1      -2.879  12.039  19.004  0.00  0.00    +0.000 A 
BRANCH  24  26
ATOM     26  C   UNL     1      -0.936  13.138  20.089  0.00  0.00    +0.000 C 
ATOM     27  F   UNL     1       0.068  13.871  19.551  0.00  0.00    +0.000 F 
ATOM     28  F   UNL     1      -1.914  14.032  20.422  0.00  0.00    +0.000 F 
ATOM     29  F   UNL     1      -0.466  12.669  21.281  0.00  0.00    +0.000 F 
ENDBRANCH  24  26
BRANCH  20  31
ATOM     30  N   UNL     1      -6.056  11.163  17.846  0.00  0.00    +0.000 NA
ATOM     31  C   UNL     1      -4.913  11.117  18.001  0.00  0.00    +0.000 C 
ENDBRANCH  20  31
ENDBRANCH  19  23
ENDBRANCH   1  19
TORSDOF 9
ENDMDL
