MODEL 1
REMARK VINA RESULT:      -9.3      0.000      0.000
REMARK  Name = 
REMARK  5 active torsions:
REMARK  status: ('A' for Active; 'I' for Inactive)
REMARK    1  A    between atoms: C_1  and  C_2
REMARK    2  A    between atoms: C_5  and  S_6
REMARK    3  A    between atoms: S_6  and  N_9
REMARK    4  A    between atoms: C_10  and  C_11
REMARK    5  A    between atoms: C_11  and  O_12
REMARK                            x       y       z     vdW  Elec       q    Type
REMARK                         _______ _______ _______ _____ _____    ______ ____
ROOT
ATOM      1  N   UNL     1       6.116   4.390  16.901  0.00  0.00    +0.000 N 
ATOM      2  C   UNL     1       4.870   3.751  17.026  0.00  0.00    +0.000 A 
ATOM      3  C   UNL     1       4.408   3.559  15.732  0.00  0.00    +0.000 A 
ATOM      4  C   UNL     1       5.391   4.011  14.817  0.00  0.00    +0.000 A 
ATOM      5  C   UNL     1       5.431   4.065  13.409  0.00  0.00    +0.000 A 
ATOM      6  C   UNL     1       6.567   4.548  12.759  0.00  0.00    +0.000 A 
ATOM      7  C   UNL     1       7.673   4.939  13.492  0.00  0.00    +0.000 A 
ATOM      8  C   UNL     1       7.660   4.867  14.888  0.00  0.00    +0.000 A 
ATOM      9  C   UNL     1       6.496   4.449  15.559  0.00  0.00    +0.000 A 
ENDROOT
BRANCH   2  10
ATOM     10  C   UNL     1       4.143   3.451  18.316  0.00  0.00    +0.000 C 
ATOM     11  C   UNL     1       3.156   2.297  18.326  0.00  0.00    +0.000 C 
ATOM     12  C   UNL     1       2.423   2.062  19.434  0.00  0.00    +0.000 C 
ATOM     13  C   UNL     1       2.486   3.049  20.557  0.00  0.00    +0.000 C 
ATOM     14  O   UNL     1       2.199   2.738  21.703  0.00  0.00    +0.000 OA
ATOM     15  C   UNL     1       2.739   4.452  20.129  0.00  0.00    +0.000 A 
ATOM     16  C   UNL     1       2.109   5.500  20.805  0.00  0.00    +0.000 A 
ATOM     17  C   UNL     1       2.057   6.759  20.210  0.00  0.00    +0.000 A 
ATOM     18  C   UNL     1       2.619   6.957  18.948  0.00  0.00    +0.000 A 
ATOM     19  C   UNL     1       3.307   5.921  18.308  0.00  0.00    +0.000 A 
ATOM     20  C   UNL     1       3.420   4.659  18.913  0.00  0.00    +0.000 A 
BRANCH  10  21
ATOM     21  O   UNL     1       5.143   2.990  19.217  0.00  0.00    +0.000 OA
ATOM     22  H   UNL     1       6.005   3.346  18.938  0.00  0.00    +0.000 HD
ENDBRANCH  10  21
ENDBRANCH   2  10
BRANCH   1  23
ATOM     23  S   UNL     1       7.153   4.811  18.224  0.00  0.00    +0.000 S 
ATOM     24  O   UNL     1       8.388   4.107  17.941  0.00  0.00    +0.000 OA
ATOM     25  O   UNL     1       6.374   4.623  19.435  0.00  0.00    +0.000 OA
BRANCH  23  30
ATOM     26  C   UNL     1       8.425  10.716  17.775  0.00  0.00    +0.000 C 
ATOM     27  C   UNL     1       8.070   9.269  17.957  0.00  0.00    +0.000 A 
ATOM     28  C   UNL     1       8.772   8.464  18.865  0.00  0.00    +0.000 A 
ATOM     29  C   UNL     1       8.462   7.109  18.994  0.00  0.00    +0.000 A 
ATOM     30  C   UNL     1       7.472   6.552  18.177  0.00  0.00    +0.000 A 
ATOM     31  C   UNL     1       6.723   7.355  17.312  0.00  0.00    +0.000 A 
ATOM     32  C   UNL     1       7.029   8.710  17.202  0.00  0.00    +0.000 A 
ENDBRANCH  23  30
ENDBRANCH   1  23
TORSDOF 4
ENDMDL
MODEL 2
REMARK VINA RESULT:      -8.1      7.841     10.711
REMARK  Name = 
REMARK  5 active torsions:
REMARK  status: ('A' for Active; 'I' for Inactive)
REMARK    1  A    between atoms: C_1  and  C_2
REMARK    2  A    between atoms: C_5  and  S_6
REMARK    3  A    between atoms: S_6  and  N_9
REMARK    4  A    between atoms: C_10  and  C_11
REMARK    5  A    between atoms: C_11  and  O_12
REMARK                            x       y       z     vdW  Elec       q    Type
REMARK                         _______ _______ _______ _____ _____    ______ ____
ROOT
ATOM      1  N   UNL     1      -1.167  11.477  20.373  0.00  0.00    +0.000 N 
ATOM      2  C   UNL     1      -1.945  12.513  20.919  0.00  0.00    +0.000 A 
ATOM      3  C   UNL     1      -2.959  12.751  20.003  0.00  0.00    +0.000 A 
ATOM      4  C   UNL     1      -2.848  11.826  18.937  0.00  0.00    +0.000 A 
ATOM      5  C   UNL     1      -3.593  11.637  17.756  0.00  0.00    +0.000 A 
ATOM      6  C   UNL     1      -3.265  10.602  16.878  0.00  0.00    +0.000 A 
ATOM      7  C   UNL     1      -2.232   9.735  17.183  0.00  0.00    +0.000 A 
ATOM      8  C   UNL     1      -1.499   9.891  18.363  0.00  0.00    +0.000 A 
ATOM      9  C   UNL     1      -1.774  10.972  19.222  0.00  0.00    +0.000 A 
ENDROOT
BRANCH   2  10
ATOM     10  C   UNL     1      -1.652  13.279  22.188  0.00  0.00    +0.000 C 
ATOM     11  C   UNL     1      -2.830  13.738  23.030  0.00  0.00    +0.000 C 
ATOM     12  C   UNL     1      -2.607  14.504  24.119  0.00  0.00    +0.000 C 
ATOM     13  C   UNL     1      -1.221  15.014  24.364  0.00  0.00    +0.000 C 
ATOM     14  O   UNL     1      -0.848  15.351  25.477  0.00  0.00    +0.000 OA
ATOM     15  C   UNL     1      -0.423  15.246  23.129  0.00  0.00    +0.000 A 
ATOM     16  C   UNL     1       0.453  16.332  23.070  0.00  0.00    +0.000 A 
ATOM     17  C   UNL     1       0.927  16.758  21.831  0.00  0.00    +0.000 A 
ATOM     18  C   UNL     1       0.517  16.107  20.667  0.00  0.00    +0.000 A 
ATOM     19  C   UNL     1      -0.306  14.978  20.739  0.00  0.00    +0.000 A 
ATOM     20  C   UNL     1      -0.753  14.498  21.980  0.00  0.00    +0.000 A 
BRANCH  10  21
ATOM     21  O   UNL     1      -1.016  12.349  23.055  0.00  0.00    +0.000 OA
ATOM     22  H   UNL     1      -0.271  11.938  22.583  0.00  0.00    +0.000 HD
ENDBRANCH  10  21
ENDBRANCH   2  10
BRANCH   1  23
ATOM     23  S   UNL     1       0.205  10.752  21.146  0.00  0.00    +0.000 S 
ATOM     24  O   UNL     1      -0.375   9.902  22.166  0.00  0.00    +0.000 OA
ATOM     25  O   UNL     1       1.138  11.830  21.425  0.00  0.00    +0.000 OA
BRANCH  23  30
ATOM     26  C   UNL     1       3.401   7.313  17.321  0.00  0.00    +0.000 C 
ATOM     27  C   UNL     1       2.543   8.154  18.220  0.00  0.00    +0.000 A 
ATOM     28  C   UNL     1       2.212   9.471  17.874  0.00  0.00    +0.000 A 
ATOM     29  C   UNL     1       1.450  10.257  18.740  0.00  0.00    +0.000 A 
ATOM     30  C   UNL     1       1.055   9.732  19.975  0.00  0.00    +0.000 A 
ATOM     31  C   UNL     1       1.326   8.402  20.306  0.00  0.00    +0.000 A 
ATOM     32  C   UNL     1       2.073   7.619  19.429  0.00  0.00    +0.000 A 
ENDBRANCH  23  30
ENDBRANCH   1  23
TORSDOF 4
ENDMDL
MODEL 3
REMARK VINA RESULT:      -7.8      8.601     10.813
REMARK  Name = 
REMARK  5 active torsions:
REMARK  status: ('A' for Active; 'I' for Inactive)
REMARK    1  A    between atoms: C_1  and  C_2
REMARK    2  A    between atoms: C_5  and  S_6
REMARK    3  A    between atoms: S_6  and  N_9
REMARK    4  A    between atoms: C_10  and  C_11
REMARK    5  A    between atoms: C_11  and  O_12
REMARK                            x       y       z     vdW  Elec       q    Type
REMARK                         _______ _______ _______ _____ _____    ______ ____
ROOT
ATOM      1  N   UNL     1      -0.986  11.682  19.696  0.00  0.00    +0.000 N 
ATOM      2  C   UNL     1      -1.862  12.452  20.480  0.00  0.00    +0.000 A 
ATOM      3  C   UNL     1      -3.074  12.454  19.807  0.00  0.00    +0.000 A 
ATOM      4  C   UNL     1      -2.967  11.636  18.656  0.00  0.00    +0.000 A 
ATOM      5  C   UNL     1      -3.876  11.308  17.630  0.00  0.00    +0.000 A 
ATOM      6  C   UNL     1      -3.496  10.436  16.609  0.00  0.00    +0.000 A 
ATOM      7  C   UNL     1      -2.239   9.859  16.621  0.00  0.00    +0.000 A 
ATOM      8  C   UNL     1      -1.334  10.152  17.646  0.00  0.00    +0.000 A 
ATOM      9  C   UNL     1      -1.678  11.085  18.642  0.00  0.00    +0.000 A 
ENDROOT
BRANCH   2  10
ATOM     10  C   UNL     1      -1.505  13.213  21.735  0.00  0.00    +0.000 C 
ATOM     11  C   UNL     1      -2.595  13.431  22.770  0.00  0.00    +0.000 C 
ATOM     12  C   UNL     1      -2.335  14.185  23.858  0.00  0.00    +0.000 C 
ATOM     13  C   UNL     1      -1.033  14.921  23.924  0.00  0.00    +0.000 C 
ATOM     14  O   UNL     1      -0.551  15.280  24.988  0.00  0.00    +0.000 OA
ATOM     15  C   UNL     1      -0.490  15.331  22.600  0.00  0.00    +0.000 A 
ATOM     16  C   UNL     1       0.172  16.555  22.478  0.00  0.00    +0.000 A 
ATOM     17  C   UNL     1       0.367  17.099  21.211  0.00  0.00    +0.000 A 
ATOM     18  C   UNL     1      -0.106  16.427  20.084  0.00  0.00    +0.000 A 
ATOM     19  C   UNL     1      -0.707  15.170  20.208  0.00  0.00    +0.000 A 
ATOM     20  C   UNL     1      -0.866  14.577  21.471  0.00  0.00    +0.000 A 
BRANCH  10  21
ATOM     21  O   UNL     1      -0.594  12.379  22.440  0.00  0.00    +0.000 OA
ATOM     22  H   UNL     1      -0.520  12.698  23.356  0.00  0.00    +0.000 HD
ENDBRANCH  10  21
ENDBRANCH   2  10
BRANCH   1  23
ATOM     23  S   UNL     1       0.656  11.313  20.112  0.00  0.00    +0.000 S 
ATOM     24  O   UNL     1       1.012  10.232  19.214  0.00  0.00    +0.000 OA
ATOM     25  O   UNL     1       0.700  11.209  21.560  0.00  0.00    +0.000 OA
BRANCH  23  30
ATOM     26  C   UNL     1       3.890  16.305  18.970  0.00  0.00    +0.000 C 
ATOM     27  C   UNL     1       3.150  15.023  19.220  0.00  0.00    +0.000 A 
ATOM     28  C   UNL     1       2.486  14.361  18.179  0.00  0.00    +0.000 A 
ATOM     29  C   UNL     1       1.764  13.193  18.432  0.00  0.00    +0.000 A 
ATOM     30  C   UNL     1       1.675  12.713  19.744  0.00  0.00    +0.000 A 
ATOM     31  C   UNL     1       2.382  13.328  20.780  0.00  0.00    +0.000 A 
ATOM     32  C   UNL     1       3.113  14.484  20.515  0.00  0.00    +0.000 A 
ENDBRANCH  23  30
ENDBRANCH   1  23
TORSDOF 4
ENDMDL
MODEL 4
REMARK VINA RESULT:      -7.7      9.804     13.033
REMARK  Name = 
REMARK  5 active torsions:
REMARK  status: ('A' for Active; 'I' for Inactive)
REMARK    1  A    between atoms: C_1  and  C_2
REMARK    2  A    between atoms: C_5  and  S_6
REMARK    3  A    between atoms: S_6  and  N_9
REMARK    4  A    between atoms: C_10  and  C_11
REMARK    5  A    between atoms: C_11  and  O_12
REMARK                            x       y       z     vdW  Elec       q    Type
REMARK                         _______ _______ _______ _____ _____    ______ ____
ROOT
ATOM      1  N   UNL     1      -2.088  12.514  21.589  0.00  0.00    +0.000 N 
ATOM      2  C   UNL     1      -2.233  12.981  22.907  0.00  0.00    +0.000 A 
ATOM      3  C   UNL     1      -1.657  12.014  23.719  0.00  0.00    +0.000 A 
ATOM      4  C   UNL     1      -1.102  10.996  22.906  0.00  0.00    +0.000 A 
ATOM      5  C   UNL     1      -0.430   9.794  23.207  0.00  0.00    +0.000 A 
ATOM      6  C   UNL     1       0.041   8.977  22.178  0.00  0.00    +0.000 A 
ATOM      7  C   UNL     1      -0.117   9.363  20.859  0.00  0.00    +0.000 A 
ATOM      8  C   UNL     1      -0.758  10.565  20.543  0.00  0.00    +0.000 A 
ATOM      9  C   UNL     1      -1.300  11.363  21.568  0.00  0.00    +0.000 A 
ENDROOT
BRANCH   2  10
ATOM     10  C   UNL     1      -2.971  14.225  23.340  0.00  0.00    +0.000 C 
ATOM     11  C   UNL     1      -2.509  14.924  24.607  0.00  0.00    +0.000 C 
ATOM     12  C   UNL     1      -3.204  15.983  25.071  0.00  0.00    +0.000 C 
ATOM     13  C   UNL     1      -4.505  16.328  24.415  0.00  0.00    +0.000 C 
ATOM     14  O   UNL     1      -4.982  17.450  24.487  0.00  0.00    +0.000 OA
ATOM     15  C   UNL     1      -5.236  15.163  23.847  0.00  0.00    +0.000 A 
ATOM     16  C   UNL     1      -6.630  15.125  23.918  0.00  0.00    +0.000 A 
ATOM     17  C   UNL     1      -7.289  13.914  23.717  0.00  0.00    +0.000 A 
ATOM     18  C   UNL     1      -6.555  12.756  23.458  0.00  0.00    +0.000 A 
ATOM     19  C   UNL     1      -5.164  12.814  23.321  0.00  0.00    +0.000 A 
ATOM     20  C   UNL     1      -4.483  14.033  23.466  0.00  0.00    +0.000 A 
BRANCH  10  21
ATOM     21  O   UNL     1      -2.688  15.201  22.346  0.00  0.00    +0.000 OA
ATOM     22  H   UNL     1      -3.341  15.119  21.630  0.00  0.00    +0.000 HD
ENDBRANCH  10  21
ENDBRANCH   2  10
BRANCH   1  23
ATOM     23  S   UNL     1      -2.590  13.374  20.170  0.00  0.00    +0.000 S 
ATOM     24  O   UNL     1      -1.492  14.280  19.901  0.00  0.00    +0.000 OA
ATOM     25  O   UNL     1      -3.955  13.807  20.412  0.00  0.00    +0.000 OA
BRANCH  23  30
ATOM     26  C   UNL     1      -3.125   9.741  15.353  0.00  0.00    +0.000 C 
ATOM     27  C   UNL     1      -2.981  10.574  16.594  0.00  0.00    +0.000 A 
ATOM     28  C   UNL     1      -4.030  10.678  17.517  0.00  0.00    +0.000 A 
ATOM     29  C   UNL     1      -3.899  11.491  18.644  0.00  0.00    +0.000 A 
ATOM     30  C   UNL     1      -2.727  12.234  18.822  0.00  0.00    +0.000 A 
ATOM     31  C   UNL     1      -1.651  12.093  17.942  0.00  0.00    +0.000 A 
ATOM     32  C   UNL     1      -1.784  11.267  16.828  0.00  0.00    +0.000 A 
ENDBRANCH  23  30
ENDBRANCH   1  23
TORSDOF 4
ENDMDL
MODEL 5
REMARK VINA RESULT:      -7.7      8.135     10.991
REMARK  Name = 
REMARK  5 active torsions:
REMARK  status: ('A' for Active; 'I' for Inactive)
REMARK    1  A    between atoms: C_1  and  C_2
REMARK    2  A    between atoms: C_5  and  S_6
REMARK    3  A    between atoms: S_6  and  N_9
REMARK    4  A    between atoms: C_10  and  C_11
REMARK    5  A    between atoms: C_11  and  O_12
REMARK                            x       y       z     vdW  Elec       q    Type
REMARK                         _______ _______ _______ _____ _____    ______ ____
ROOT
ATOM      1  N   UNL     1      -1.507  11.637  20.483  0.00  0.00    +0.000 N 
ATOM      2  C   UNL     1      -2.408  12.583  21.002  0.00  0.00    +0.000 A 
ATOM      3  C   UNL     1      -3.383  12.753  20.031  0.00  0.00    +0.000 A 
ATOM      4  C   UNL     1      -3.125  11.871  18.954  0.00  0.00    +0.000 A 
ATOM      5  C   UNL     1      -3.777  11.647  17.725  0.00  0.00    +0.000 A 
ATOM      6  C   UNL     1      -3.303  10.671  16.847  0.00  0.00    +0.000 A 
ATOM      7  C   UNL     1      -2.215   9.893  17.196  0.00  0.00    +0.000 A 
ATOM      8  C   UNL     1      -1.572  10.083  18.423  0.00  0.00    +0.000 A 
ATOM      9  C   UNL     1      -1.995  11.111  19.286  0.00  0.00    +0.000 A 
ENDROOT
BRANCH   2  10
ATOM     10  C   UNL     1      -2.263  13.338  22.303  0.00  0.00    +0.000 C 
ATOM     11  C   UNL     1      -3.530  13.761  23.025  0.00  0.00    +0.000 C 
ATOM     12  C   UNL     1      -3.436  14.516  24.140  0.00  0.00    +0.000 C 
ATOM     13  C   UNL     1      -2.094  15.051  24.531  0.00  0.00    +0.000 C 
ATOM     14  O   UNL     1      -1.844  15.382  25.680  0.00  0.00    +0.000 OA
ATOM     15  C   UNL     1      -1.180  15.316  23.386  0.00  0.00    +0.000 A 
ATOM     16  C   UNL     1      -0.326  16.421  23.430  0.00  0.00    +0.000 A 
ATOM     17  C   UNL     1       0.262  16.873  22.251  0.00  0.00    +0.000 A 
ATOM     18  C   UNL     1      -0.012  16.230  21.044  0.00  0.00    +0.000 A 
ATOM     19  C   UNL     1      -0.813  15.083  21.018  0.00  0.00    +0.000 A 
ATOM     20  C   UNL     1      -1.374  14.578  22.202  0.00  0.00    +0.000 A 
BRANCH  10  21
ATOM     21  O   UNL     1      -1.698  12.409  23.220  0.00  0.00    +0.000 OA
ATOM     22  H   UNL     1      -2.375  11.751  23.458  0.00  0.00    +0.000 HD
ENDBRANCH  10  21
ENDBRANCH   2  10
BRANCH   1  23
ATOM     23  S   UNL     1      -0.123  11.018  21.324  0.00  0.00    +0.000 S 
ATOM     24  O   UNL     1      -0.684  10.120  22.312  0.00  0.00    +0.000 OA
ATOM     25  O   UNL     1       0.707  12.165  21.651  0.00  0.00    +0.000 OA
BRANCH  23  30
ATOM     26  C   UNL     1       2.970   7.748  17.271  0.00  0.00    +0.000 C 
ATOM     27  C   UNL     1       2.272   8.562  18.322  0.00  0.00    +0.000 A 
ATOM     28  C   UNL     1       1.840   7.974  19.518  0.00  0.00    +0.000 A 
ATOM     29  C   UNL     1       1.153   8.732  20.469  0.00  0.00    +0.000 A 
ATOM     30  C   UNL     1       0.863  10.074  20.196  0.00  0.00    +0.000 A 
ATOM     31  C   UNL     1       1.341  10.688  19.036  0.00  0.00    +0.000 A 
ATOM     32  C   UNL     1       2.040   9.928  18.100  0.00  0.00    +0.000 A 
ENDBRANCH  23  30
ENDBRANCH   1  23
TORSDOF 4
ENDMDL
MODEL 6
REMARK VINA RESULT:      -7.5      8.664     11.732
REMARK  Name = 
REMARK  5 active torsions:
REMARK  status: ('A' for Active; 'I' for Inactive)
REMARK    1  A    between atoms: C_1  and  C_2
REMARK    2  A    between atoms: C_5  and  S_6
REMARK    3  A    between atoms: S_6  and  N_9
REMARK    4  A    between atoms: C_10  and  C_11
REMARK    5  A    between atoms: C_11  and  O_12
REMARK                            x       y       z     vdW  Elec       q    Type
REMARK                         _______ _______ _______ _____ _____    ______ ____
ROOT
ATOM      1  N   UNL     1       6.778  14.791  20.626  0.00  0.00    +0.000 N 
ATOM      2  C   UNL     1       7.178  15.148  19.327  0.00  0.00    +0.000 A 
ATOM      3  C   UNL     1       6.013  15.231  18.579  0.00  0.00    +0.000 A 
ATOM      4  C   UNL     1       4.901  14.996  19.424  0.00  0.00    +0.000 A 
ATOM      5  C   UNL     1       3.513  14.945  19.183  0.00  0.00    +0.000 A 
ATOM      6  C   UNL     1       2.627  14.714  20.237  0.00  0.00    +0.000 A 
ATOM      7  C   UNL     1       3.105  14.573  21.528  0.00  0.00    +0.000 A 
ATOM      8  C   UNL     1       4.477  14.648  21.788  0.00  0.00    +0.000 A 
ATOM      9  C   UNL     1       5.386  14.809  20.725  0.00  0.00    +0.000 A 
ENDROOT
BRANCH   2  10
ATOM     10  C   UNL     1       8.599  15.291  18.835  0.00  0.00    +0.000 C 
ATOM     11  C   UNL     1       8.868  16.274  17.709  0.00  0.00    +0.000 C 
ATOM     12  C   UNL     1      10.108  16.358  17.185  0.00  0.00    +0.000 C 
ATOM     13  C   UNL     1      11.137  15.360  17.616  0.00  0.00    +0.000 C 
ATOM     14  O   UNL     1      12.333  15.587  17.520  0.00  0.00    +0.000 OA
ATOM     15  C   UNL     1      10.585  14.027  17.984  0.00  0.00    +0.000 A 
ATOM     16  C   UNL     1      11.304  12.873  17.665  0.00  0.00    +0.000 A 
ATOM     17  C   UNL     1      10.655  11.641  17.682  0.00  0.00    +0.000 A 
ATOM     18  C   UNL     1       9.300  11.572  18.006  0.00  0.00    +0.000 A 
ATOM     19  C   UNL     1       8.603  12.722  18.391  0.00  0.00    +0.000 A 
ATOM     20  C   UNL     1       9.250  13.967  18.432  0.00  0.00    +0.000 A 
BRANCH  10  21
ATOM     21  O   UNL     1       9.317  15.876  19.914  0.00  0.00    +0.000 OA
ATOM     22  H   UNL     1       9.447  16.822  19.728  0.00  0.00    +0.000 HD
ENDBRANCH  10  21
ENDBRANCH   2  10
BRANCH   1  23
ATOM     23  S   UNL     1       7.846  14.609  21.979  0.00  0.00    +0.000 S 
ATOM     24  O   UNL     1       8.068  15.965  22.437  0.00  0.00    +0.000 OA
ATOM     25  O   UNL     1       8.908  13.716  21.548  0.00  0.00    +0.000 OA
BRANCH  23  30
ATOM     26  C   UNL     1       5.284  11.539  26.529  0.00  0.00    +0.000 C 
ATOM     27  C   UNL     1       5.848  12.293  25.359  0.00  0.00    +0.000 A 
ATOM     28  C   UNL     1       6.266  11.620  24.203  0.00  0.00    +0.000 A 
ATOM     29  C   UNL     1       6.830  12.327  23.140  0.00  0.00    +0.000 A 
ATOM     30  C   UNL     1       7.012  13.709  23.256  0.00  0.00    +0.000 A 
ATOM     31  C   UNL     1       6.545  14.401  24.377  0.00  0.00    +0.000 A 
ATOM     32  C   UNL     1       5.968  13.688  25.427  0.00  0.00    +0.000 A 
ENDBRANCH  23  30
ENDBRANCH   1  23
TORSDOF 4
ENDMDL
MODEL 7
REMARK VINA RESULT:      -7.5      8.933     12.604
REMARK  Name = 
REMARK  5 active torsions:
REMARK  status: ('A' for Active; 'I' for Inactive)
REMARK    1  A    between atoms: C_1  and  C_2
REMARK    2  A    between atoms: C_5  and  S_6
REMARK    3  A    between atoms: S_6  and  N_9
REMARK    4  A    between atoms: C_10  and  C_11
REMARK    5  A    between atoms: C_11  and  O_12
REMARK                            x       y       z     vdW  Elec       q    Type
REMARK                         _______ _______ _______ _____ _____    ______ ____
ROOT
ATOM      1  N   UNL     1      -1.241  13.917  21.206  0.00  0.00    +0.000 N 
ATOM      2  C   UNL     1      -0.366  13.883  20.106  0.00  0.00    +0.000 A 
ATOM      3  C   UNL     1      -0.396  15.155  19.555  0.00  0.00    +0.000 A 
ATOM      4  C   UNL     1      -1.225  15.985  20.349  0.00  0.00    +0.000 A 
ATOM      5  C   UNL     1      -1.612  17.336  20.237  0.00  0.00    +0.000 A 
ATOM      6  C   UNL     1      -2.439  17.911  21.203  0.00  0.00    +0.000 A 
ATOM      7  C   UNL     1      -2.852  17.168  22.294  0.00  0.00    +0.000 A 
ATOM      8  C   UNL     1      -2.456  15.835  22.435  0.00  0.00    +0.000 A 
ATOM      9  C   UNL     1      -1.681  15.222  21.433  0.00  0.00    +0.000 A 
ENDROOT
BRANCH   2  10
ATOM     10  C   UNL     1       0.357  12.668  19.575  0.00  0.00    +0.000 C 
ATOM     11  C   UNL     1       1.629  12.888  18.775  0.00  0.00    +0.000 C 
ATOM     12  C   UNL     1       2.247  11.831  18.209  0.00  0.00    +0.000 C 
ATOM     13  C   UNL     1       1.567  10.499  18.247  0.00  0.00    +0.000 C 
ATOM     14  O   UNL     1       2.191   9.455  18.134  0.00  0.00    +0.000 OA
ATOM     15  C   UNL     1       0.080  10.567  18.242  0.00  0.00    +0.000 A 
ATOM     16  C   UNL     1      -0.651   9.604  17.542  0.00  0.00    +0.000 A 
ATOM     17  C   UNL     1      -1.988   9.851  17.240  0.00  0.00    +0.000 A 
ATOM     18  C   UNL     1      -2.579  11.053  17.628  0.00  0.00    +0.000 A 
ATOM     19  C   UNL     1      -1.862  11.983  18.388  0.00  0.00    +0.000 A 
ATOM     20  C   UNL     1      -0.529  11.733  18.750  0.00  0.00    +0.000 A 
BRANCH  10  21
ATOM     21  O   UNL     1       0.846  11.985  20.723  0.00  0.00    +0.000 OA
ATOM     22  H   UNL     1       1.699  11.573  20.503  0.00  0.00    +0.000 HD
ENDBRANCH  10  21
ENDBRANCH   2  10
BRANCH   1  23
ATOM     23  S   UNL     1      -1.533  12.592  22.285  0.00  0.00    +0.000 S 
ATOM     24  O   UNL     1      -0.675  12.868  23.419  0.00  0.00    +0.000 OA
ATOM     25  O   UNL     1      -1.452  11.383  21.484  0.00  0.00    +0.000 OA
BRANCH  23  30
ATOM     26  C   UNL     1      -7.289  13.119  24.095  0.00  0.00    +0.000 C 
ATOM     27  C   UNL     1      -5.868  12.907  23.659  0.00  0.00    +0.000 A 
ATOM     28  C   UNL     1      -4.850  12.702  24.600  0.00  0.00    +0.000 A 
ATOM     29  C   UNL     1      -3.525  12.550  24.185  0.00  0.00    +0.000 A 
ATOM     30  C   UNL     1      -3.219  12.646  22.824  0.00  0.00    +0.000 A 
ATOM     31  C   UNL     1      -4.230  12.789  21.871  0.00  0.00    +0.000 A 
ATOM     32  C   UNL     1      -5.551  12.924  22.293  0.00  0.00    +0.000 A 
ENDBRANCH  23  30
ENDBRANCH   1  23
TORSDOF 4
ENDMDL
MODEL 8
REMARK VINA RESULT:      -7.5      9.829     13.070
REMARK  Name = 
REMARK  5 active torsions:
REMARK  status: ('A' for Active; 'I' for Inactive)
REMARK    1  A    between atoms: C_1  and  C_2
REMARK    2  A    between atoms: C_5  and  S_6
REMARK    3  A    between atoms: S_6  and  N_9
REMARK    4  A    between atoms: C_10  and  C_11
REMARK    5  A    between atoms: C_11  and  O_12
REMARK                            x       y       z     vdW  Elec       q    Type
REMARK                         _______ _______ _______ _____ _____    ______ ____
ROOT
ATOM      1  N   UNL     1      -2.364  14.139  22.182  0.00  0.00    +0.000 N 
ATOM      2  C   UNL     1      -2.606  13.052  21.324  0.00  0.00    +0.000 A 
ATOM      3  C   UNL     1      -3.954  12.753  21.459  0.00  0.00    +0.000 A 
ATOM      4  C   UNL     1      -4.552  13.690  22.337  0.00  0.00    +0.000 A 
ATOM      5  C   UNL     1      -5.865  13.837  22.827  0.00  0.00    +0.000 A 
ATOM      6  C   UNL     1      -6.181  14.895  23.680  0.00  0.00    +0.000 A 
ATOM      7  C   UNL     1      -5.216  15.826  24.019  0.00  0.00    +0.000 A 
ATOM      8  C   UNL     1      -3.914  15.711  23.521  0.00  0.00    +0.000 A 
ATOM      9  C   UNL     1      -3.564  14.610  22.716  0.00  0.00    +0.000 A 
ENDROOT
BRANCH   2  10
ATOM     10  C   UNL     1      -1.574  12.300  20.518  0.00  0.00    +0.000 C 
ATOM     11  C   UNL     1      -2.016  11.657  19.216  0.00  0.00    +0.000 C 
ATOM     12  C   UNL     1      -1.142  10.901  18.519  0.00  0.00    +0.000 C 
ATOM     13  C   UNL     1       0.183  10.583  19.140  0.00  0.00    +0.000 C 
ATOM     14  O   UNL     1       1.151  10.270  18.464  0.00  0.00    +0.000 OA
ATOM     15  C   UNL     1       0.161  10.499  20.626  0.00  0.00    +0.000 A 
ATOM     16  C   UNL     1       0.955   9.548  21.273  0.00  0.00    +0.000 A 
ATOM     17  C   UNL     1       0.685   9.227  22.601  0.00  0.00    +0.000 A 
ATOM     18  C   UNL     1      -0.373   9.846  23.266  0.00  0.00    +0.000 A 
ATOM     19  C   UNL     1      -1.120  10.847  22.635  0.00  0.00    +0.000 A 
ATOM     20  C   UNL     1      -0.832  11.225  21.314  0.00  0.00    +0.000 A 
BRANCH  10  21
ATOM     21  O   UNL     1      -0.655  13.286  20.063  0.00  0.00    +0.000 OA
ATOM     22  H   UNL     1      -0.877  14.137  20.478  0.00  0.00    +0.000 HD
ENDBRANCH  10  21
ENDBRANCH   2  10
BRANCH   1  23
ATOM     23  S   UNL     1      -0.840  14.947  22.355  0.00  0.00    +0.000 S 
ATOM     24  O   UNL     1      -0.774  15.823  21.203  0.00  0.00    +0.000 OA
ATOM     25  O   UNL     1       0.141  13.917  22.647  0.00  0.00    +0.000 OA
BRANCH  23  30
ATOM     26  C   UNL     1      -0.625  18.374  27.345  0.00  0.00    +0.000 C 
ATOM     27  C   UNL     1      -0.760  17.517  26.119  0.00  0.00    +0.000 A 
ATOM     28  C   UNL     1      -0.914  16.128  26.225  0.00  0.00    +0.000 A 
ATOM     29  C   UNL     1      -0.994  15.338  25.077  0.00  0.00    +0.000 A 
ATOM     30  C   UNL     1      -0.877  15.941  23.820  0.00  0.00    +0.000 A 
ATOM     31  C   UNL     1      -0.785  17.330  23.699  0.00  0.00    +0.000 A 
ATOM     32  C   UNL     1      -0.722  18.113  24.850  0.00  0.00    +0.000 A 
ENDBRANCH  23  30
ENDBRANCH   1  23
TORSDOF 4
ENDMDL
MODEL 9
REMARK VINA RESULT:      -7.3      8.784     11.838
REMARK  Name = 
REMARK  5 active torsions:
REMARK  status: ('A' for Active; 'I' for Inactive)
REMARK    1  A    between atoms: C_1  and  C_2
REMARK    2  A    between atoms: C_5  and  S_6
REMARK    3  A    between atoms: S_6  and  N_9
REMARK    4  A    between atoms: C_10  and  C_11
REMARK    5  A    between atoms: C_11  and  O_12
REMARK                            x       y       z     vdW  Elec       q    Type
REMARK                         _______ _______ _______ _____ _____    ______ ____
ROOT
ATOM      1  N   UNL     1      -1.457  13.848  21.837  0.00  0.00    +0.000 N 
ATOM      2  C   UNL     1      -1.970  12.808  21.043  0.00  0.00    +0.000 A 
ATOM      3  C   UNL     1      -3.317  12.713  21.363  0.00  0.00    +0.000 A 
ATOM      4  C   UNL     1      -3.646  13.730  22.292  0.00  0.00    +0.000 A 
ATOM      5  C   UNL     1      -4.845  14.070  22.949  0.00  0.00    +0.000 A 
ATOM      6  C   UNL     1      -4.884  15.165  23.815  0.00  0.00    +0.000 A 
ATOM      7  C   UNL     1      -3.755  15.943  24.001  0.00  0.00    +0.000 A 
ATOM      8  C   UNL     1      -2.564  15.635  23.336  0.00  0.00    +0.000 A 
ATOM      9  C   UNL     1      -2.492  14.493  22.517  0.00  0.00    +0.000 A 
ENDROOT
BRANCH   2  10
ATOM     10  C   UNL     1      -1.178  11.909  20.124  0.00  0.00    +0.000 C 
ATOM     11  C   UNL     1      -1.904  11.269  18.953  0.00  0.00    +0.000 C 
ATOM     12  C   UNL     1      -1.248  10.389  18.168  0.00  0.00    +0.000 C 
ATOM     13  C   UNL     1       0.122   9.947  18.578  0.00  0.00    +0.000 C 
ATOM     14  O   UNL     1       0.921   9.497  17.770  0.00  0.00    +0.000 OA
ATOM     15  C   UNL     1       0.348   9.927  20.049  0.00  0.00    +0.000 A 
ATOM     16  C   UNL     1       1.135   8.918  20.610  0.00  0.00    +0.000 A 
ATOM     17  C   UNL     1       1.066   8.686  21.982  0.00  0.00    +0.000 A 
ATOM     18  C   UNL     1       0.210   9.449  22.776  0.00  0.00    +0.000 A 
ATOM     19  C   UNL     1      -0.523  10.502  22.219  0.00  0.00    +0.000 A 
ATOM     20  C   UNL     1      -0.429  10.790  20.848  0.00  0.00    +0.000 A 
BRANCH  10  21
ATOM     21  O   UNL     1      -0.252  12.763  19.463  0.00  0.00    +0.000 OA
ATOM     22  H   UNL     1       0.259  12.238  18.823  0.00  0.00    +0.000 HD
ENDBRANCH  10  21
ENDBRANCH   2  10
BRANCH   1  23
ATOM     23  S   UNL     1       0.178  14.421  21.788  0.00  0.00    +0.000 S 
ATOM     24  O   UNL     1       0.966  13.219  21.608  0.00  0.00    +0.000 OA
ATOM     25  O   UNL     1       0.331  15.328  22.912  0.00  0.00    +0.000 OA
BRANCH  23  30
ATOM     26  C   UNL     1       0.994  18.200  17.125  0.00  0.00    +0.000 C 
ATOM     27  C   UNL     1       0.763  17.207  18.227  0.00  0.00    +0.000 A 
ATOM     28  C   UNL     1      -0.526  16.965  18.720  0.00  0.00    +0.000 A 
ATOM     29  C   UNL     1      -0.722  16.072  19.775  0.00  0.00    +0.000 A 
ATOM     30  C   UNL     1       0.386  15.453  20.364  0.00  0.00    +0.000 A 
ATOM     31  C   UNL     1       1.669  15.638  19.843  0.00  0.00    +0.000 A 
ATOM     32  C   UNL     1       1.854  16.519  18.779  0.00  0.00    +0.000 A 
ENDBRANCH  23  30
ENDBRANCH   1  23
TORSDOF 4
ENDMDL
