MODEL 1
REMARK VINA RESULT:      -6.6      0.000      0.000
REMARK  Name = 
REMARK  7 active torsions:
REMARK  status: ('A' for Active; 'I' for Inactive)
REMARK    1  A    between atoms: C_1  and  C_2
REMARK    2  A    between atoms: C_2  and  O_3
REMARK    3  A    between atoms: O_3  and  C_4
REMARK    4  A    between atoms: C_4  and  C_6
REMARK    5  A    between atoms: C_13  and  O_14
REMARK    6  A    between atoms: O_14  and  C_15
REMARK    7  A    between atoms: C_22  and  C_23
REMARK                            x       y       z     vdW  Elec       q    Type
REMARK                         _______ _______ _______ _____ _____    ______ ____
ROOT
ATOM      1  C   UNL     1       4.236   6.089  17.809  0.00  0.00    +0.000 A 
ATOM      2  S   UNL     1       2.964   7.207  18.040  0.00  0.00    +0.000 S 
ATOM      3  C   UNL     1       2.670   6.585  19.617  0.00  0.00    +0.000 A 
ATOM      4  N   UNL     1       1.738   7.079  20.466  0.00  0.00    +0.000 N 
ATOM      5  C   UNL     1       1.225   8.332  20.508  0.00  0.00    +0.000 A 
ATOM      6  N   UNL     1       1.590   9.345  19.758  0.00  0.00    +0.000 NA
ATOM      7  C   UNL     1       0.865  10.492  20.053  0.00  0.00    +0.000 A 
ATOM      8  C   UNL     1       0.996  11.760  19.423  0.00  0.00    +0.000 A 
ATOM      9  C   UNL     1       0.155  12.803  19.843  0.00  0.00    +0.000 A 
ATOM     10  C   UNL     1      -0.780  12.611  20.857  0.00  0.00    +0.000 A 
ATOM     11  C   UNL     1      -0.907  11.376  21.492  0.00  0.00    +0.000 A 
ATOM     12  C   UNL     1      -0.074  10.329  21.073  0.00  0.00    +0.000 A 
ATOM     13  S   UNL     1       0.001   8.712  21.660  0.00  0.00    +0.000 S 
ATOM     14  N   UNL     1       3.400   5.533  19.920  0.00  0.00    +0.000 NA
ATOM     15  C   UNL     1       4.335   5.272  18.923  0.00  0.00    +0.000 A 
ATOM     16  C   UNL     1       5.343   4.204  19.155  0.00  0.00    +0.000 C 
ATOM     17  H   UNL     1       1.534   6.478  21.253  0.00  0.00    +0.000 HD
ENDROOT
BRANCH   1  18
ATOM     18  C   UNL     1       5.073   6.110  16.631  0.00  0.00    +0.000 C 
ATOM     19  O   UNL     1       5.056   5.272  15.739  0.00  0.00    +0.000 OA
BRANCH  18  20
ATOM     20  O   UNL     1       5.965   7.141  16.694  0.00  0.00    +0.000 OA
BRANCH  20  22
ATOM     21  C   UNL     1       7.890   8.123  17.705  0.00  0.00    +0.000 C 
ATOM     22  C   UNL     1       7.254   6.827  17.231  0.00  0.00    +0.000 C 
ENDBRANCH  20  22
ENDBRANCH  18  20
ENDBRANCH   1  18
BRANCH   8  23
ATOM     23  O   UNL     1       1.946  11.879  18.438  0.00  0.00    +0.000 OA
ATOM     24  C   UNL     1       2.498  13.168  18.208  0.00  0.00    +0.000 C 
ENDBRANCH   8  23
TORSDOF 4
ENDMDL
MODEL 2
REMARK VINA RESULT:      -6.5      0.921      1.573
REMARK  Name = 
REMARK  7 active torsions:
REMARK  status: ('A' for Active; 'I' for Inactive)
REMARK    1  A    between atoms: C_1  and  C_2
REMARK    2  A    between atoms: C_2  and  O_3
REMARK    3  A    between atoms: O_3  and  C_4
REMARK    4  A    between atoms: C_4  and  C_6
REMARK    5  A    between atoms: C_13  and  O_14
REMARK    6  A    between atoms: O_14  and  C_15
REMARK    7  A    between atoms: C_22  and  C_23
REMARK                            x       y       z     vdW  Elec       q    Type
REMARK                         _______ _______ _______ _____ _____    ______ ____
ROOT
ATOM      1  C   UNL     1       4.304   6.028  17.765  0.00  0.00    +0.000 A 
ATOM      2  S   UNL     1       3.011   7.118  18.008  0.00  0.00    +0.000 S 
ATOM      3  C   UNL     1       2.762   6.509  19.597  0.00  0.00    +0.000 A 
ATOM      4  N   UNL     1       1.836   6.991  20.459  0.00  0.00    +0.000 N 
ATOM      5  C   UNL     1       1.294   8.232  20.496  0.00  0.00    +0.000 A 
ATOM      6  N   UNL     1       1.620   9.245  19.726  0.00  0.00    +0.000 NA
ATOM      7  C   UNL     1       0.873  10.378  20.022  0.00  0.00    +0.000 A 
ATOM      8  C   UNL     1       0.962  11.641  19.374  0.00  0.00    +0.000 A 
ATOM      9  C   UNL     1       0.104  12.668  19.797  0.00  0.00    +0.000 A 
ATOM     10  C   UNL     1      -0.807  12.467  20.832  0.00  0.00    +0.000 A 
ATOM     11  C   UNL     1      -0.891  11.237  21.485  0.00  0.00    +0.000 A 
ATOM     12  C   UNL     1      -0.041  10.205  21.061  0.00  0.00    +0.000 A 
ATOM     13  S   UNL     1       0.084   8.598  21.666  0.00  0.00    +0.000 S 
ATOM     14  N   UNL     1       3.523   5.479  19.898  0.00  0.00    +0.000 NA
ATOM     15  C   UNL     1       4.444   5.228  18.886  0.00  0.00    +0.000 A 
ATOM     16  C   UNL     1       5.482   4.186  19.112  0.00  0.00    +0.000 C 
ATOM     17  H   UNL     1       1.661   6.396  21.256  0.00  0.00    +0.000 HD
ENDROOT
BRANCH   1  18
ATOM     18  C   UNL     1       5.118   6.054  16.571  0.00  0.00    +0.000 C 
ATOM     19  O   UNL     1       5.874   6.963  16.252  0.00  0.00    +0.000 OA
BRANCH  18  20
ATOM     20  O   UNL     1       4.856   4.968  15.787  0.00  0.00    +0.000 OA
BRANCH  20  22
ATOM     21  C   UNL     1       6.091   3.999  13.991  0.00  0.00    +0.000 C 
ATOM     22  C   UNL     1       5.969   4.115  15.500  0.00  0.00    +0.000 C 
ENDBRANCH  20  22
ENDBRANCH  18  20
ENDBRANCH   1  18
BRANCH   8  23
ATOM     23  O   UNL     1       1.889  11.770  18.369  0.00  0.00    +0.000 OA
ATOM     24  C   UNL     1       2.454  13.056  18.155  0.00  0.00    +0.000 C 
ENDBRANCH   8  23
TORSDOF 4
ENDMDL
MODEL 3
REMARK VINA RESULT:      -6.0      5.466      7.142
REMARK  Name = 
REMARK  7 active torsions:
REMARK  status: ('A' for Active; 'I' for Inactive)
REMARK    1  A    between atoms: C_1  and  C_2
REMARK    2  A    between atoms: C_2  and  O_3
REMARK    3  A    between atoms: O_3  and  C_4
REMARK    4  A    between atoms: C_4  and  C_6
REMARK    5  A    between atoms: C_13  and  O_14
REMARK    6  A    between atoms: O_14  and  C_15
REMARK    7  A    between atoms: C_22  and  C_23
REMARK                            x       y       z     vdW  Elec       q    Type
REMARK                         _______ _______ _______ _____ _____    ______ ____
ROOT
ATOM      1  C   UNL     1       6.453   3.982  13.505  0.00  0.00    +0.000 A 
ATOM      2  S   UNL     1       5.689   3.614  14.989  0.00  0.00    +0.000 S 
ATOM      3  C   UNL     1       6.555   4.874  15.778  0.00  0.00    +0.000 A 
ATOM      4  N   UNL     1       6.395   5.205  17.081  0.00  0.00    +0.000 N 
ATOM      5  C   UNL     1       5.306   5.018  17.864  0.00  0.00    +0.000 A 
ATOM      6  N   UNL     1       4.150   4.528  17.481  0.00  0.00    +0.000 NA
ATOM      7  C   UNL     1       3.242   4.467  18.530  0.00  0.00    +0.000 A 
ATOM      8  C   UNL     1       1.908   3.978  18.467  0.00  0.00    +0.000 A 
ATOM      9  C   UNL     1       1.144   3.974  19.644  0.00  0.00    +0.000 A 
ATOM     10  C   UNL     1       1.668   4.443  20.846  0.00  0.00    +0.000 A 
ATOM     11  C   UNL     1       2.970   4.939  20.917  0.00  0.00    +0.000 A 
ATOM     12  C   UNL     1       3.740   4.940  19.745  0.00  0.00    +0.000 A 
ATOM     13  S   UNL     1       5.359   5.482  19.522  0.00  0.00    +0.000 S 
ATOM     14  N   UNL     1       7.444   5.469  15.012  0.00  0.00    +0.000 NA
ATOM     15  C   UNL     1       7.360   5.010  13.702  0.00  0.00    +0.000 A 
ATOM     16  C   UNL     1       8.194   5.670  12.662  0.00  0.00    +0.000 C 
ATOM     17  H   UNL     1       7.121   5.805  17.449  0.00  0.00    +0.000 HD
ENDROOT
BRANCH   1  18
ATOM     18  C   UNL     1       6.095   3.321  12.272  0.00  0.00    +0.000 C 
ATOM     19  O   UNL     1       6.786   2.497  11.687  0.00  0.00    +0.000 OA
BRANCH  18  20
ATOM     20  O   UNL     1       4.919   3.815  11.784  0.00  0.00    +0.000 OA
BRANCH  20  22
ATOM     21  C   UNL     1       3.220   3.632  10.121  0.00  0.00    +0.000 C 
ATOM     22  C   UNL     1       4.064   2.873  11.130  0.00  0.00    +0.000 C 
ENDBRANCH  20  22
ENDBRANCH  18  20
ENDBRANCH   1  18
BRANCH   8  23
ATOM     23  O   UNL     1       1.455   3.540  17.247  0.00  0.00    +0.000 OA
ATOM     24  C   UNL     1       2.101   2.413  16.671  0.00  0.00    +0.000 C 
ENDBRANCH   8  23
TORSDOF 4
ENDMDL
MODEL 4
REMARK VINA RESULT:      -5.8      2.933      4.236
REMARK  Name = 
REMARK  7 active torsions:
REMARK  status: ('A' for Active; 'I' for Inactive)
REMARK    1  A    between atoms: C_1  and  C_2
REMARK    2  A    between atoms: C_2  and  O_3
REMARK    3  A    between atoms: O_3  and  C_4
REMARK    4  A    between atoms: C_4  and  C_6
REMARK    5  A    between atoms: C_13  and  O_14
REMARK    6  A    between atoms: O_14  and  C_15
REMARK    7  A    between atoms: C_22  and  C_23
REMARK                            x       y       z     vdW  Elec       q    Type
REMARK                         _______ _______ _______ _____ _____    ______ ____
ROOT
ATOM      1  C   UNL     1       3.165   4.648  19.320  0.00  0.00    +0.000 A 
ATOM      2  S   UNL     1       2.846   6.244  19.839  0.00  0.00    +0.000 S 
ATOM      3  C   UNL     1       3.054   6.834  18.236  0.00  0.00    +0.000 A 
ATOM      4  N   UNL     1       2.891   8.129  17.876  0.00  0.00    +0.000 N 
ATOM      5  C   UNL     1       2.128   9.074  18.475  0.00  0.00    +0.000 A 
ATOM      6  N   UNL     1       1.332   8.891  19.503  0.00  0.00    +0.000 NA
ATOM      7  C   UNL     1       0.691  10.066  19.873  0.00  0.00    +0.000 A 
ATOM      8  C   UNL     1      -0.225  10.226  20.949  0.00  0.00    +0.000 A 
ATOM      9  C   UNL     1      -0.757  11.503  21.187  0.00  0.00    +0.000 A 
ATOM     10  C   UNL     1      -0.409  12.589  20.388  0.00  0.00    +0.000 A 
ATOM     11  C   UNL     1       0.476  12.441  19.321  0.00  0.00    +0.000 A 
ATOM     12  C   UNL     1       1.016  11.169  19.083  0.00  0.00    +0.000 A 
ATOM     13  S   UNL     1       2.121  10.681  17.856  0.00  0.00    +0.000 S 
ATOM     14  N   UNL     1       3.446   5.917  17.378  0.00  0.00    +0.000 NA
ATOM     15  C   UNL     1       3.460   4.657  17.967  0.00  0.00    +0.000 A 
ATOM     16  C   UNL     1       3.743   3.474  17.111  0.00  0.00    +0.000 C 
ATOM     17  H   UNL     1       3.260   8.355  16.962  0.00  0.00    +0.000 HD
ENDROOT
BRANCH   1  18
ATOM     18  C   UNL     1       3.052   3.514  20.209  0.00  0.00    +0.000 C 
ATOM     19  O   UNL     1       3.935   2.693  20.421  0.00  0.00    +0.000 OA
BRANCH  18  20
ATOM     20  O   UNL     1       1.785   3.419  20.709  0.00  0.00    +0.000 OA
BRANCH  20  22
ATOM     21  C   UNL     1       0.749   2.151  18.975  0.00  0.00    +0.000 C 
ATOM     22  C   UNL     1       0.725   3.458  19.749  0.00  0.00    +0.000 C 
ENDBRANCH  20  22
ENDBRANCH  18  20
ENDBRANCH   1  18
BRANCH   8  23
ATOM     23  O   UNL     1      -0.530   9.109  21.689  0.00  0.00    +0.000 OA
ATOM     24  C   UNL     1      -0.540   9.240  23.104  0.00  0.00    +0.000 C 
ENDBRANCH   8  23
TORSDOF 4
ENDMDL
MODEL 5
REMARK VINA RESULT:      -5.7      2.940      7.936
REMARK  Name = 
REMARK  7 active torsions:
REMARK  status: ('A' for Active; 'I' for Inactive)
REMARK    1  A    between atoms: C_1  and  C_2
REMARK    2  A    between atoms: C_2  and  O_3
REMARK    3  A    between atoms: O_3  and  C_4
REMARK    4  A    between atoms: C_4  and  C_6
REMARK    5  A    between atoms: C_13  and  O_14
REMARK    6  A    between atoms: O_14  and  C_15
REMARK    7  A    between atoms: C_22  and  C_23
REMARK                            x       y       z     vdW  Elec       q    Type
REMARK                         _______ _______ _______ _____ _____    ______ ____
ROOT
ATOM      1  C   UNL     1       0.093  10.542  18.727  0.00  0.00    +0.000 A 
ATOM      2  S   UNL     1       0.571   9.015  18.129  0.00  0.00    +0.000 S 
ATOM      3  C   UNL     1       2.188   9.569  17.932  0.00  0.00    +0.000 A 
ATOM      4  N   UNL     1       3.209   8.794  17.497  0.00  0.00    +0.000 N 
ATOM      5  C   UNL     1       3.333   7.448  17.585  0.00  0.00    +0.000 A 
ATOM      6  N   UNL     1       2.498   6.629  18.181  0.00  0.00    +0.000 NA
ATOM      7  C   UNL     1       2.919   5.308  18.090  0.00  0.00    +0.000 A 
ATOM      8  C   UNL     1       2.246   4.169  18.614  0.00  0.00    +0.000 A 
ATOM      9  C   UNL     1       2.816   2.904  18.401  0.00  0.00    +0.000 A 
ATOM     10  C   UNL     1       4.014   2.760  17.706  0.00  0.00    +0.000 A 
ATOM     11  C   UNL     1       4.690   3.871  17.202  0.00  0.00    +0.000 A 
ATOM     12  C   UNL     1       4.122   5.137  17.405  0.00  0.00    +0.000 A 
ATOM     13  S   UNL     1       4.715   6.674  16.907  0.00  0.00    +0.000 S 
ATOM     14  N   UNL     1       2.347  10.849  18.192  0.00  0.00    +0.000 NA
ATOM     15  C   UNL     1       1.177  11.404  18.698  0.00  0.00    +0.000 A 
ATOM     16  C   UNL     1       1.207  12.810  19.182  0.00  0.00    +0.000 C 
ATOM     17  H   UNL     1       4.035   9.309  17.225  0.00  0.00    +0.000 HD
ENDROOT
BRANCH   1  18
ATOM     18  C   UNL     1      -1.239  10.788  19.230  0.00  0.00    +0.000 C 
ATOM     19  O   UNL     1      -1.503  11.263  20.327  0.00  0.00    +0.000 OA
BRANCH  18  20
ATOM     20  O   UNL     1      -2.178  10.325  18.353  0.00  0.00    +0.000 OA
BRANCH  20  22
ATOM     21  C   UNL     1      -2.735  10.298  16.034  0.00  0.00    +0.000 C 
ATOM     22  C   UNL     1      -2.481  11.178  17.246  0.00  0.00    +0.000 C 
ENDBRANCH  20  22
ENDBRANCH  18  20
ENDBRANCH   1  18
BRANCH   8  23
ATOM     23  O   UNL     1       1.075   4.388  19.296  0.00  0.00    +0.000 OA
ATOM     24  C   UNL     1       0.942   3.797  20.581  0.00  0.00    +0.000 C 
ENDBRANCH   8  23
TORSDOF 4
ENDMDL
MODEL 6
REMARK VINA RESULT:      -5.6      2.841      8.205
REMARK  Name = 
REMARK  7 active torsions:
REMARK  status: ('A' for Active; 'I' for Inactive)
REMARK    1  A    between atoms: C_1  and  C_2
REMARK    2  A    between atoms: C_2  and  O_3
REMARK    3  A    between atoms: O_3  and  C_4
REMARK    4  A    between atoms: C_4  and  C_6
REMARK    5  A    between atoms: C_13  and  O_14
REMARK    6  A    between atoms: O_14  and  C_15
REMARK    7  A    between atoms: C_22  and  C_23
REMARK                            x       y       z     vdW  Elec       q    Type
REMARK                         _______ _______ _______ _____ _____    ______ ____
ROOT
ATOM      1  C   UNL     1       0.072  10.605  21.254  0.00  0.00    +0.000 A 
ATOM      2  S   UNL     1       0.400   9.115  20.484  0.00  0.00    +0.000 S 
ATOM      3  C   UNL     1       1.433   9.897  19.352  0.00  0.00    +0.000 A 
ATOM      4  N   UNL     1       2.129   9.252  18.386  0.00  0.00    +0.000 N 
ATOM      5  C   UNL     1       2.550   7.964  18.378  0.00  0.00    +0.000 A 
ATOM      6  N   UNL     1       2.416   7.098  19.355  0.00  0.00    +0.000 NA
ATOM      7  C   UNL     1       2.957   5.862  19.024  0.00  0.00    +0.000 A 
ATOM      8  C   UNL     1       2.972   4.700  19.844  0.00  0.00    +0.000 A 
ATOM      9  C   UNL     1       3.546   3.528  19.327  0.00  0.00    +0.000 A 
ATOM     10  C   UNL     1       4.098   3.498  18.049  0.00  0.00    +0.000 A 
ATOM     11  C   UNL     1       4.103   4.636  17.243  0.00  0.00    +0.000 A 
ATOM     12  C   UNL     1       3.525   5.808  17.751  0.00  0.00    +0.000 A 
ATOM     13  S   UNL     1       3.383   7.351  17.000  0.00  0.00    +0.000 S 
ATOM     14  N   UNL     1       1.453  11.208  19.467  0.00  0.00    +0.000 NA
ATOM     15  C   UNL     1       0.727  11.622  20.579  0.00  0.00    +0.000 A 
ATOM     16  C   UNL     1       0.753  13.062  20.950  0.00  0.00    +0.000 C 
ATOM     17  H   UNL     1       2.508   9.858  17.672  0.00  0.00    +0.000 HD
ENDROOT
BRANCH   1  18
ATOM     18  C   UNL     1      -0.719  10.690  22.459  0.00  0.00    +0.000 C 
ATOM     19  O   UNL     1      -0.436  10.164  23.528  0.00  0.00    +0.000 OA
BRANCH  18  20
ATOM     20  O   UNL     1      -1.887  11.355  22.222  0.00  0.00    +0.000 OA
BRANCH  20  22
ATOM     21  C   UNL     1      -1.985  13.413  23.424  0.00  0.00    +0.000 C 
ATOM     22  C   UNL     1      -2.495  11.984  23.355  0.00  0.00    +0.000 C 
ENDBRANCH  20  22
ENDBRANCH  18  20
ENDBRANCH   1  18
BRANCH   8  23
ATOM     23  O   UNL     1       2.418   4.805  21.096  0.00  0.00    +0.000 OA
ATOM     24  C   UNL     1       2.039   3.603  21.752  0.00  0.00    +0.000 C 
ENDBRANCH   8  23
TORSDOF 4
ENDMDL
MODEL 7
REMARK VINA RESULT:      -5.5      3.181      4.121
REMARK  Name = 
REMARK  7 active torsions:
REMARK  status: ('A' for Active; 'I' for Inactive)
REMARK    1  A    between atoms: C_1  and  C_2
REMARK    2  A    between atoms: C_2  and  O_3
REMARK    3  A    between atoms: O_3  and  C_4
REMARK    4  A    between atoms: C_4  and  C_6
REMARK    5  A    between atoms: C_13  and  O_14
REMARK    6  A    between atoms: O_14  and  C_15
REMARK    7  A    between atoms: C_22  and  C_23
REMARK                            x       y       z     vdW  Elec       q    Type
REMARK                         _______ _______ _______ _____ _____    ______ ____
ROOT
ATOM      1  C   UNL     1       2.056   5.085  19.581  0.00  0.00    +0.000 A 
ATOM      2  S   UNL     1       2.014   6.705  20.122  0.00  0.00    +0.000 S 
ATOM      3  C   UNL     1       2.326   7.273  18.528  0.00  0.00    +0.000 A 
ATOM      4  N   UNL     1       2.388   8.582  18.187  0.00  0.00    +0.000 N 
ATOM      5  C   UNL     1       1.795   9.635  18.799  0.00  0.00    +0.000 A 
ATOM      6  N   UNL     1       0.976   9.576  19.823  0.00  0.00    +0.000 NA
ATOM      7  C   UNL     1       0.544  10.839  20.210  0.00  0.00    +0.000 A 
ATOM      8  C   UNL     1      -0.336  11.137  21.287  0.00  0.00    +0.000 A 
ATOM      9  C   UNL     1      -0.642  12.483  21.542  0.00  0.00    +0.000 A 
ATOM     10  C   UNL     1      -0.110  13.505  20.760  0.00  0.00    +0.000 A 
ATOM     11  C   UNL     1       0.741  13.223  19.692  0.00  0.00    +0.000 A 
ATOM     12  C   UNL     1       1.056  11.880  19.436  0.00  0.00    +0.000 A 
ATOM     13  S   UNL     1       2.066  11.228  18.203  0.00  0.00    +0.000 S 
ATOM     14  N   UNL     1       2.558   6.315  17.657  0.00  0.00    +0.000 NA
ATOM     15  C   UNL     1       2.354   5.063  18.228  0.00  0.00    +0.000 A 
ATOM     16  C   UNL     1       2.434   3.861  17.355  0.00  0.00    +0.000 C 
ATOM     17  H   UNL     1       2.794   8.755  17.277  0.00  0.00    +0.000 HD
ENDROOT
BRANCH   1  18
ATOM     18  C   UNL     1       1.748   3.975  20.452  0.00  0.00    +0.000 C 
ATOM     19  O   UNL     1       0.650   3.442  20.555  0.00  0.00    +0.000 OA
BRANCH  18  20
ATOM     20  O   UNL     1       2.825   3.658  21.228  0.00  0.00    +0.000 OA
BRANCH  20  22
ATOM     21  C   UNL     1       4.405   2.285  20.084  0.00  0.00    +0.000 C 
ATOM     22  C   UNL     1       3.300   2.312  21.127  0.00  0.00    +0.000 C 
ENDBRANCH  20  22
ENDBRANCH  18  20
ENDBRANCH   1  18
BRANCH   8  23
ATOM     23  O   UNL     1      -0.829  10.079  22.009  0.00  0.00    +0.000 OA
ATOM     24  C   UNL     1      -0.175   9.751  23.227  0.00  0.00    +0.000 C 
ENDBRANCH   8  23
TORSDOF 4
ENDMDL
MODEL 8
REMARK VINA RESULT:      -5.5      6.434     10.753
REMARK  Name = 
REMARK  7 active torsions:
REMARK  status: ('A' for Active; 'I' for Inactive)
REMARK    1  A    between atoms: C_1  and  C_2
REMARK    2  A    between atoms: C_2  and  O_3
REMARK    3  A    between atoms: O_3  and  C_4
REMARK    4  A    between atoms: C_4  and  C_6
REMARK    5  A    between atoms: C_13  and  O_14
REMARK    6  A    between atoms: O_14  and  C_15
REMARK    7  A    between atoms: C_22  and  C_23
REMARK                            x       y       z     vdW  Elec       q    Type
REMARK                         _______ _______ _______ _____ _____    ______ ____
ROOT
ATOM      1  C   UNL     1       3.991  15.522  19.152  0.00  0.00    +0.000 A 
ATOM      2  S   UNL     1       5.394  15.017  18.318  0.00  0.00    +0.000 S 
ATOM      3  C   UNL     1       6.176  16.507  18.676  0.00  0.00    +0.000 A 
ATOM      4  N   UNL     1       7.449  16.801  18.321  0.00  0.00    +0.000 N 
ATOM      5  C   UNL     1       8.472  15.944  18.088  0.00  0.00    +0.000 A 
ATOM      6  N   UNL     1       8.438  14.639  18.228  0.00  0.00    +0.000 NA
ATOM      7  C   UNL     1       9.656  14.055  17.907  0.00  0.00    +0.000 A 
ATOM      8  C   UNL     1       9.960  12.666  17.936  0.00  0.00    +0.000 A 
ATOM      9  C   UNL     1      11.248  12.258  17.553  0.00  0.00    +0.000 A 
ATOM     10  C   UNL     1      12.211  13.185  17.162  0.00  0.00    +0.000 A 
ATOM     11  C   UNL     1      11.928  14.550  17.144  0.00  0.00    +0.000 A 
ATOM     12  C   UNL     1      10.642  14.963  17.519  0.00  0.00    +0.000 A 
ATOM     13  S   UNL     1      10.003  16.560  17.596  0.00  0.00    +0.000 S 
ATOM     14  N   UNL     1       5.404  17.379  19.288  0.00  0.00    +0.000 NA
ATOM     15  C   UNL     1       4.176  16.814  19.615  0.00  0.00    +0.000 A 
ATOM     16  C   UNL     1       3.223  17.609  20.436  0.00  0.00    +0.000 C 
ATOM     17  H   UNL     1       7.687  17.780  18.404  0.00  0.00    +0.000 HD
ENDROOT
BRANCH   1  18
ATOM     18  C   UNL     1       2.861  14.646  19.356  0.00  0.00    +0.000 C 
ATOM     19  O   UNL     1       2.808  13.743  20.181  0.00  0.00    +0.000 OA
BRANCH  18  20
ATOM     20  O   UNL     1       1.887  14.894  18.433  0.00  0.00    +0.000 OA
BRANCH  20  22
ATOM     21  C   UNL     1      -0.345  14.187  18.889  0.00  0.00    +0.000 C 
ATOM     22  C   UNL     1       0.632  15.349  18.948  0.00  0.00    +0.000 C 
ENDBRANCH  20  22
ENDBRANCH  18  20
ENDBRANCH   1  18
BRANCH   8  23
ATOM     23  O   UNL     1       8.965  11.811  18.341  0.00  0.00    +0.000 OA
ATOM     24  C   UNL     1       9.355  10.565  18.901  0.00  0.00    +0.000 C 
ENDBRANCH   8  23
TORSDOF 4
ENDMDL
MODEL 9
REMARK VINA RESULT:      -5.5      6.033     10.386
REMARK  Name = 
REMARK  7 active torsions:
REMARK  status: ('A' for Active; 'I' for Inactive)
REMARK    1  A    between atoms: C_1  and  C_2
REMARK    2  A    between atoms: C_2  and  O_3
REMARK    3  A    between atoms: O_3  and  C_4
REMARK    4  A    between atoms: C_4  and  C_6
REMARK    5  A    between atoms: C_13  and  O_14
REMARK    6  A    between atoms: O_14  and  C_15
REMARK    7  A    between atoms: C_22  and  C_23
REMARK                            x       y       z     vdW  Elec       q    Type
REMARK                         _______ _______ _______ _____ _____    ______ ____
ROOT
ATOM      1  C   UNL     1       3.734  15.498  18.726  0.00  0.00    +0.000 A 
ATOM      2  S   UNL     1       5.202  15.036  17.985  0.00  0.00    +0.000 S 
ATOM      3  C   UNL     1       5.984  16.441  18.596  0.00  0.00    +0.000 A 
ATOM      4  N   UNL     1       7.295  16.723  18.411  0.00  0.00    +0.000 N 
ATOM      5  C   UNL     1       8.312  15.858  18.182  0.00  0.00    +0.000 A 
ATOM      6  N   UNL     1       8.226  14.548  18.160  0.00  0.00    +0.000 NA
ATOM      7  C   UNL     1       9.454  13.955  17.897  0.00  0.00    +0.000 A 
ATOM      8  C   UNL     1       9.714  12.561  17.791  0.00  0.00    +0.000 A 
ATOM      9  C   UNL     1      11.023  12.149  17.494  0.00  0.00    +0.000 A 
ATOM     10  C   UNL     1      12.048  13.075  17.317  0.00  0.00    +0.000 A 
ATOM     11  C   UNL     1      11.808  14.443  17.434  0.00  0.00    +0.000 A 
ATOM     12  C   UNL     1      10.501  14.861  17.724  0.00  0.00    +0.000 A 
ATOM     13  S   UNL     1       9.904  16.464  17.926  0.00  0.00    +0.000 S 
ATOM     14  N   UNL     1       5.176  17.267  19.227  0.00  0.00    +0.000 NA
ATOM     15  C   UNL     1       3.905  16.719  19.357  0.00  0.00    +0.000 A 
ATOM     16  C   UNL     1       2.894  17.451  20.166  0.00  0.00    +0.000 C 
ATOM     17  H   UNL     1       7.551  17.675  18.634  0.00  0.00    +0.000 HD
ENDROOT
BRANCH   1  18
ATOM     18  C   UNL     1       2.563  14.651  18.708  0.00  0.00    +0.000 C 
ATOM     19  O   UNL     1       1.414  15.039  18.545  0.00  0.00    +0.000 OA
BRANCH  18  20
ATOM     20  O   UNL     1       2.899  13.360  18.999  0.00  0.00    +0.000 OA
BRANCH  20  22
ATOM     21  C   UNL     1       1.240  11.902  19.902  0.00  0.00    +0.000 C 
ATOM     22  C   UNL     1       1.940  12.362  18.634  0.00  0.00    +0.000 C 
ENDBRANCH  20  22
ENDBRANCH  18  20
ENDBRANCH   1  18
BRANCH   8  23
ATOM     23  O   UNL     1       8.657  11.706  17.987  0.00  0.00    +0.000 OA
ATOM     24  C   UNL     1       8.952  10.379  18.397  0.00  0.00    +0.000 C 
ENDBRANCH   8  23
TORSDOF 4
ENDMDL
