MODEL 1
REMARK VINA RESULT:      -6.7      0.000      0.000
REMARK  Name = 
REMARK  3 active torsions:
REMARK  status: ('A' for Active; 'I' for Inactive)
REMARK    1  A    between atoms: C_1  and  N_2
REMARK    2  A    between atoms: C_5  and  C_6
REMARK    3  A    between atoms: C_6  and  N_7
REMARK                            x       y       z     vdW  Elec       q    Type
REMARK                         _______ _______ _______ _____ _____    ______ ____
ROOT
ATOM      1  N   UNL     1       3.568   5.785  18.756  0.00  0.00    +0.000 NA
ATOM      2  C   UNL     1       4.982   5.916  18.315  0.00  0.00    +0.000 C 
ATOM      3  C   UNL     1       5.951   5.083  19.161  0.00  0.00    +0.000 C 
ATOM      4  O   UNL     1       5.551   3.712  19.214  0.00  0.00    +0.000 OA
ATOM      5  C   UNL     1       4.229   3.626  19.760  0.00  0.00    +0.000 C 
ATOM      6  C   UNL     1       3.168   4.332  18.846  0.00  0.00    +0.000 C 
ATOM      7  C   UNL     1       3.095   3.613  17.471  0.00  0.00    +0.000 C 
ATOM      8  C   UNL     1       2.570   2.177  17.586  0.00  0.00    +0.000 C 
ATOM      9  N   UNL     1       1.267   2.130  18.247  0.00  0.00    +0.000 NA
ATOM     10  C   UNL     1       1.296   2.725  19.580  0.00  0.00    +0.000 C 
ATOM     11  C   UNL     1       1.781   4.180  19.534  0.00  0.00    +0.000 C 
ATOM     12  H   UNL     1       0.958   1.159  18.316  0.00  0.00    +0.000 HD
ENDROOT
BRANCH   1  13
ATOM     13  C   UNL     1       2.702   6.625  17.898  0.00  0.00    +0.000 C 
BRANCH  13  18
ATOM     14  C   UNL     1       1.136   9.157  21.749  0.00  0.00    +0.000 C 
ATOM     15  N   UNL     1       1.381   8.858  20.359  0.00  0.00    +0.000 N 
ATOM     16  C   UNL     1       1.131   9.671  19.293  0.00  0.00    +0.000 A 
ATOM     17  C   UNL     1       1.589   8.994  18.188  0.00  0.00    +0.000 A 
ATOM     18  C   UNL     1       2.082   7.759  18.683  0.00  0.00    +0.000 A 
ATOM     19  N   UNL     1       1.946   7.684  20.018  0.00  0.00    +0.000 NA
ENDBRANCH  13  18
ENDBRANCH   1  13
TORSDOF 2
ENDMDL
MODEL 2
REMARK VINA RESULT:      -6.6      3.393      5.705
REMARK  Name = 
REMARK  3 active torsions:
REMARK  status: ('A' for Active; 'I' for Inactive)
REMARK    1  A    between atoms: C_1  and  N_2
REMARK    2  A    between atoms: C_5  and  C_6
REMARK    3  A    between atoms: C_6  and  N_7
REMARK                            x       y       z     vdW  Elec       q    Type
REMARK                         _______ _______ _______ _____ _____    ______ ____
ROOT
ATOM      1  N   UNL     1       4.538   5.267  17.034  0.00  0.00    +0.000 NA
ATOM      2  C   UNL     1       4.751   6.657  17.517  0.00  0.00    +0.000 C 
ATOM      3  C   UNL     1       3.441   7.433  17.696  0.00  0.00    +0.000 C 
ATOM      4  O   UNL     1       2.527   6.727  18.537  0.00  0.00    +0.000 OA
ATOM      5  C   UNL     1       2.256   5.441  17.967  0.00  0.00    +0.000 C 
ATOM      6  C   UNL     1       3.541   4.543  17.907  0.00  0.00    +0.000 C 
ATOM      7  C   UNL     1       4.054   4.259  19.346  0.00  0.00    +0.000 C 
ATOM      8  C   UNL     1       3.068   3.418  20.165  0.00  0.00    +0.000 C 
ATOM      9  N   UNL     1       2.739   2.162  19.492  0.00  0.00    +0.000 NA
ATOM     10  C   UNL     1       2.179   2.374  18.160  0.00  0.00    +0.000 C 
ATOM     11  C   UNL     1       3.133   3.183  17.272  0.00  0.00    +0.000 C 
ATOM     12  H   UNL     1       2.073   1.639  20.061  0.00  0.00    +0.000 HD
ENDROOT
BRANCH   1  13
ATOM     13  C   UNL     1       5.847   4.592  16.878  0.00  0.00    +0.000 C 
BRANCH  13  18
ATOM     14  C   UNL     1       8.349   5.631  12.834  0.00  0.00    +0.000 C 
ATOM     15  N   UNL     1       7.345   5.000  13.657  0.00  0.00    +0.000 N 
ATOM     16  C   UNL     1       6.468   4.030  13.274  0.00  0.00    +0.000 A 
ATOM     17  C   UNL     1       5.762   3.693  14.405  0.00  0.00    +0.000 A 
ATOM     18  C   UNL     1       6.269   4.537  15.427  0.00  0.00    +0.000 A 
ATOM     19  N   UNL     1       7.239   5.339  14.956  0.00  0.00    +0.000 NA
ENDBRANCH  13  18
ENDBRANCH   1  13
TORSDOF 2
ENDMDL
MODEL 3
REMARK VINA RESULT:      -6.6      0.818      1.172
REMARK  Name = 
REMARK  3 active torsions:
REMARK  status: ('A' for Active; 'I' for Inactive)
REMARK    1  A    between atoms: C_1  and  N_2
REMARK    2  A    between atoms: C_5  and  C_6
REMARK    3  A    between atoms: C_6  and  N_7
REMARK                            x       y       z     vdW  Elec       q    Type
REMARK                         _______ _______ _______ _____ _____    ______ ____
ROOT
ATOM      1  N   UNL     1       3.504   5.809  18.874  0.00  0.00    +0.000 NA
ATOM      2  C   UNL     1       4.901   5.955  18.387  0.00  0.00    +0.000 C 
ATOM      3  C   UNL     1       5.899   5.096  19.173  0.00  0.00    +0.000 C 
ATOM      4  O   UNL     1       5.500   3.724  19.198  0.00  0.00    +0.000 OA
ATOM      5  C   UNL     1       4.199   3.621  19.787  0.00  0.00    +0.000 C 
ATOM      6  C   UNL     1       3.106   4.354  18.933  0.00  0.00    +0.000 C 
ATOM      7  C   UNL     1       2.985   3.677  17.540  0.00  0.00    +0.000 C 
ATOM      8  C   UNL     1       2.464   2.238  17.630  0.00  0.00    +0.000 C 
ATOM      9  N   UNL     1       1.184   2.170  18.334  0.00  0.00    +0.000 NA
ATOM     10  C   UNL     1       1.261   2.725  19.683  0.00  0.00    +0.000 C 
ATOM     11  C   UNL     1       1.745   4.180  19.665  0.00  0.00    +0.000 C 
ATOM     12  H   UNL     1       0.877   1.198  18.384  0.00  0.00    +0.000 HD
ENDROOT
BRANCH   1  13
ATOM     13  C   UNL     1       2.609   6.675  18.073  0.00  0.00    +0.000 C 
BRANCH  13  18
ATOM     14  C   UNL     1       0.604  10.975  19.161  0.00  0.00    +0.000 C 
ATOM     15  N   UNL     1       1.157   9.663  19.396  0.00  0.00    +0.000 N 
ATOM     16  C   UNL     1       1.222   9.006  20.589  0.00  0.00    +0.000 A 
ATOM     17  C   UNL     1       1.760   7.772  20.310  0.00  0.00    +0.000 A 
ATOM     18  C   UNL     1       2.015   7.782  18.915  0.00  0.00    +0.000 A 
ATOM     19  N   UNL     1       1.644   8.950  18.363  0.00  0.00    +0.000 NA
ENDBRANCH  13  18
ENDBRANCH   1  13
TORSDOF 2
ENDMDL
MODEL 4
REMARK VINA RESULT:      -6.4      3.246      5.631
REMARK  Name = 
REMARK  3 active torsions:
REMARK  status: ('A' for Active; 'I' for Inactive)
REMARK    1  A    between atoms: C_1  and  N_2
REMARK    2  A    between atoms: C_5  and  C_6
REMARK    3  A    between atoms: C_6  and  N_7
REMARK                            x       y       z     vdW  Elec       q    Type
REMARK                         _______ _______ _______ _____ _____    ______ ____
ROOT
ATOM      1  N   UNL     1       4.293   5.061  17.191  0.00  0.00    +0.000 NA
ATOM      2  C   UNL     1       4.633   6.437  17.638  0.00  0.00    +0.000 C 
ATOM      3  C   UNL     1       3.402   7.339  17.782  0.00  0.00    +0.000 C 
ATOM      4  O   UNL     1       2.419   6.748  18.633  0.00  0.00    +0.000 OA
ATOM      5  C   UNL     1       2.031   5.477  18.097  0.00  0.00    +0.000 C 
ATOM      6  C   UNL     1       3.225   4.460  18.074  0.00  0.00    +0.000 C 
ATOM      7  C   UNL     1       3.698   4.170  19.526  0.00  0.00    +0.000 C 
ATOM      8  C   UNL     1       2.630   3.451  20.358  0.00  0.00    +0.000 C 
ATOM      9  N   UNL     1       2.189   2.213  19.717  0.00  0.00    +0.000 NA
ATOM     10  C   UNL     1       1.661   2.438  18.375  0.00  0.00    +0.000 C 
ATOM     11  C   UNL     1       2.694   3.127  17.474  0.00  0.00    +0.000 C 
ATOM     12  H   UNL     1       1.472   1.771  20.295  0.00  0.00    +0.000 HD
ENDROOT
BRANCH   1  13
ATOM     13  C   UNL     1       5.532   4.260  17.068  0.00  0.00    +0.000 C 
BRANCH  13  18
ATOM     14  C   UNL     1       5.950   3.329  12.309  0.00  0.00    +0.000 C 
ATOM     15  N   UNL     1       6.284   3.901  13.590  0.00  0.00    +0.000 N 
ATOM     16  C   UNL     1       7.278   4.797  13.850  0.00  0.00    +0.000 A 
ATOM     17  C   UNL     1       7.169   5.103  15.185  0.00  0.00    +0.000 A 
ATOM     18  C   UNL     1       6.088   4.318  15.662  0.00  0.00    +0.000 A 
ATOM     19  N   UNL     1       5.553   3.580  14.674  0.00  0.00    +0.000 NA
ENDBRANCH  13  18
ENDBRANCH   1  13
TORSDOF 2
ENDMDL
MODEL 5
REMARK VINA RESULT:      -6.3      2.615      4.492
REMARK  Name = 
REMARK  3 active torsions:
REMARK  status: ('A' for Active; 'I' for Inactive)
REMARK    1  A    between atoms: C_1  and  N_2
REMARK    2  A    between atoms: C_5  and  C_6
REMARK    3  A    between atoms: C_6  and  N_7
REMARK                            x       y       z     vdW  Elec       q    Type
REMARK                         _______ _______ _______ _____ _____    ______ ____
ROOT
ATOM      1  N   UNL     1       4.134   5.532  17.115  0.00  0.00    +0.000 NA
ATOM      2  C   UNL     1       4.091   6.795  17.898  0.00  0.00    +0.000 C 
ATOM      3  C   UNL     1       2.730   7.039  18.561  0.00  0.00    +0.000 C 
ATOM      4  O   UNL     1       2.330   5.923  19.358  0.00  0.00    +0.000 OA
ATOM      5  C   UNL     1       2.268   4.752  18.534  0.00  0.00    +0.000 C 
ATOM      6  C   UNL     1       3.673   4.364  17.955  0.00  0.00    +0.000 C 
ATOM      7  C   UNL     1       4.641   4.003  19.116  0.00  0.00    +0.000 C 
ATOM      8  C   UNL     1       4.205   2.743  19.872  0.00  0.00    +0.000 C 
ATOM      9  N   UNL     1       4.050   1.600  18.973  0.00  0.00    +0.000 NA
ATOM     10  C   UNL     1       3.090   1.858  17.904  0.00  0.00    +0.000 C 
ATOM     11  C   UNL     1       3.485   3.092  17.081  0.00  0.00    +0.000 C 
ATOM     12  H   UNL     1       3.749   0.786  19.511  0.00  0.00    +0.000 HD
ENDROOT
BRANCH   1  13
ATOM     13  C   UNL     1       5.473   5.376  16.502  0.00  0.00    +0.000 C 
BRANCH  13  18
ATOM     14  C   UNL     1       8.189   9.193  17.826  0.00  0.00    +0.000 C 
ATOM     15  N   UNL     1       7.717   7.829  17.819  0.00  0.00    +0.000 N 
ATOM     16  C   UNL     1       8.119   6.823  18.646  0.00  0.00    +0.000 A 
ATOM     17  C   UNL     1       7.348   5.734  18.315  0.00  0.00    +0.000 A 
ATOM     18  C   UNL     1       6.518   6.172  17.252  0.00  0.00    +0.000 A 
ATOM     19  N   UNL     1       6.755   7.460  16.952  0.00  0.00    +0.000 NA
ENDBRANCH  13  18
ENDBRANCH   1  13
TORSDOF 2
ENDMDL
MODEL 6
REMARK VINA RESULT:      -6.2      3.710      6.067
REMARK  Name = 
REMARK  3 active torsions:
REMARK  status: ('A' for Active; 'I' for Inactive)
REMARK    1  A    between atoms: C_1  and  N_2
REMARK    2  A    between atoms: C_5  and  C_6
REMARK    3  A    between atoms: C_6  and  N_7
REMARK                            x       y       z     vdW  Elec       q    Type
REMARK                         _______ _______ _______ _____ _____    ______ ____
ROOT
ATOM      1  N   UNL     1       5.164   5.234  16.643  0.00  0.00    +0.000 NA
ATOM      2  C   UNL     1       5.245   6.636  17.131  0.00  0.00    +0.000 C 
ATOM      3  C   UNL     1       3.876   7.216  17.508  0.00  0.00    +0.000 C 
ATOM      4  O   UNL     1       3.196   6.380  18.445  0.00  0.00    +0.000 OA
ATOM      5  C   UNL     1       3.032   5.073  17.882  0.00  0.00    +0.000 C 
ATOM      6  C   UNL     1       4.409   4.368  17.622  0.00  0.00    +0.000 C 
ATOM      7  C   UNL     1       5.151   4.148  18.970  0.00  0.00    +0.000 C 
ATOM      8  C   UNL     1       4.415   3.169  19.892  0.00  0.00    +0.000 C 
ATOM      9  N   UNL     1       4.175   1.885  19.235  0.00  0.00    +0.000 NA
ATOM     10  C   UNL     1       3.412   2.025  17.999  0.00  0.00    +0.000 C 
ATOM     11  C   UNL     1       4.111   2.969  17.012  0.00  0.00    +0.000 C 
ATOM     12  H   UNL     1       3.674   1.267  19.875  0.00  0.00    +0.000 HD
ENDROOT
BRANCH   1  13
ATOM     13  C   UNL     1       6.520   4.754  16.292  0.00  0.00    +0.000 C 
BRANCH  13  18
ATOM     14  C   UNL     1       5.616   2.905  11.881  0.00  0.00    +0.000 C 
ATOM     15  N   UNL     1       6.276   3.708  12.881  0.00  0.00    +0.000 N 
ATOM     16  C   UNL     1       7.271   4.616  12.672  0.00  0.00    +0.000 A 
ATOM     17  C   UNL     1       7.531   5.179  13.899  0.00  0.00    +0.000 A 
ATOM     18  C   UNL     1       6.656   4.525  14.803  0.00  0.00    +0.000 A 
ATOM     19  N   UNL     1       5.891   3.620  14.168  0.00  0.00    +0.000 NA
ENDBRANCH  13  18
ENDBRANCH   1  13
TORSDOF 2
ENDMDL
MODEL 7
REMARK VINA RESULT:      -6.2      1.691      3.564
REMARK  Name = 
REMARK  3 active torsions:
REMARK  status: ('A' for Active; 'I' for Inactive)
REMARK    1  A    between atoms: C_1  and  N_2
REMARK    2  A    between atoms: C_5  and  C_6
REMARK    3  A    between atoms: C_6  and  N_7
REMARK                            x       y       z     vdW  Elec       q    Type
REMARK                         _______ _______ _______ _____ _____    ______ ____
ROOT
ATOM      1  N   UNL     1       3.092   5.766  18.268  0.00  0.00    +0.000 NA
ATOM      2  C   UNL     1       2.407   4.468  18.505  0.00  0.00    +0.000 C 
ATOM      3  C   UNL     1       2.545   3.497  17.326  0.00  0.00    +0.000 C 
ATOM      4  O   UNL     1       3.914   3.303  16.967  0.00  0.00    +0.000 OA
ATOM      5  C   UNL     1       4.499   4.566  16.629  0.00  0.00    +0.000 C 
ATOM      6  C   UNL     1       4.527   5.548  17.852  0.00  0.00    +0.000 C 
ATOM      7  C   UNL     1       5.426   4.964  18.976  0.00  0.00    +0.000 C 
ATOM      8  C   UNL     1       6.898   4.868  18.560  0.00  0.00    +0.000 C 
ATOM      9  N   UNL     1       7.421   6.161  18.120  0.00  0.00    +0.000 NA
ATOM     10  C   UNL     1       6.656   6.722  17.010  0.00  0.00    +0.000 C 
ATOM     11  C   UNL     1       5.174   6.878  17.371  0.00  0.00    +0.000 C 
ATOM     12  H   UNL     1       8.397   6.054  17.841  0.00  0.00    +0.000 HD
ENDROOT
BRANCH   1  13
ATOM     13  C   UNL     1       2.903   6.646  19.444  0.00  0.00    +0.000 C 
BRANCH  13  18
ATOM     14  C   UNL     1       0.079  10.564  20.051  0.00  0.00    +0.000 C 
ATOM     15  N   UNL     1       0.865   9.582  19.343  0.00  0.00    +0.000 N 
ATOM     16  C   UNL     1       1.165   9.582  18.013  0.00  0.00    +0.000 A 
ATOM     17  C   UNL     1       1.988   8.499  17.814  0.00  0.00    +0.000 A 
ATOM     18  C   UNL     1       2.111   7.884  19.085  0.00  0.00    +0.000 A 
ATOM     19  N   UNL     1       1.414   8.555  20.018  0.00  0.00    +0.000 NA
ENDBRANCH  13  18
ENDBRANCH   1  13
TORSDOF 2
ENDMDL
MODEL 8
REMARK VINA RESULT:      -6.1      2.835      5.135
REMARK  Name = 
REMARK  3 active torsions:
REMARK  status: ('A' for Active; 'I' for Inactive)
REMARK    1  A    between atoms: C_1  and  N_2
REMARK    2  A    between atoms: C_5  and  C_6
REMARK    3  A    between atoms: C_6  and  N_7
REMARK                            x       y       z     vdW  Elec       q    Type
REMARK                         _______ _______ _______ _____ _____    ______ ____
ROOT
ATOM      1  N   UNL     1       4.720   5.700  16.930  0.00  0.00    +0.000 NA
ATOM      2  C   UNL     1       4.480   4.259  16.658  0.00  0.00    +0.000 C 
ATOM      3  C   UNL     1       5.443   3.680  15.615  0.00  0.00    +0.000 C 
ATOM      4  O   UNL     1       6.805   3.919  15.973  0.00  0.00    +0.000 OA
ATOM      5  C   UNL     1       7.019   5.330  16.104  0.00  0.00    +0.000 C 
ATOM      6  C   UNL     1       6.171   5.947  17.270  0.00  0.00    +0.000 C 
ATOM      7  C   UNL     1       6.613   5.333  18.627  0.00  0.00    +0.000 C 
ATOM      8  C   UNL     1       8.054   5.703  18.997  0.00  0.00    +0.000 C 
ATOM      9  N   UNL     1       8.252   7.152  19.014  0.00  0.00    +0.000 NA
ATOM     10  C   UNL     1       7.923   7.774  17.734  0.00  0.00    +0.000 C 
ATOM     11  C   UNL     1       6.478   7.471  17.317  0.00  0.00    +0.000 C 
ATOM     12  H   UNL     1       9.223   7.358  19.252  0.00  0.00    +0.000 HD
ENDROOT
BRANCH   1  13
ATOM     13  C   UNL     1       3.747   6.182  17.937  0.00  0.00    +0.000 C 
BRANCH  13  18
ATOM     14  C   UNL     1       2.132   2.721  20.955  0.00  0.00    +0.000 C 
ATOM     15  N   UNL     1       2.190   3.530  19.761  0.00  0.00    +0.000 N 
ATOM     16  C   UNL     1       1.323   3.495  18.710  0.00  0.00    +0.000 A 
ATOM     17  C   UNL     1       1.737   4.484  17.849  0.00  0.00    +0.000 A 
ATOM     18  C   UNL     1       2.886   5.052  18.456  0.00  0.00    +0.000 A 
ATOM     19  N   UNL     1       3.158   4.456  19.629  0.00  0.00    +0.000 NA
ENDBRANCH  13  18
ENDBRANCH   1  13
TORSDOF 2
ENDMDL
MODEL 9
REMARK VINA RESULT:      -6.1      3.777      5.977
REMARK  Name = 
REMARK  3 active torsions:
REMARK  status: ('A' for Active; 'I' for Inactive)
REMARK    1  A    between atoms: C_1  and  N_2
REMARK    2  A    between atoms: C_5  and  C_6
REMARK    3  A    between atoms: C_6  and  N_7
REMARK                            x       y       z     vdW  Elec       q    Type
REMARK                         _______ _______ _______ _____ _____    ______ ____
ROOT
ATOM      1  N   UNL     1       6.026   4.668  16.961  0.00  0.00    +0.000 NA
ATOM      2  C   UNL     1       7.371   4.416  17.541  0.00  0.00    +0.000 C 
ATOM      3  C   UNL     1       7.737   5.408  18.652  0.00  0.00    +0.000 C 
ATOM      4  O   UNL     1       6.733   5.447  19.668  0.00  0.00    +0.000 OA
ATOM      5  C   UNL     1       5.479   5.814  19.081  0.00  0.00    +0.000 C 
ATOM      6  C   UNL     1       4.979   4.746  18.047  0.00  0.00    +0.000 C 
ATOM      7  C   UNL     1       4.719   3.394  18.768  0.00  0.00    +0.000 C 
ATOM      8  C   UNL     1       3.569   3.480  19.778  0.00  0.00    +0.000 C 
ATOM      9  N   UNL     1       2.337   3.962  19.155  0.00  0.00    +0.000 NA
ATOM     10  C   UNL     1       2.506   5.269  18.526  0.00  0.00    +0.000 C 
ATOM     11  C   UNL     1       3.622   5.246  17.475  0.00  0.00    +0.000 C 
ATOM     12  H   UNL     1       1.601   4.016  19.860  0.00  0.00    +0.000 HD
ENDROOT
BRANCH   1  13
ATOM     13  C   UNL     1       5.754   3.678  15.894  0.00  0.00    +0.000 C 
BRANCH  13  18
ATOM     14  C   UNL     1       8.696   6.028  12.809  0.00  0.00    +0.000 C 
ATOM     15  N   UNL     1       7.643   5.136  13.230  0.00  0.00    +0.000 N 
ATOM     16  C   UNL     1       6.908   4.308  12.435  0.00  0.00    +0.000 A 
ATOM     17  C   UNL     1       6.083   3.607  13.282  0.00  0.00    +0.000 A 
ATOM     18  C   UNL     1       6.375   4.100  14.580  0.00  0.00    +0.000 A 
ATOM     19  N   UNL     1       7.332   5.041  14.537  0.00  0.00    +0.000 NA
ENDBRANCH  13  18
ENDBRANCH   1  13
TORSDOF 2
ENDMDL
