MODEL 1
REMARK VINA RESULT:      -9.1      0.000      0.000
REMARK  Name = 
REMARK  10 active torsions:
REMARK  status: ('A' for Active; 'I' for Inactive)
REMARK    1  A    between atoms: C_2  and  C_3
REMARK    2  A    between atoms: C_5  and  O_6
REMARK    3  A    between atoms: O_6  and  C_7
REMARK    4  A    between atoms: C_10  and  C_11
REMARK    5  A    between atoms: C_13  and  C_14
REMARK    6  A    between atoms: C_14  and  O_15
REMARK    7  A    between atoms: C_14  and  C_16
REMARK    8  A    between atoms: C_16  and  O_17
REMARK    9  A    between atoms: C_19  and  C_20
REMARK   10  A    between atoms: C_28  and  C_29
REMARK                            x       y       z     vdW  Elec       q    Type
REMARK                         _______ _______ _______ _____ _____    ______ ____
ROOT
ATOM      1  C   UNL     1       1.138   9.890  19.309  0.00  0.00    +0.000 A 
ATOM      2  C   UNL     1       1.733   9.714  18.059  0.00  0.00    +0.000 A 
ATOM      3  C   UNL     1       2.298   8.488  17.713  0.00  0.00    +0.000 A 
ATOM      4  C   UNL     1       2.358   7.429  18.631  0.00  0.00    +0.000 A 
ATOM      5  C   UNL     1       1.798   7.643  19.907  0.00  0.00    +0.000 A 
ATOM      6  C   UNL     1       1.195   8.860  20.245  0.00  0.00    +0.000 A 
ENDROOT
BRANCH   4   7
ATOM      7  C   UNL     1       3.015   6.161  18.254  0.00  0.00    +0.000 A 
ATOM      8  C   UNL     1       4.306   6.127  17.729  0.00  0.00    +0.000 A 
ATOM      9  C   UNL     1       4.894   4.909  17.368  0.00  0.00    +0.000 A 
ATOM     10  C   UNL     1       4.141   3.748  17.550  0.00  0.00    +0.000 A 
ATOM     11  C   UNL     1       2.859   3.857  18.069  0.00  0.00    +0.000 A 
ATOM     12  N   UNL     1       2.275   5.034  18.417  0.00  0.00    +0.000 NA
BRANCH  11  13
ATOM     13  C   UNL     1       2.059   2.608  18.270  0.00  0.00    +0.000 C 
ATOM     14  N   UNL     1       2.774   1.456  18.445  0.00  0.00    +0.000 N 
ATOM     15  O   UNL     1       0.833   2.611  18.278  0.00  0.00    +0.000 OA
ATOM     16  H   UNL     1       3.787   1.475  18.408  0.00  0.00    +0.000 HD
ATOM     17  H   UNL     1       2.279   0.583  18.555  0.00  0.00    +0.000 HD
ENDBRANCH  11  13
BRANCH   9  18
ATOM     18  C   UNL     1       6.307   4.821  16.834  0.00  0.00    +0.000 C 
BRANCH  18  19
ATOM     19  O   UNL     1       6.476   3.609  16.093  0.00  0.00    +0.000 OA
ATOM     20  H   UNL     1       5.778   3.004  16.413  0.00  0.00    +0.000 HD
ENDBRANCH  18  19
BRANCH  18  21
ATOM     21  C   UNL     1       7.384   4.895  17.932  0.00  0.00    +0.000 C 
BRANCH  21  22
ATOM     22  O   UNL     1       8.430   3.953  17.666  0.00  0.00    +0.000 OA
ATOM     23  H   UNL     1       8.750   4.124  16.761  0.00  0.00    +0.000 HD
ENDBRANCH  21  22
ENDBRANCH  18  21
ENDBRANCH   9  18
ENDBRANCH   4   7
BRANCH   1  24
ATOM     24  O   UNL     1       0.515  11.052  19.701  0.00  0.00    +0.000 OA
BRANCH  24  27
ATOM     25  C   UNL     1      -2.501  10.873  17.643  0.00  0.00    +0.000 A 
ATOM     26  C   UNL     1      -1.184  10.709  18.109  0.00  0.00    +0.000 A 
ATOM     27  C   UNL     1      -0.794  11.261  19.326  0.00  0.00    +0.000 A 
ATOM     28  C   UNL     1      -1.706  12.010  20.069  0.00  0.00    +0.000 A 
ATOM     29  C   UNL     1      -3.022  12.146  19.631  0.00  0.00    +0.000 A 
ATOM     30  C   UNL     1      -3.437  11.593  18.405  0.00  0.00    +0.000 A 
BRANCH  30  31
ATOM     31  C   UNL     1      -4.873  11.818  17.988  0.00  0.00    +0.000 C 
ATOM     32  F   UNL     1      -5.045  12.353  16.754  0.00  0.00    +0.000 F 
ATOM     33  F   UNL     1      -5.589  10.660  17.995  0.00  0.00    +0.000 F 
ATOM     34  F   UNL     1      -5.521  12.656  18.846  0.00  0.00    +0.000 F 
ENDBRANCH  30  31
BRANCH  25  36
ATOM     35  N   UNL     1      -3.136   9.806  15.371  0.00  0.00    +0.000 NA
ATOM     36  C   UNL     1      -2.830  10.280  16.379  0.00  0.00    +0.000 C 
ENDBRANCH  25  36
ENDBRANCH  24  27
ENDBRANCH   1  24
TORSDOF 10
ENDMDL
MODEL 2
REMARK VINA RESULT:      -9.0      0.760      1.254
REMARK  Name = 
REMARK  10 active torsions:
REMARK  status: ('A' for Active; 'I' for Inactive)
REMARK    1  A    between atoms: C_2  and  C_3
REMARK    2  A    between atoms: C_5  and  O_6
REMARK    3  A    between atoms: O_6  and  C_7
REMARK    4  A    between atoms: C_10  and  C_11
REMARK    5  A    between atoms: C_13  and  C_14
REMARK    6  A    between atoms: C_14  and  O_15
REMARK    7  A    between atoms: C_14  and  C_16
REMARK    8  A    between atoms: C_16  and  O_17
REMARK    9  A    between atoms: C_19  and  C_20
REMARK   10  A    between atoms: C_28  and  C_29
REMARK                            x       y       z     vdW  Elec       q    Type
REMARK                         _______ _______ _______ _____ _____    ______ ____
ROOT
ATOM      1  C   UNL     1       1.209   9.920  19.232  0.00  0.00    +0.000 A 
ATOM      2  C   UNL     1       1.174   8.922  20.208  0.00  0.00    +0.000 A 
ATOM      3  C   UNL     1       1.832   7.711  20.001  0.00  0.00    +0.000 A 
ATOM      4  C   UNL     1       2.475   7.429  18.787  0.00  0.00    +0.000 A 
ATOM      5  C   UNL     1       2.455   8.431  17.794  0.00  0.00    +0.000 A 
ATOM      6  C   UNL     1       1.829   9.663  18.013  0.00  0.00    +0.000 A 
ENDROOT
BRANCH   4   7
ATOM      7  C   UNL     1       3.113   6.115  18.577  0.00  0.00    +0.000 A 
ATOM      8  C   UNL     1       4.370   5.991  17.986  0.00  0.00    +0.000 A 
ATOM      9  C   UNL     1       4.941   4.728  17.788  0.00  0.00    +0.000 A 
ATOM     10  C   UNL     1       4.207   3.615  18.197  0.00  0.00    +0.000 A 
ATOM     11  C   UNL     1       2.957   3.811  18.769  0.00  0.00    +0.000 A 
ATOM     12  N   UNL     1       2.390   5.031  18.961  0.00  0.00    +0.000 NA
BRANCH  11  13
ATOM     13  C   UNL     1       2.177   2.614  19.214  0.00  0.00    +0.000 C 
ATOM     14  N   UNL     1       1.888   1.690  18.249  0.00  0.00    +0.000 N 
ATOM     15  O   UNL     1       1.814   2.465  20.375  0.00  0.00    +0.000 OA
ATOM     16  H   UNL     1       2.175   1.849  17.289  0.00  0.00    +0.000 HD
ATOM     17  H   UNL     1       1.338   0.880  18.493  0.00  0.00    +0.000 HD
ENDBRANCH  11  13
BRANCH   9  18
ATOM     18  C   UNL     1       6.320   4.550  17.190  0.00  0.00    +0.000 C 
BRANCH  18  19
ATOM     19  O   UNL     1       7.237   4.113  18.198  0.00  0.00    +0.000 OA
ATOM     20  H   UNL     1       6.728   3.507  18.773  0.00  0.00    +0.000 HD
ENDBRANCH  18  19
BRANCH  18  21
ATOM     21  C   UNL     1       6.871   5.825  16.527  0.00  0.00    +0.000 C 
BRANCH  21  22
ATOM     22  O   UNL     1       7.451   5.512  15.255  0.00  0.00    +0.000 OA
ATOM     23  H   UNL     1       6.794   5.741  14.573  0.00  0.00    +0.000 HD
ENDBRANCH  21  22
ENDBRANCH  18  21
ENDBRANCH   9  18
ENDBRANCH   4   7
BRANCH   1  24
ATOM     24  O   UNL     1       0.630  11.159  19.386  0.00  0.00    +0.000 OA
BRANCH  24  27
ATOM     25  C   UNL     1      -2.476  10.830  17.488  0.00  0.00    +0.000 A 
ATOM     26  C   UNL     1      -1.132  10.724  17.888  0.00  0.00    +0.000 A 
ATOM     27  C   UNL     1      -0.703  11.310  19.076  0.00  0.00    +0.000 A 
ATOM     28  C   UNL     1      -1.605  12.035  19.854  0.00  0.00    +0.000 A 
ATOM     29  C   UNL     1      -2.946  12.113  19.481  0.00  0.00    +0.000 A 
ATOM     30  C   UNL     1      -3.400  11.525  18.287  0.00  0.00    +0.000 A 
BRANCH  30  31
ATOM     31  C   UNL     1      -4.863  11.687  17.941  0.00  0.00    +0.000 C 
ATOM     32  F   UNL     1      -5.118  12.215  16.719  0.00  0.00    +0.000 F 
ATOM     33  F   UNL     1      -5.526  10.498  17.978  0.00  0.00    +0.000 F 
ATOM     34  F   UNL     1      -5.505  12.494  18.832  0.00  0.00    +0.000 F 
ENDBRANCH  30  31
BRANCH  25  36
ATOM     35  N   UNL     1      -3.103   9.680  15.254  0.00  0.00    +0.000 NA
ATOM     36  C   UNL     1      -2.844  10.204  16.251  0.00  0.00    +0.000 C 
ENDBRANCH  25  36
ENDBRANCH  24  27
ENDBRANCH   1  24
TORSDOF 10
ENDMDL
MODEL 3
REMARK VINA RESULT:      -9.0      1.509      2.918
REMARK  Name = 
REMARK  10 active torsions:
REMARK  status: ('A' for Active; 'I' for Inactive)
REMARK    1  A    between atoms: C_2  and  C_3
REMARK    2  A    between atoms: C_5  and  O_6
REMARK    3  A    between atoms: O_6  and  C_7
REMARK    4  A    between atoms: C_10  and  C_11
REMARK    5  A    between atoms: C_13  and  C_14
REMARK    6  A    between atoms: C_14  and  O_15
REMARK    7  A    between atoms: C_14  and  C_16
REMARK    8  A    between atoms: C_16  and  O_17
REMARK    9  A    between atoms: C_19  and  C_20
REMARK   10  A    between atoms: C_28  and  C_29
REMARK                            x       y       z     vdW  Elec       q    Type
REMARK                         _______ _______ _______ _____ _____    ______ ____
ROOT
ATOM      1  C   UNL     1       1.146  10.015  19.298  0.00  0.00    +0.000 A 
ATOM      2  C   UNL     1       1.811   9.971  18.071  0.00  0.00    +0.000 A 
ATOM      3  C   UNL     1       2.451   8.804  17.658  0.00  0.00    +0.000 A 
ATOM      4  C   UNL     1       2.515   7.676  18.489  0.00  0.00    +0.000 A 
ATOM      5  C   UNL     1       1.882   7.758  19.746  0.00  0.00    +0.000 A 
ATOM      6  C   UNL     1       1.204   8.914  20.148  0.00  0.00    +0.000 A 
ENDROOT
BRANCH   4   7
ATOM      7  C   UNL     1       3.251   6.474  18.046  0.00  0.00    +0.000 A 
ATOM      8  C   UNL     1       2.686   5.200  18.107  0.00  0.00    +0.000 A 
ATOM      9  C   UNL     1       3.417   4.080  17.694  0.00  0.00    +0.000 A 
ATOM     10  C   UNL     1       4.715   4.289  17.229  0.00  0.00    +0.000 A 
ATOM     11  C   UNL     1       5.217   5.583  17.204  0.00  0.00    +0.000 A 
ATOM     12  N   UNL     1       4.520   6.678  17.609  0.00  0.00    +0.000 NA
BRANCH  11  13
ATOM     13  C   UNL     1       6.607   5.803  16.696  0.00  0.00    +0.000 C 
ATOM     14  N   UNL     1       7.344   4.679  16.450  0.00  0.00    +0.000 N 
ATOM     15  O   UNL     1       7.065   6.924  16.511  0.00  0.00    +0.000 OA
ATOM     16  H   UNL     1       6.952   3.762  16.637  0.00  0.00    +0.000 HD
ATOM     17  H   UNL     1       8.298   4.776  16.134  0.00  0.00    +0.000 HD
ENDBRANCH  11  13
BRANCH   9  18
ATOM     18  C   UNL     1       2.829   2.685  17.703  0.00  0.00    +0.000 C 
BRANCH  18  19
ATOM     19  O   UNL     1       1.407   2.755  17.846  0.00  0.00    +0.000 OA
ATOM     20  H   UNL     1       1.072   1.873  17.589  0.00  0.00    +0.000 HD
ENDBRANCH  18  19
BRANCH  18  21
ATOM     21  C   UNL     1       3.404   1.783  18.810  0.00  0.00    +0.000 C 
BRANCH  21  22
ATOM     22  O   UNL     1       4.079   0.658  18.233  0.00  0.00    +0.000 OA
ATOM     23  H   UNL     1       3.555   0.369  17.465  0.00  0.00    +0.000 HD
ENDBRANCH  21  22
ENDBRANCH  18  21
ENDBRANCH   9  18
ENDBRANCH   4   7
BRANCH   1  24
ATOM     24  O   UNL     1       0.448  11.112  19.749  0.00  0.00    +0.000 OA
BRANCH  24  27
ATOM     25  C   UNL     1      -2.473  10.872  17.564  0.00  0.00    +0.000 A 
ATOM     26  C   UNL     1      -1.175  10.732  18.087  0.00  0.00    +0.000 A 
ATOM     27  C   UNL     1      -0.846  11.297  19.316  0.00  0.00    +0.000 A 
ATOM     28  C   UNL     1      -1.801  12.037  20.013  0.00  0.00    +0.000 A 
ATOM     29  C   UNL     1      -3.098  12.150  19.517  0.00  0.00    +0.000 A 
ATOM     30  C   UNL     1      -3.452  11.582  18.280  0.00  0.00    +0.000 A 
BRANCH  30  31
ATOM     31  C   UNL     1      -4.872  11.782  17.799  0.00  0.00    +0.000 C 
ATOM     32  F   UNL     1      -5.623  12.635  18.537  0.00  0.00    +0.000 F 
ATOM     33  F   UNL     1      -4.912  12.258  16.524  0.00  0.00    +0.000 F 
ATOM     34  F   UNL     1      -5.564  10.608  17.775  0.00  0.00    +0.000 F 
ENDBRANCH  30  31
BRANCH  25  36
ATOM     35  N   UNL     1      -2.945   9.739  15.284  0.00  0.00    +0.000 NA
ATOM     36  C   UNL     1      -2.737  10.265  16.291  0.00  0.00    +0.000 C 
ENDBRANCH  25  36
ENDBRANCH  24  27
ENDBRANCH   1  24
TORSDOF 10
ENDMDL
MODEL 4
REMARK VINA RESULT:      -8.9      2.002      3.404
REMARK  Name = 
REMARK  10 active torsions:
REMARK  status: ('A' for Active; 'I' for Inactive)
REMARK    1  A    between atoms: C_2  and  C_3
REMARK    2  A    between atoms: C_5  and  O_6
REMARK    3  A    between atoms: O_6  and  C_7
REMARK    4  A    between atoms: C_10  and  C_11
REMARK    5  A    between atoms: C_13  and  C_14
REMARK    6  A    between atoms: C_14  and  O_15
REMARK    7  A    between atoms: C_14  and  C_16
REMARK    8  A    between atoms: C_16  and  O_17
REMARK    9  A    between atoms: C_19  and  C_20
REMARK   10  A    between atoms: C_28  and  C_29
REMARK                            x       y       z     vdW  Elec       q    Type
REMARK                         _______ _______ _______ _____ _____    ______ ____
ROOT
ATOM      1  C   UNL     1       0.987   9.780  19.308  0.00  0.00    +0.000 A 
ATOM      2  C   UNL     1       1.678   9.704  18.097  0.00  0.00    +0.000 A 
ATOM      3  C   UNL     1       2.434   8.575  17.786  0.00  0.00    +0.000 A 
ATOM      4  C   UNL     1       2.588   7.526  18.704  0.00  0.00    +0.000 A 
ATOM      5  C   UNL     1       1.925   7.645  19.943  0.00  0.00    +0.000 A 
ATOM      6  C   UNL     1       1.133   8.759  20.243  0.00  0.00    +0.000 A 
ENDROOT
BRANCH   4   7
ATOM      7  C   UNL     1       3.442   6.370  18.368  0.00  0.00    +0.000 A 
ATOM      8  C   UNL     1       3.302   5.139  19.007  0.00  0.00    +0.000 A 
ATOM      9  C   UNL     1       4.139   4.067  18.674  0.00  0.00    +0.000 A 
ATOM     10  C   UNL     1       5.107   4.281  17.694  0.00  0.00    +0.000 A 
ATOM     11  C   UNL     1       5.197   5.536  17.106  0.00  0.00    +0.000 A 
ATOM     12  N   UNL     1       4.395   6.586  17.425  0.00  0.00    +0.000 NA
BRANCH  11  13
ATOM     13  C   UNL     1       6.233   5.759  16.048  0.00  0.00    +0.000 C 
ATOM     14  N   UNL     1       7.459   6.176  16.484  0.00  0.00    +0.000 N 
ATOM     15  O   UNL     1       6.000   5.581  14.858  0.00  0.00    +0.000 OA
ATOM     16  H   UNL     1       7.619   6.343  17.472  0.00  0.00    +0.000 HD
ATOM     17  H   UNL     1       8.182   6.369  15.806  0.00  0.00    +0.000 HD
ENDBRANCH  11  13
BRANCH   9  18
ATOM     18  C   UNL     1       3.993   2.701  19.312  0.00  0.00    +0.000 C 
BRANCH  18  19
ATOM     19  O   UNL     1       5.265   2.244  19.782  0.00  0.00    +0.000 OA
ATOM     20  H   UNL     1       5.117   1.329  20.096  0.00  0.00    +0.000 HD
ENDBRANCH  18  19
BRANCH  18  21
ATOM     21  C   UNL     1       3.394   1.643  18.368  0.00  0.00    +0.000 C 
BRANCH  21  22
ATOM     22  O   UNL     1       2.000   1.463  18.645  0.00  0.00    +0.000 OA
ATOM     23  H   UNL     1       1.505   1.846  17.898  0.00  0.00    +0.000 HD
ENDBRANCH  21  22
ENDBRANCH  18  21
ENDBRANCH   9  18
ENDBRANCH   4   7
BRANCH   1  24
ATOM     24  O   UNL     1       0.180  10.836  19.661  0.00  0.00    +0.000 OA
BRANCH  24  27
ATOM     25  C   UNL     1      -3.272  11.935  19.174  0.00  0.00    +0.000 A 
ATOM     26  C   UNL     1      -1.987  11.754  19.715  0.00  0.00    +0.000 A 
ATOM     27  C   UNL     1      -1.052  10.959  19.058  0.00  0.00    +0.000 A 
ATOM     28  C   UNL     1      -1.406  10.311  17.875  0.00  0.00    +0.000 A 
ATOM     29  C   UNL     1      -2.667  10.515  17.315  0.00  0.00    +0.000 A 
ATOM     30  C   UNL     1      -3.624  11.318  17.961  0.00  0.00    +0.000 A 
BRANCH  30  31
ATOM     31  C   UNL     1      -4.978  11.458  17.304  0.00  0.00    +0.000 C 
ATOM     32  F   UNL     1      -6.007  10.858  17.952  0.00  0.00    +0.000 F 
ATOM     33  F   UNL     1      -5.339  12.764  17.162  0.00  0.00    +0.000 F 
ATOM     34  F   UNL     1      -4.982  10.937  16.044  0.00  0.00    +0.000 F 
ENDBRANCH  30  31
BRANCH  25  36
ATOM     35  N   UNL     1      -4.923  13.402  20.527  0.00  0.00    +0.000 NA
ATOM     36  C   UNL     1      -4.183  12.766  19.909  0.00  0.00    +0.000 C 
ENDBRANCH  25  36
ENDBRANCH  24  27
ENDBRANCH   1  24
TORSDOF 10
ENDMDL
MODEL 5
REMARK VINA RESULT:      -8.9      1.432      2.932
REMARK  Name = 
REMARK  10 active torsions:
REMARK  status: ('A' for Active; 'I' for Inactive)
REMARK    1  A    between atoms: C_2  and  C_3
REMARK    2  A    between atoms: C_5  and  O_6
REMARK    3  A    between atoms: O_6  and  C_7
REMARK    4  A    between atoms: C_10  and  C_11
REMARK    5  A    between atoms: C_13  and  C_14
REMARK    6  A    between atoms: C_14  and  O_15
REMARK    7  A    between atoms: C_14  and  C_16
REMARK    8  A    between atoms: C_16  and  O_17
REMARK    9  A    between atoms: C_19  and  C_20
REMARK   10  A    between atoms: C_28  and  C_29
REMARK                            x       y       z     vdW  Elec       q    Type
REMARK                         _______ _______ _______ _____ _____    ______ ____
ROOT
ATOM      1  C   UNL     1       1.271   9.928  19.110  0.00  0.00    +0.000 A 
ATOM      2  C   UNL     1       1.927   9.597  17.923  0.00  0.00    +0.000 A 
ATOM      3  C   UNL     1       2.440   8.315  17.736  0.00  0.00    +0.000 A 
ATOM      4  C   UNL     1       2.385   7.352  18.755  0.00  0.00    +0.000 A 
ATOM      5  C   UNL     1       1.765   7.723  19.966  0.00  0.00    +0.000 A 
ATOM      6  C   UNL     1       1.214   8.997  20.143  0.00  0.00    +0.000 A 
ENDROOT
BRANCH   4   7
ATOM      7  C   UNL     1       2.989   6.021  18.546  0.00  0.00    +0.000 A 
ATOM      8  C   UNL     1       2.534   4.890  19.224  0.00  0.00    +0.000 A 
ATOM      9  C   UNL     1       3.139   3.645  19.014  0.00  0.00    +0.000 A 
ATOM     10  C   UNL     1       4.202   3.586  18.114  0.00  0.00    +0.000 A 
ATOM     11  C   UNL     1       4.609   4.752  17.481  0.00  0.00    +0.000 A 
ATOM     12  N   UNL     1       4.035   5.968  17.681  0.00  0.00    +0.000 NA
BRANCH  11  13
ATOM     13  C   UNL     1       5.745   4.682  16.510  0.00  0.00    +0.000 C 
ATOM     14  N   UNL     1       6.940   4.246  17.010  0.00  0.00    +0.000 N 
ATOM     15  O   UNL     1       5.619   4.996  15.332  0.00  0.00    +0.000 OA
ATOM     16  H   UNL     1       7.027   4.018  17.995  0.00  0.00    +0.000 HD
ATOM     17  H   UNL     1       7.744   4.210  16.401  0.00  0.00    +0.000 HD
ENDBRANCH  11  13
BRANCH   9  18
ATOM     18  C   UNL     1       2.650   2.386  19.696  0.00  0.00    +0.000 C 
BRANCH  18  19
ATOM     19  O   UNL     1       2.152   1.464  18.722  0.00  0.00    +0.000 OA
ATOM     20  H   UNL     1       2.532   0.595  18.962  0.00  0.00    +0.000 HD
ENDBRANCH  18  19
BRANCH  18  21
ATOM     21  C   UNL     1       1.559   2.642  20.751  0.00  0.00    +0.000 C 
BRANCH  21  22
ATOM     22  O   UNL     1       2.135   2.684  22.062  0.00  0.00    +0.000 OA
ATOM     23  H   UNL     1       1.936   1.833  22.493  0.00  0.00    +0.000 HD
ENDBRANCH  21  22
ENDBRANCH  18  21
ENDBRANCH   9  18
ENDBRANCH   4   7
BRANCH   1  24
ATOM     24  O   UNL     1       0.694  11.154  19.346  0.00  0.00    +0.000 OA
BRANCH  24  27
ATOM     25  C   UNL     1      -2.445  10.856  17.498  0.00  0.00    +0.000 A 
ATOM     26  C   UNL     1      -1.098  10.732  17.879  0.00  0.00    +0.000 A 
ATOM     27  C   UNL     1      -0.641  11.326  19.053  0.00  0.00    +0.000 A 
ATOM     28  C   UNL     1      -1.518  12.077  19.834  0.00  0.00    +0.000 A 
ATOM     29  C   UNL     1      -2.863  12.174  19.480  0.00  0.00    +0.000 A 
ATOM     30  C   UNL     1      -3.345  11.578  18.300  0.00  0.00    +0.000 A 
BRANCH  30  31
ATOM     31  C   UNL     1      -4.810  11.761  17.973  0.00  0.00    +0.000 C 
ATOM     32  F   UNL     1      -5.073  12.302  16.758  0.00  0.00    +0.000 F 
ATOM     33  F   UNL     1      -5.488  10.581  18.010  0.00  0.00    +0.000 F 
ATOM     34  F   UNL     1      -5.430  12.570  18.878  0.00  0.00    +0.000 F 
ENDBRANCH  30  31
BRANCH  25  36
ATOM     35  N   UNL     1      -3.129   9.726  15.270  0.00  0.00    +0.000 NA
ATOM     36  C   UNL     1      -2.843  10.221  16.274  0.00  0.00    +0.000 C 
ENDBRANCH  25  36
ENDBRANCH  24  27
ENDBRANCH   1  24
TORSDOF 10
ENDMDL
MODEL 6
REMARK VINA RESULT:      -8.9      1.466      3.243
REMARK  Name = 
REMARK  10 active torsions:
REMARK  status: ('A' for Active; 'I' for Inactive)
REMARK    1  A    between atoms: C_2  and  C_3
REMARK    2  A    between atoms: C_5  and  O_6
REMARK    3  A    between atoms: O_6  and  C_7
REMARK    4  A    between atoms: C_10  and  C_11
REMARK    5  A    between atoms: C_13  and  C_14
REMARK    6  A    between atoms: C_14  and  O_15
REMARK    7  A    between atoms: C_14  and  C_16
REMARK    8  A    between atoms: C_16  and  O_17
REMARK    9  A    between atoms: C_19  and  C_20
REMARK   10  A    between atoms: C_28  and  C_29
REMARK                            x       y       z     vdW  Elec       q    Type
REMARK                         _______ _______ _______ _____ _____    ______ ____
ROOT
ATOM      1  C   UNL     1       1.251   9.928  19.029  0.00  0.00    +0.000 A 
ATOM      2  C   UNL     1       1.120   9.032  20.092  0.00  0.00    +0.000 A 
ATOM      3  C   UNL     1       1.745   7.788  20.047  0.00  0.00    +0.000 A 
ATOM      4  C   UNL     1       2.452   7.369  18.910  0.00  0.00    +0.000 A 
ATOM      5  C   UNL     1       2.529   8.267  17.826  0.00  0.00    +0.000 A 
ATOM      6  C   UNL     1       1.935   9.533  17.883  0.00  0.00    +0.000 A 
ENDROOT
BRANCH   4   7
ATOM      7  C   UNL     1       3.055   6.021  18.870  0.00  0.00    +0.000 A 
ATOM      8  C   UNL     1       2.394   4.902  19.375  0.00  0.00    +0.000 A 
ATOM      9  C   UNL     1       3.002   3.641  19.335  0.00  0.00    +0.000 A 
ATOM     10  C   UNL     1       4.278   3.555  18.780  0.00  0.00    +0.000 A 
ATOM     11  C   UNL     1       4.881   4.711  18.305  0.00  0.00    +0.000 A 
ATOM     12  N   UNL     1       4.305   5.942  18.344  0.00  0.00    +0.000 NA
BRANCH  11  13
ATOM     13  C   UNL     1       6.247   4.612  17.702  0.00  0.00    +0.000 C 
ATOM     14  N   UNL     1       6.315   4.722  16.342  0.00  0.00    +0.000 N 
ATOM     15  O   UNL     1       7.251   4.442  18.384  0.00  0.00    +0.000 OA
ATOM     16  H   UNL     1       5.467   4.835  15.797  0.00  0.00    +0.000 HD
ATOM     17  H   UNL     1       7.211   4.632  15.886  0.00  0.00    +0.000 HD
ENDBRANCH  11  13
BRANCH   9  18
ATOM     18  C   UNL     1       2.304   2.394  19.833  0.00  0.00    +0.000 C 
BRANCH  18  19
ATOM     19  O   UNL     1       1.423   1.890  18.823  0.00  0.00    +0.000 OA
ATOM     20  H   UNL     1       1.273   0.951  19.048  0.00  0.00    +0.000 HD
ENDBRANCH  18  19
BRANCH  18  21
ATOM     21  C   UNL     1       1.509   2.611  21.132  0.00  0.00    +0.000 C 
BRANCH  21  22
ATOM     22  O   UNL     1       2.402   2.842  22.228  0.00  0.00    +0.000 OA
ATOM     23  H   UNL     1       2.946   2.041  22.332  0.00  0.00    +0.000 HD
ENDBRANCH  21  22
ENDBRANCH  18  21
ENDBRANCH   9  18
ENDBRANCH   4   7
BRANCH   1  24
ATOM     24  O   UNL     1       0.708  11.191  19.024  0.00  0.00    +0.000 OA
BRANCH  24  27
ATOM     25  C   UNL     1      -2.524  10.870  17.348  0.00  0.00    +0.000 A 
ATOM     26  C   UNL     1      -1.153  10.775  17.644  0.00  0.00    +0.000 A 
ATOM     27  C   UNL     1      -0.647  11.330  18.816  0.00  0.00    +0.000 A 
ATOM     28  C   UNL     1      -1.499  12.015  19.681  0.00  0.00    +0.000 A 
ATOM     29  C   UNL     1      -2.865  12.082  19.410  0.00  0.00    +0.000 A 
ATOM     30  C   UNL     1      -3.397  11.524  18.234  0.00  0.00    +0.000 A 
BRANCH  30  31
ATOM     31  C   UNL     1      -4.884  11.672  18.000  0.00  0.00    +0.000 C 
ATOM     32  F   UNL     1      -5.587  10.513  17.963  0.00  0.00    +0.000 F 
ATOM     33  F   UNL     1      -5.473  12.435  18.962  0.00  0.00    +0.000 F 
ATOM     34  F   UNL     1      -5.147  12.300  16.820  0.00  0.00    +0.000 F 
ENDBRANCH  30  31
BRANCH  25  36
ATOM     35  N   UNL     1      -3.299   9.814  15.113  0.00  0.00    +0.000 NA
ATOM     36  C   UNL     1      -2.973  10.277  16.120  0.00  0.00    +0.000 C 
ENDBRANCH  25  36
ENDBRANCH  24  27
ENDBRANCH   1  24
TORSDOF 10
ENDMDL
MODEL 7
REMARK VINA RESULT:      -8.8      1.455      1.966
REMARK  Name = 
REMARK  10 active torsions:
REMARK  status: ('A' for Active; 'I' for Inactive)
REMARK    1  A    between atoms: C_2  and  C_3
REMARK    2  A    between atoms: C_5  and  O_6
REMARK    3  A    between atoms: O_6  and  C_7
REMARK    4  A    between atoms: C_10  and  C_11
REMARK    5  A    between atoms: C_13  and  C_14
REMARK    6  A    between atoms: C_14  and  O_15
REMARK    7  A    between atoms: C_14  and  C_16
REMARK    8  A    between atoms: C_16  and  O_17
REMARK    9  A    between atoms: C_19  and  C_20
REMARK   10  A    between atoms: C_28  and  C_29
REMARK                            x       y       z     vdW  Elec       q    Type
REMARK                         _______ _______ _______ _____ _____    ______ ____
ROOT
ATOM      1  C   UNL     1       1.049  10.133  19.047  0.00  0.00    +0.000 A 
ATOM      2  C   UNL     1       0.905   9.368  20.206  0.00  0.00    +0.000 A 
ATOM      3  C   UNL     1       1.529   8.126  20.312  0.00  0.00    +0.000 A 
ATOM      4  C   UNL     1       2.246   7.576  19.239  0.00  0.00    +0.000 A 
ATOM      5  C   UNL     1       2.336   8.342  18.058  0.00  0.00    +0.000 A 
ATOM      6  C   UNL     1       1.744   9.606  17.961  0.00  0.00    +0.000 A 
ENDROOT
BRANCH   4   7
ATOM      7  C   UNL     1       2.846   6.233  19.363  0.00  0.00    +0.000 A 
ATOM      8  C   UNL     1       3.999   5.873  18.665  0.00  0.00    +0.000 A 
ATOM      9  C   UNL     1       4.534   4.586  18.793  0.00  0.00    +0.000 A 
ATOM     10  C   UNL     1       3.872   3.691  19.634  0.00  0.00    +0.000 A 
ATOM     11  C   UNL     1       2.725   4.114  20.292  0.00  0.00    +0.000 A 
ATOM     12  N   UNL     1       2.192   5.358  20.170  0.00  0.00    +0.000 NA
BRANCH  11  13
ATOM     13  C   UNL     1       2.024   3.153  21.200  0.00  0.00    +0.000 C 
ATOM     14  N   UNL     1       0.700   2.933  20.938  0.00  0.00    +0.000 N 
ATOM     15  O   UNL     1       2.597   2.592  22.126  0.00  0.00    +0.000 OA
ATOM     16  H   UNL     1       0.241   3.430  20.183  0.00  0.00    +0.000 HD
ATOM     17  H   UNL     1       0.176   2.316  21.541  0.00  0.00    +0.000 HD
ENDBRANCH  11  13
BRANCH   9  18
ATOM     18  C   UNL     1       5.805   4.167  18.088  0.00  0.00    +0.000 C 
BRANCH  18  19
ATOM     19  O   UNL     1       6.941   4.730  18.752  0.00  0.00    +0.000 OA
ATOM     20  H   UNL     1       7.609   4.878  18.053  0.00  0.00    +0.000 HD
ENDBRANCH  18  19
BRANCH  18  21
ATOM     21  C   UNL     1       5.843   4.563  16.601  0.00  0.00    +0.000 C 
BRANCH  21  22
ATOM     22  O   UNL     1       6.144   3.422  15.790  0.00  0.00    +0.000 OA
ATOM     23  H   UNL     1       6.440   3.753  14.922  0.00  0.00    +0.000 HD
ENDBRANCH  21  22
ENDBRANCH  18  21
ENDBRANCH   9  18
ENDBRANCH   4   7
BRANCH   1  24
ATOM     24  O   UNL     1       0.509  11.388  18.889  0.00  0.00    +0.000 OA
BRANCH  24  27
ATOM     25  C   UNL     1      -2.746  11.176  17.238  0.00  0.00    +0.000 A 
ATOM     26  C   UNL     1      -1.367  11.089  17.498  0.00  0.00    +0.000 A 
ATOM     27  C   UNL     1      -0.854  11.507  18.723  0.00  0.00    +0.000 A 
ATOM     28  C   UNL     1      -1.709  12.047  19.682  0.00  0.00    +0.000 A 
ATOM     29  C   UNL     1      -3.081  12.103  19.445  0.00  0.00    +0.000 A 
ATOM     30  C   UNL     1      -3.620  11.682  18.215  0.00  0.00    +0.000 A 
BRANCH  30  31
ATOM     31  C   UNL     1      -5.115  11.809  18.027  0.00  0.00    +0.000 C 
ATOM     32  F   UNL     1      -5.780  12.427  19.035  0.00  0.00    +0.000 F 
ATOM     33  F   UNL     1      -5.425  12.503  16.897  0.00  0.00    +0.000 F 
ATOM     34  F   UNL     1      -5.710  10.592  17.885  0.00  0.00    +0.000 F 
ENDBRANCH  30  31
BRANCH  25  36
ATOM     35  N   UNL     1      -3.528  10.365  14.906  0.00  0.00    +0.000 NA
ATOM     36  C   UNL     1      -3.201  10.730  15.953  0.00  0.00    +0.000 C 
ENDBRANCH  25  36
ENDBRANCH  24  27
ENDBRANCH   1  24
TORSDOF 10
ENDMDL
MODEL 8
REMARK VINA RESULT:      -8.8      1.090      1.102
REMARK  Name = 
REMARK  10 active torsions:
REMARK  status: ('A' for Active; 'I' for Inactive)
REMARK    1  A    between atoms: C_2  and  C_3
REMARK    2  A    between atoms: C_5  and  O_6
REMARK    3  A    between atoms: O_6  and  C_7
REMARK    4  A    between atoms: C_10  and  C_11
REMARK    5  A    between atoms: C_13  and  C_14
REMARK    6  A    between atoms: C_14  and  O_15
REMARK    7  A    between atoms: C_14  and  C_16
REMARK    8  A    between atoms: C_16  and  O_17
REMARK    9  A    between atoms: C_19  and  C_20
REMARK   10  A    between atoms: C_28  and  C_29
REMARK                            x       y       z     vdW  Elec       q    Type
REMARK                         _______ _______ _______ _____ _____    ______ ____
ROOT
ATOM      1  C   UNL     1       1.304   9.771  19.347  0.00  0.00    +0.000 A 
ATOM      2  C   UNL     1       1.962   9.589  18.130  0.00  0.00    +0.000 A 
ATOM      3  C   UNL     1       2.567   8.370  17.830  0.00  0.00    +0.000 A 
ATOM      4  C   UNL     1       2.603   7.325  18.766  0.00  0.00    +0.000 A 
ATOM      5  C   UNL     1       1.977   7.547  20.010  0.00  0.00    +0.000 A 
ATOM      6  C   UNL     1       1.335   8.756  20.300  0.00  0.00    +0.000 A 
ENDROOT
BRANCH   4   7
ATOM      7  C   UNL     1       3.301   6.065  18.441  0.00  0.00    +0.000 A 
ATOM      8  C   UNL     1       4.035   5.911  17.265  0.00  0.00    +0.000 A 
ATOM      9  C   UNL     1       4.673   4.698  16.981  0.00  0.00    +0.000 A 
ATOM     10  C   UNL     1       4.541   3.664  17.908  0.00  0.00    +0.000 A 
ATOM     11  C   UNL     1       3.788   3.884  19.053  0.00  0.00    +0.000 A 
ATOM     12  N   UNL     1       3.158   5.055  19.337  0.00  0.00    +0.000 NA
BRANCH  11  13
ATOM     13  C   UNL     1       3.656   2.775  20.049  0.00  0.00    +0.000 C 
ATOM     14  N   UNL     1       4.708   1.906  20.124  0.00  0.00    +0.000 N 
ATOM     15  O   UNL     1       2.666   2.647  20.758  0.00  0.00    +0.000 OA
ATOM     16  H   UNL     1       5.506   2.016  19.507  0.00  0.00    +0.000 HD
ATOM     17  H   UNL     1       4.654   1.123  20.760  0.00  0.00    +0.000 HD
ENDBRANCH  11  13
BRANCH   9  18
ATOM     18  C   UNL     1       5.515   4.501  15.738  0.00  0.00    +0.000 C 
BRANCH  18  19
ATOM     19  O   UNL     1       5.801   3.110  15.557  0.00  0.00    +0.000 OA
ATOM     20  H   UNL     1       5.449   2.881  14.674  0.00  0.00    +0.000 HD
ENDBRANCH  18  19
BRANCH  18  21
ATOM     21  C   UNL     1       6.837   5.289  15.760  0.00  0.00    +0.000 C 
BRANCH  21  22
ATOM     22  O   UNL     1       7.831   4.571  16.501  0.00  0.00    +0.000 OA
ATOM     23  H   UNL     1       7.384   4.164  17.265  0.00  0.00    +0.000 HD
ENDBRANCH  21  22
ENDBRANCH  18  21
ENDBRANCH   9  18
ENDBRANCH   4   7
BRANCH   1  24
ATOM     24  O   UNL     1       0.640  10.925  19.691  0.00  0.00    +0.000 OA
BRANCH  24  27
ATOM     25  C   UNL     1      -2.270  10.663  17.495  0.00  0.00    +0.000 A 
ATOM     26  C   UNL     1      -0.974  10.533  18.022  0.00  0.00    +0.000 A 
ATOM     27  C   UNL     1      -0.654  11.101  19.253  0.00  0.00    +0.000 A 
ATOM     28  C   UNL     1      -1.617  11.832  19.947  0.00  0.00    +0.000 A 
ATOM     29  C   UNL     1      -2.914  11.935  19.447  0.00  0.00    +0.000 A 
ATOM     30  C   UNL     1      -3.258  11.365  18.207  0.00  0.00    +0.000 A 
BRANCH  30  31
ATOM     31  C   UNL     1      -4.677  11.553  17.721  0.00  0.00    +0.000 C 
ATOM     32  F   UNL     1      -4.805  11.946  16.430  0.00  0.00    +0.000 F 
ATOM     33  F   UNL     1      -5.407  10.409  17.836  0.00  0.00    +0.000 F 
ATOM     34  F   UNL     1      -5.342  12.488  18.458  0.00  0.00    +0.000 F 
ENDBRANCH  30  31
BRANCH  25  36
ATOM     35  N   UNL     1      -2.772   9.564  15.204  0.00  0.00    +0.000 NA
ATOM     36  C   UNL     1      -2.525  10.055  16.221  0.00  0.00    +0.000 C 
ENDBRANCH  25  36
ENDBRANCH  24  27
ENDBRANCH   1  24
TORSDOF 10
ENDMDL
MODEL 9
REMARK VINA RESULT:      -8.8      1.725      2.767
REMARK  Name = 
REMARK  10 active torsions:
REMARK  status: ('A' for Active; 'I' for Inactive)
REMARK    1  A    between atoms: C_2  and  C_3
REMARK    2  A    between atoms: C_5  and  O_6
REMARK    3  A    between atoms: O_6  and  C_7
REMARK    4  A    between atoms: C_10  and  C_11
REMARK    5  A    between atoms: C_13  and  C_14
REMARK    6  A    between atoms: C_14  and  O_15
REMARK    7  A    between atoms: C_14  and  C_16
REMARK    8  A    between atoms: C_16  and  O_17
REMARK    9  A    between atoms: C_19  and  C_20
REMARK   10  A    between atoms: C_28  and  C_29
REMARK                            x       y       z     vdW  Elec       q    Type
REMARK                         _______ _______ _______ _____ _____    ______ ____
ROOT
ATOM      1  C   UNL     1       1.090   9.948  19.390  0.00  0.00    +0.000 A 
ATOM      2  C   UNL     1       1.764   9.857  18.171  0.00  0.00    +0.000 A 
ATOM      3  C   UNL     1       2.419   8.679  17.815  0.00  0.00    +0.000 A 
ATOM      4  C   UNL     1       2.488   7.589  18.695  0.00  0.00    +0.000 A 
ATOM      5  C   UNL     1       1.845   7.720  19.943  0.00  0.00    +0.000 A 
ATOM      6  C   UNL     1       1.154   8.887  20.289  0.00  0.00    +0.000 A 
ENDROOT
BRANCH   4   7
ATOM      7  C   UNL     1       3.238   6.376  18.311  0.00  0.00    +0.000 A 
ATOM      8  C   UNL     1       3.124   5.183  19.022  0.00  0.00    +0.000 A 
ATOM      9  C   UNL     1       3.861   4.055  18.640  0.00  0.00    +0.000 A 
ATOM     10  C   UNL     1       4.705   4.177  17.536  0.00  0.00    +0.000 A 
ATOM     11  C   UNL     1       4.777   5.398  16.880  0.00  0.00    +0.000 A 
ATOM     12  N   UNL     1       4.071   6.502  17.245  0.00  0.00    +0.000 NA
BRANCH  11  13
ATOM     13  C   UNL     1       5.677   5.522  15.691  0.00  0.00    +0.000 C 
ATOM     14  N   UNL     1       6.856   6.183  15.894  0.00  0.00    +0.000 N 
ATOM     15  O   UNL     1       5.380   5.060  14.596  0.00  0.00    +0.000 OA
ATOM     16  H   UNL     1       7.067   6.580  16.803  0.00  0.00    +0.000 HD
ATOM     17  H   UNL     1       7.483   6.318  15.115  0.00  0.00    +0.000 HD
ENDBRANCH  11  13
BRANCH   9  18
ATOM     18  C   UNL     1       3.736   2.728  19.357  0.00  0.00    +0.000 C 
BRANCH  18  19
ATOM     19  O   UNL     1       4.974   2.398  19.995  0.00  0.00    +0.000 OA
ATOM     20  H   UNL     1       5.301   1.597  19.539  0.00  0.00    +0.000 HD
ENDBRANCH  18  19
BRANCH  18  21
ATOM     21  C   UNL     1       3.318   1.569  18.435  0.00  0.00    +0.000 C 
BRANCH  21  22
ATOM     22  O   UNL     1       4.309   0.534  18.459  0.00  0.00    +0.000 OA
ATOM     23  H   UNL     1       4.144  -0.007  19.253  0.00  0.00    +0.000 HD
ENDBRANCH  21  22
ENDBRANCH  18  21
ENDBRANCH   9  18
ENDBRANCH   4   7
BRANCH   1  24
ATOM     24  O   UNL     1       0.379  11.056  19.787  0.00  0.00    +0.000 OA
BRANCH  24  27
ATOM     25  C   UNL     1      -2.462  10.778  17.504  0.00  0.00    +0.000 A 
ATOM     26  C   UNL     1      -1.182  10.651  18.073  0.00  0.00    +0.000 A 
ATOM     27  C   UNL     1      -0.901  11.229  19.308  0.00  0.00    +0.000 A 
ATOM     28  C   UNL     1      -1.884  11.967  19.965  0.00  0.00    +0.000 A 
ATOM     29  C   UNL     1      -3.165  12.066  19.423  0.00  0.00    +0.000 A 
ATOM     30  C   UNL     1      -3.471  11.487  18.179  0.00  0.00    +0.000 A 
BRANCH  30  31
ATOM     31  C   UNL     1      -4.874  11.672  17.647  0.00  0.00    +0.000 C 
ATOM     32  F   UNL     1      -5.664  12.509  18.363  0.00  0.00    +0.000 F 
ATOM     33  F   UNL     1      -4.873  12.158  16.375  0.00  0.00    +0.000 F 
ATOM     34  F   UNL     1      -5.550  10.490  17.588  0.00  0.00    +0.000 F 
ENDBRANCH  30  31
BRANCH  25  36
ATOM     35  N   UNL     1      -2.892   9.672  15.202  0.00  0.00    +0.000 NA
ATOM     36  C   UNL     1      -2.677  10.159  16.227  0.00  0.00    +0.000 C 
ENDBRANCH  25  36
ENDBRANCH  24  27
ENDBRANCH   1  24
TORSDOF 10
ENDMDL
