MODEL 1
REMARK VINA RESULT:      -7.9      0.000      0.000
REMARK  Name = 
REMARK  6 active torsions:
REMARK  status: ('A' for Active; 'I' for Inactive)
REMARK    1  A    between atoms: C_1  and  C_2
REMARK    2  A    between atoms: C_2  and  C_3
REMARK    3  A    between atoms: C_5  and  C_6
REMARK    4  A    between atoms: N_8  and  C_9
REMARK    5  A    between atoms: C_9  and  C_10
REMARK    6  A    between atoms: C_19  and  C_20
REMARK                            x       y       z     vdW  Elec       q    Type
REMARK                         _______ _______ _______ _____ _____    ______ ____
ROOT
ATOM      1  C   UNL     1       3.103   4.561  18.632  0.00  0.00    +0.000 A 
ATOM      2  C   UNL     1       2.427   5.430  19.410  0.00  0.00    +0.000 A 
ATOM      3  C   UNL     1       2.560   6.882  19.070  0.00  0.00    +0.000 A 
ATOM      4  N   UNL     1       3.256   7.365  18.076  0.00  0.00    +0.000 NA
ATOM      5  C   UNL     1       3.916   6.442  17.308  0.00  0.00    +0.000 A 
ATOM      6  C   UNL     1       4.700   6.582  16.187  0.00  0.00    +0.000 A 
ATOM      7  C   UNL     1       5.104   5.275  15.821  0.00  0.00    +0.000 A 
ATOM      8  N   UNL     1       4.629   4.369  16.691  0.00  0.00    +0.000 NA
ATOM      9  N   UNL     1       3.870   5.067  17.570  0.00  0.00    +0.000 N 
ENDROOT
BRANCH   7  10
ATOM     10  C   UNL     1       5.923   4.890  14.663  0.00  0.00    +0.000 A 
ATOM     11  C   UNL     1       5.459   3.966  13.729  0.00  0.00    +0.000 A 
ATOM     12  C   UNL     1       6.263   3.645  12.637  0.00  0.00    +0.000 A 
ATOM     13  C   UNL     1       7.502   4.257  12.508  0.00  0.00    +0.000 A 
ATOM     14  C   UNL     1       7.890   5.165  13.479  0.00  0.00    +0.000 A 
ATOM     15  N   UNL     1       7.134   5.496  14.550  0.00  0.00    +0.000 NA
ENDBRANCH   7  10
BRANCH   3  16
ATOM     16  C   UNL     1       1.816   7.866  19.985  0.00  0.00    +0.000 C 
ATOM     17  O   UNL     1       1.582   7.570  21.149  0.00  0.00    +0.000 OA
ATOM     18  N   UNL     1       1.463   9.052  19.383  0.00  0.00    +0.000 N 
ATOM     19  H   UNL     1       1.615   9.116  18.378  0.00  0.00    +0.000 HD
BRANCH  18  20
ATOM     20  C   UNL     1       0.670  10.046  20.066  0.00  0.00    +0.000 C 
BRANCH  20  21
ATOM     21  C   UNL     1      -0.525  10.476  19.266  0.00  0.00    +0.000 A 
ATOM     22  C   UNL     1      -0.802   9.921  18.012  0.00  0.00    +0.000 A 
ATOM     23  C   UNL     1      -1.891  10.378  17.276  0.00  0.00    +0.000 A 
ATOM     24  C   UNL     1      -2.673  11.384  17.818  0.00  0.00    +0.000 A 
ATOM     25  N   UNL     1      -2.437  11.949  19.021  0.00  0.00    +0.000 NA
ATOM     26  C   UNL     1      -1.370  11.486  19.713  0.00  0.00    +0.000 A 
ENDBRANCH  20  21
ENDBRANCH  18  20
ENDBRANCH   3  16
BRANCH   1  28
ATOM     27  C   UNL     1       1.954   2.320  18.193  0.00  0.00    +0.000 C 
ATOM     28  C   UNL     1       3.087   3.072  18.885  0.00  0.00    +0.000 C 
ENDBRANCH   1  28
TORSDOF 5
ENDMDL
MODEL 2
REMARK VINA RESULT:      -7.9      3.496     10.385
REMARK  Name = 
REMARK  6 active torsions:
REMARK  status: ('A' for Active; 'I' for Inactive)
REMARK    1  A    between atoms: C_1  and  C_2
REMARK    2  A    between atoms: C_2  and  C_3
REMARK    3  A    between atoms: C_5  and  C_6
REMARK    4  A    between atoms: N_8  and  C_9
REMARK    5  A    between atoms: C_9  and  C_10
REMARK    6  A    between atoms: C_19  and  C_20
REMARK                            x       y       z     vdW  Elec       q    Type
REMARK                         _______ _______ _______ _____ _____    ______ ____
ROOT
ATOM      1  C   UNL     1      -1.128  10.983  18.680  0.00  0.00    +0.000 A 
ATOM      2  C   UNL     1      -0.251  10.088  18.186  0.00  0.00    +0.000 A 
ATOM      3  C   UNL     1       0.798   9.582  19.129  0.00  0.00    +0.000 A 
ATOM      4  N   UNL     1       0.912   9.922  20.384  0.00  0.00    +0.000 NA
ATOM      5  C   UNL     1      -0.009  10.826  20.842  0.00  0.00    +0.000 A 
ATOM      6  C   UNL     1      -0.208  11.374  22.087  0.00  0.00    +0.000 A 
ATOM      7  C   UNL     1      -1.320  12.242  21.966  0.00  0.00    +0.000 A 
ATOM      8  N   UNL     1      -1.770  12.263  20.700  0.00  0.00    +0.000 NA
ATOM      9  N   UNL     1      -1.006  11.372  20.024  0.00  0.00    +0.000 N 
ENDROOT
BRANCH   7  10
ATOM     10  C   UNL     1      -1.951  13.033  23.031  0.00  0.00    +0.000 A 
ATOM     11  C   UNL     1      -1.297  14.126  23.599  0.00  0.00    +0.000 A 
ATOM     12  C   UNL     1      -1.942  14.858  24.593  0.00  0.00    +0.000 A 
ATOM     13  C   UNL     1      -3.218  14.483  24.989  0.00  0.00    +0.000 A 
ATOM     14  C   UNL     1      -3.799  13.386  24.374  0.00  0.00    +0.000 A 
ATOM     15  N   UNL     1      -3.200  12.654  23.409  0.00  0.00    +0.000 NA
ENDBRANCH   7  10
BRANCH   3  16
ATOM     16  C   UNL     1       1.815   8.590  18.546  0.00  0.00    +0.000 C 
ATOM     17  O   UNL     1       2.296   8.779  17.437  0.00  0.00    +0.000 OA
ATOM     18  N   UNL     1       2.110   7.524  19.365  0.00  0.00    +0.000 N 
ATOM     19  H   UNL     1       1.548   7.430  20.209  0.00  0.00    +0.000 HD
BRANCH  18  20
ATOM     20  C   UNL     1       2.967   6.446  18.934  0.00  0.00    +0.000 C 
BRANCH  20  21
ATOM     21  C   UNL     1       2.257   5.124  18.910  0.00  0.00    +0.000 A 
ATOM     22  C   UNL     1       1.616   4.619  20.046  0.00  0.00    +0.000 A 
ATOM     23  C   UNL     1       1.009   3.367  20.002  0.00  0.00    +0.000 A 
ATOM     24  C   UNL     1       1.066   2.652  18.817  0.00  0.00    +0.000 A 
ATOM     25  N   UNL     1       1.679   3.101  17.702  0.00  0.00    +0.000 NA
ATOM     26  C   UNL     1       2.261   4.320  17.775  0.00  0.00    +0.000 A 
ENDBRANCH  20  21
ENDBRANCH  18  20
ENDBRANCH   3  16
BRANCH   1  28
ATOM     27  C   UNL     1      -2.522  10.845  16.542  0.00  0.00    +0.000 C 
ATOM     28  C   UNL     1      -2.212  11.602  17.830  0.00  0.00    +0.000 C 
ENDBRANCH   1  28
TORSDOF 5
ENDMDL
MODEL 3
REMARK VINA RESULT:      -7.6      1.021      1.181
REMARK  Name = 
REMARK  6 active torsions:
REMARK  status: ('A' for Active; 'I' for Inactive)
REMARK    1  A    between atoms: C_1  and  C_2
REMARK    2  A    between atoms: C_2  and  C_3
REMARK    3  A    between atoms: C_5  and  C_6
REMARK    4  A    between atoms: N_8  and  C_9
REMARK    5  A    between atoms: C_9  and  C_10
REMARK    6  A    between atoms: C_19  and  C_20
REMARK                            x       y       z     vdW  Elec       q    Type
REMARK                         _______ _______ _______ _____ _____    ______ ____
ROOT
ATOM      1  C   UNL     1       3.548   3.969  18.572  0.00  0.00    +0.000 A 
ATOM      2  C   UNL     1       2.835   4.727  19.428  0.00  0.00    +0.000 A 
ATOM      3  C   UNL     1       2.807   6.201  19.159  0.00  0.00    +0.000 A 
ATOM      4  N   UNL     1       3.396   6.797  18.159  0.00  0.00    +0.000 NA
ATOM      5  C   UNL     1       4.099   5.983  17.310  0.00  0.00    +0.000 A 
ATOM      6  C   UNL     1       4.802   6.254  16.160  0.00  0.00    +0.000 A 
ATOM      7  C   UNL     1       5.311   5.013  15.706  0.00  0.00    +0.000 A 
ATOM      8  N   UNL     1       4.975   4.024  16.549  0.00  0.00    +0.000 NA
ATOM      9  N   UNL     1       4.202   4.599  17.501  0.00  0.00    +0.000 N 
ENDROOT
BRANCH   7  10
ATOM     10  C   UNL     1       6.098   4.768  14.489  0.00  0.00    +0.000 A 
ATOM     11  C   UNL     1       5.667   3.860  13.523  0.00  0.00    +0.000 A 
ATOM     12  C   UNL     1       6.437   3.674  12.378  0.00  0.00    +0.000 A 
ATOM     13  C   UNL     1       7.611   4.399  12.227  0.00  0.00    +0.000 A 
ATOM     14  C   UNL     1       7.969   5.282  13.232  0.00  0.00    +0.000 A 
ATOM     15  N   UNL     1       7.245   5.484  14.355  0.00  0.00    +0.000 NA
ENDBRANCH   7  10
BRANCH   3  16
ATOM     16  C   UNL     1       2.022   7.060  20.161  0.00  0.00    +0.000 C 
ATOM     17  O   UNL     1       1.620   6.573  21.209  0.00  0.00    +0.000 OA
ATOM     18  N   UNL     1       1.833   8.366  19.771  0.00  0.00    +0.000 N 
ATOM     19  H   UNL     1       2.117   8.603  18.822  0.00  0.00    +0.000 HD
BRANCH  18  20
ATOM     20  C   UNL     1       1.031   9.283  20.544  0.00  0.00    +0.000 C 
BRANCH  20  21
ATOM     21  C   UNL     1       0.324  10.291  19.685  0.00  0.00    +0.000 A 
ATOM     22  C   UNL     1      -0.878   9.983  19.039  0.00  0.00    +0.000 A 
ATOM     23  C   UNL     1      -1.481  10.926  18.210  0.00  0.00    +0.000 A 
ATOM     24  C   UNL     1      -0.860  12.152  18.050  0.00  0.00    +0.000 A 
ATOM     25  N   UNL     1       0.302  12.486  18.652  0.00  0.00    +0.000 NA
ATOM     26  C   UNL     1       0.866  11.550  19.449  0.00  0.00    +0.000 A 
ENDBRANCH  20  21
ENDBRANCH  18  20
ENDBRANCH   3  16
BRANCH   1  28
ATOM     27  C   UNL     1       4.428   2.050  20.014  0.00  0.00    +0.000 C 
ATOM     28  C   UNL     1       3.691   2.476  18.747  0.00  0.00    +0.000 C 
ENDBRANCH   1  28
TORSDOF 5
ENDMDL
MODEL 4
REMARK VINA RESULT:      -7.6      3.045     10.234
REMARK  Name = 
REMARK  6 active torsions:
REMARK  status: ('A' for Active; 'I' for Inactive)
REMARK    1  A    between atoms: C_1  and  C_2
REMARK    2  A    between atoms: C_2  and  C_3
REMARK    3  A    between atoms: C_5  and  C_6
REMARK    4  A    between atoms: N_8  and  C_9
REMARK    5  A    between atoms: C_9  and  C_10
REMARK    6  A    between atoms: C_19  and  C_20
REMARK                            x       y       z     vdW  Elec       q    Type
REMARK                         _______ _______ _______ _____ _____    ______ ____
ROOT
ATOM      1  C   UNL     1       0.965  10.351  19.356  0.00  0.00    +0.000 A 
ATOM      2  C   UNL     1       1.550   9.169  19.077  0.00  0.00    +0.000 A 
ATOM      3  C   UNL     1       1.452   8.106  20.128  0.00  0.00    +0.000 A 
ATOM      4  N   UNL     1       0.833   8.227  21.271  0.00  0.00    +0.000 NA
ATOM      5  C   UNL     1       0.245   9.443  21.503  0.00  0.00    +0.000 A 
ATOM      6  C   UNL     1      -0.501   9.908  22.559  0.00  0.00    +0.000 A 
ATOM      7  C   UNL     1      -0.851  11.242  22.241  0.00  0.00    +0.000 A 
ATOM      8  N   UNL     1      -0.319  11.605  21.062  0.00  0.00    +0.000 NA
ATOM      9  N   UNL     1       0.311  10.502  20.589  0.00  0.00    +0.000 N 
ENDROOT
BRANCH   7  10
ATOM     10  C   UNL     1      -1.681  12.158  23.036  0.00  0.00    +0.000 A 
ATOM     11  C   UNL     1      -1.266  13.463  23.297  0.00  0.00    +0.000 A 
ATOM     12  C   UNL     1      -2.095  14.300  24.040  0.00  0.00    +0.000 A 
ATOM     13  C   UNL     1      -3.312  13.815  24.497  0.00  0.00    +0.000 A 
ATOM     14  C   UNL     1      -3.652  12.507  24.194  0.00  0.00    +0.000 A 
ATOM     15  N   UNL     1      -2.870  11.669  23.477  0.00  0.00    +0.000 NA
ENDBRANCH   7  10
BRANCH   3  16
ATOM     16  C   UNL     1       2.154   6.775  19.816  0.00  0.00    +0.000 C 
ATOM     17  O   UNL     1       2.123   5.857  20.624  0.00  0.00    +0.000 OA
ATOM     18  N   UNL     1       2.784   6.733  18.594  0.00  0.00    +0.000 N 
ATOM     19  H   UNL     1       2.830   7.608  18.075  0.00  0.00    +0.000 HD
BRANCH  18  20
ATOM     20  C   UNL     1       3.576   5.599  18.184  0.00  0.00    +0.000 C 
BRANCH  20  21
ATOM     21  C   UNL     1       5.049   5.851  18.313  0.00  0.00    +0.000 A 
ATOM     22  C   UNL     1       5.725   6.699  17.428  0.00  0.00    +0.000 A 
ATOM     23  C   UNL     1       7.101   6.872  17.547  0.00  0.00    +0.000 A 
ATOM     24  C   UNL     1       7.765   6.186  18.551  0.00  0.00    +0.000 A 
ATOM     25  N   UNL     1       7.151   5.356  19.421  0.00  0.00    +0.000 NA
ATOM     26  C   UNL     1       5.814   5.206  19.279  0.00  0.00    +0.000 A 
ENDBRANCH  20  21
ENDBRANCH  18  20
ENDBRANCH   3  16
BRANCH   1  28
ATOM     27  C   UNL     1       2.348  12.271  18.388  0.00  0.00    +0.000 C 
ATOM     28  C   UNL     1       1.019  11.521  18.402  0.00  0.00    +0.000 C 
ENDBRANCH   1  28
TORSDOF 5
ENDMDL
MODEL 5
REMARK VINA RESULT:      -7.6      1.623      2.117
REMARK  Name = 
REMARK  6 active torsions:
REMARK  status: ('A' for Active; 'I' for Inactive)
REMARK    1  A    between atoms: C_1  and  C_2
REMARK    2  A    between atoms: C_2  and  C_3
REMARK    3  A    between atoms: C_5  and  C_6
REMARK    4  A    between atoms: N_8  and  C_9
REMARK    5  A    between atoms: C_9  and  C_10
REMARK    6  A    between atoms: C_19  and  C_20
REMARK                            x       y       z     vdW  Elec       q    Type
REMARK                         _______ _______ _______ _____ _____    ______ ____
ROOT
ATOM      1  C   UNL     1       2.100   6.001  20.311  0.00  0.00    +0.000 A 
ATOM      2  C   UNL     1       1.333   7.003  20.783  0.00  0.00    +0.000 A 
ATOM      3  C   UNL     1       1.379   8.297  20.029  0.00  0.00    +0.000 A 
ATOM      4  N   UNL     1       2.082   8.519  18.951  0.00  0.00    +0.000 NA
ATOM      5  C   UNL     1       2.836   7.466  18.505  0.00  0.00    +0.000 A 
ATOM      6  C   UNL     1       3.656   7.331  17.409  0.00  0.00    +0.000 A 
ATOM      7  C   UNL     1       4.165   6.011  17.456  0.00  0.00    +0.000 A 
ATOM      8  N   UNL     1       3.717   5.367  18.546  0.00  0.00    +0.000 NA
ATOM      9  N   UNL     1       2.876   6.230  19.163  0.00  0.00    +0.000 N 
ENDROOT
BRANCH   7  10
ATOM     10  C   UNL     1       5.058   5.368  16.482  0.00  0.00    +0.000 A 
ATOM     11  C   UNL     1       4.967   4.003  16.213  0.00  0.00    +0.000 A 
ATOM     12  C   UNL     1       5.822   3.441  15.268  0.00  0.00    +0.000 A 
ATOM     13  C   UNL     1       6.738   4.255  14.617  0.00  0.00    +0.000 A 
ATOM     14  C   UNL     1       6.764   5.602  14.939  0.00  0.00    +0.000 A 
ATOM     15  N   UNL     1       5.950   6.177  15.852  0.00  0.00    +0.000 NA
ENDBRANCH   7  10
BRANCH   3  16
ATOM     16  C   UNL     1       0.530   9.445  20.595  0.00  0.00    +0.000 C 
ATOM     17  O   UNL     1       0.132   9.405  21.752  0.00  0.00    +0.000 OA
ATOM     18  N   UNL     1       0.281  10.465  19.707  0.00  0.00    +0.000 N 
ATOM     19  H   UNL     1       0.573  10.311  18.743  0.00  0.00    +0.000 HD
BRANCH  18  20
ATOM     20  C   UNL     1      -0.584  11.572  20.041  0.00  0.00    +0.000 C 
BRANCH  20  21
ATOM     21  C   UNL     1      -1.916  11.485  19.355  0.00  0.00    +0.000 A 
ATOM     22  C   UNL     1      -2.116  10.648  18.252  0.00  0.00    +0.000 A 
ATOM     23  C   UNL     1      -3.351  10.630  17.609  0.00  0.00    +0.000 A 
ATOM     24  C   UNL     1      -4.352  11.456  18.089  0.00  0.00    +0.000 A 
ATOM     25  N   UNL     1      -4.198  12.282  19.146  0.00  0.00    +0.000 NA
ATOM     26  C   UNL     1      -2.987  12.279  19.749  0.00  0.00    +0.000 A 
ENDBRANCH  20  21
ENDBRANCH  18  20
ENDBRANCH   3  16
BRANCH   1  28
ATOM     27  C   UNL     1       1.094   3.665  20.578  0.00  0.00    +0.000 C 
ATOM     28  C   UNL     1       2.177   4.656  20.995  0.00  0.00    +0.000 C 
ENDBRANCH   1  28
TORSDOF 5
ENDMDL
MODEL 6
REMARK VINA RESULT:      -7.5      3.703     10.369
REMARK  Name = 
REMARK  6 active torsions:
REMARK  status: ('A' for Active; 'I' for Inactive)
REMARK    1  A    between atoms: C_1  and  C_2
REMARK    2  A    between atoms: C_2  and  C_3
REMARK    3  A    between atoms: C_5  and  C_6
REMARK    4  A    between atoms: N_8  and  C_9
REMARK    5  A    between atoms: C_9  and  C_10
REMARK    6  A    between atoms: C_19  and  C_20
REMARK                            x       y       z     vdW  Elec       q    Type
REMARK                         _______ _______ _______ _____ _____    ______ ____
ROOT
ATOM      1  C   UNL     1      -0.435  10.872  18.977  0.00  0.00    +0.000 A 
ATOM      2  C   UNL     1       0.394   9.878  18.603  0.00  0.00    +0.000 A 
ATOM      3  C   UNL     1       1.053   9.103  19.703  0.00  0.00    +0.000 A 
ATOM      4  N   UNL     1       0.872   9.300  20.980  0.00  0.00    +0.000 NA
ATOM      5  C   UNL     1       0.012  10.314  21.309  0.00  0.00    +0.000 A 
ATOM      6  C   UNL     1      -0.431  10.775  22.527  0.00  0.00    +0.000 A 
ATOM      7  C   UNL     1      -1.319  11.842  22.247  0.00  0.00    +0.000 A 
ATOM      8  N   UNL     1      -1.397  12.061  20.925  0.00  0.00    +0.000 NA
ATOM      9  N   UNL     1      -0.626  11.109  20.348  0.00  0.00    +0.000 N 
ENDROOT
BRANCH   7  10
ATOM     10  C   UNL     1      -2.086  12.637  23.217  0.00  0.00    +0.000 A 
ATOM     11  C   UNL     1      -3.339  12.218  23.661  0.00  0.00    +0.000 A 
ATOM     12  C   UNL     1      -4.020  12.995  24.595  0.00  0.00    +0.000 A 
ATOM     13  C   UNL     1      -3.432  14.164  25.060  0.00  0.00    +0.000 A 
ATOM     14  C   UNL     1      -2.184  14.509  24.569  0.00  0.00    +0.000 A 
ATOM     15  N   UNL     1      -1.498  13.778  23.663  0.00  0.00    +0.000 NA
ENDBRANCH   7  10
BRANCH   3  16
ATOM     16  C   UNL     1       2.024   7.995  19.266  0.00  0.00    +0.000 C 
ATOM     17  O   UNL     1       2.521   8.016  18.148  0.00  0.00    +0.000 OA
ATOM     18  N   UNL     1       2.261   7.033  20.220  0.00  0.00    +0.000 N 
ATOM     19  H   UNL     1       1.689   7.075  21.061  0.00  0.00    +0.000 HD
BRANCH  18  20
ATOM     20  C   UNL     1       3.066   5.868  19.942  0.00  0.00    +0.000 C 
BRANCH  20  21
ATOM     21  C   UNL     1       2.239   4.678  19.551  0.00  0.00    +0.000 A 
ATOM     22  C   UNL     1       1.427   4.017  20.479  0.00  0.00    +0.000 A 
ATOM     23  C   UNL     1       0.711   2.887  20.093  0.00  0.00    +0.000 A 
ATOM     24  C   UNL     1       0.832   2.448  18.785  0.00  0.00    +0.000 A 
ATOM     25  N   UNL     1       1.608   3.054  17.862  0.00  0.00    +0.000 NA
ATOM     26  C   UNL     1       2.294   4.149  18.266  0.00  0.00    +0.000 A 
ENDBRANCH  20  21
ENDBRANCH  18  20
ENDBRANCH   3  16
BRANCH   1  28
ATOM     27  C   UNL     1      -0.644  13.201  17.943  0.00  0.00    +0.000 C 
ATOM     28  C   UNL     1      -1.136  11.757  17.973  0.00  0.00    +0.000 C 
ENDBRANCH   1  28
TORSDOF 5
ENDMDL
MODEL 7
REMARK VINA RESULT:      -7.5      3.777     10.489
REMARK  Name = 
REMARK  6 active torsions:
REMARK  status: ('A' for Active; 'I' for Inactive)
REMARK    1  A    between atoms: C_1  and  C_2
REMARK    2  A    between atoms: C_2  and  C_3
REMARK    3  A    between atoms: C_5  and  C_6
REMARK    4  A    between atoms: N_8  and  C_9
REMARK    5  A    between atoms: C_9  and  C_10
REMARK    6  A    between atoms: C_19  and  C_20
REMARK                            x       y       z     vdW  Elec       q    Type
REMARK                         _______ _______ _______ _____ _____    ______ ____
ROOT
ATOM      1  C   UNL     1      -1.605  11.131  18.968  0.00  0.00    +0.000 A 
ATOM      2  C   UNL     1      -0.717  10.289  18.403  0.00  0.00    +0.000 A 
ATOM      3  C   UNL     1       0.550  10.040  19.162  0.00  0.00    +0.000 A 
ATOM      4  N   UNL     1       0.847  10.553  20.325  0.00  0.00    +0.000 NA
ATOM      5  C   UNL     1      -0.092  11.393  20.863  0.00  0.00    +0.000 A 
ATOM      6  C   UNL     1      -0.130  12.072  22.058  0.00  0.00    +0.000 A 
ATOM      7  C   UNL     1      -1.358  12.777  22.073  0.00  0.00    +0.000 A 
ATOM      8  N   UNL     1      -2.035  12.579  20.930  0.00  0.00    +0.000 NA
ATOM      9  N   UNL     1      -1.291  11.705  20.210  0.00  0.00    +0.000 N 
ENDROOT
BRANCH   7  10
ATOM     10  C   UNL     1      -1.885  13.621  23.155  0.00  0.00    +0.000 A 
ATOM     11  C   UNL     1      -3.245  13.633  23.461  0.00  0.00    +0.000 A 
ATOM     12  C   UNL     1      -3.695  14.435  24.507  0.00  0.00    +0.000 A 
ATOM     13  C   UNL     1      -2.779  15.197  25.218  0.00  0.00    +0.000 A 
ATOM     14  C   UNL     1      -1.445  15.128  24.852  0.00  0.00    +0.000 A 
ATOM     15  N   UNL     1      -0.976  14.362  23.842  0.00  0.00    +0.000 NA
ENDBRANCH   7  10
BRANCH   3  16
ATOM     16  C   UNL     1       1.572   9.108  18.493  0.00  0.00    +0.000 C 
ATOM     17  O   UNL     1       2.015   9.374  17.384  0.00  0.00    +0.000 OA
ATOM     18  N   UNL     1       1.915   8.005  19.239  0.00  0.00    +0.000 N 
ATOM     19  H   UNL     1       1.380   7.847  20.092  0.00  0.00    +0.000 HD
BRANCH  18  20
ATOM     20  C   UNL     1       2.782   6.974  18.721  0.00  0.00    +0.000 C 
BRANCH  20  21
ATOM     21  C   UNL     1       2.251   5.595  18.976  0.00  0.00    +0.000 A 
ATOM     22  C   UNL     1       1.968   4.715  17.925  0.00  0.00    +0.000 A 
ATOM     23  C   UNL     1       1.429   3.460  18.196  0.00  0.00    +0.000 A 
ATOM     24  C   UNL     1       1.185   3.122  19.516  0.00  0.00    +0.000 A 
ATOM     25  N   UNL     1       1.439   3.943  20.557  0.00  0.00    +0.000 NA
ATOM     26  C   UNL     1       1.960   5.157  20.264  0.00  0.00    +0.000 A 
ENDBRANCH  20  21
ENDBRANCH  18  20
ENDBRANCH   3  16
BRANCH   1  28
ATOM     27  C   UNL     1      -3.461  10.434  17.353  0.00  0.00    +0.000 C 
ATOM     28  C   UNL     1      -2.906  11.499  18.294  0.00  0.00    +0.000 C 
ENDBRANCH   1  28
TORSDOF 5
ENDMDL
MODEL 8
REMARK VINA RESULT:      -7.5      1.123      1.314
REMARK  Name = 
REMARK  6 active torsions:
REMARK  status: ('A' for Active; 'I' for Inactive)
REMARK    1  A    between atoms: C_1  and  C_2
REMARK    2  A    between atoms: C_2  and  C_3
REMARK    3  A    between atoms: C_5  and  C_6
REMARK    4  A    between atoms: N_8  and  C_9
REMARK    5  A    between atoms: C_9  and  C_10
REMARK    6  A    between atoms: C_19  and  C_20
REMARK                            x       y       z     vdW  Elec       q    Type
REMARK                         _______ _______ _______ _____ _____    ______ ____
ROOT
ATOM      1  C   UNL     1       2.686   5.222  19.775  0.00  0.00    +0.000 A 
ATOM      2  C   UNL     1       1.949   6.142  20.428  0.00  0.00    +0.000 A 
ATOM      3  C   UNL     1       1.958   7.532  19.869  0.00  0.00    +0.000 A 
ATOM      4  N   UNL     1       2.601   7.911  18.798  0.00  0.00    +0.000 NA
ATOM      5  C   UNL     1       3.327   6.938  18.164  0.00  0.00    +0.000 A 
ATOM      6  C   UNL     1       4.085   6.967  17.017  0.00  0.00    +0.000 A 
ATOM      7  C   UNL     1       4.592   5.657  16.844  0.00  0.00    +0.000 A 
ATOM      8  N   UNL     1       4.203   4.859  17.851  0.00  0.00    +0.000 NA
ATOM      9  N   UNL     1       3.398   5.620  18.632  0.00  0.00    +0.000 N 
ENDROOT
BRANCH   7  10
ATOM     10  C   UNL     1       5.429   5.166  15.739  0.00  0.00    +0.000 A 
ATOM     11  C   UNL     1       4.958   4.196  14.856  0.00  0.00    +0.000 A 
ATOM     12  C   UNL     1       5.779   3.775  13.813  0.00  0.00    +0.000 A 
ATOM     13  C   UNL     1       7.042   4.336  13.678  0.00  0.00    +0.000 A 
ATOM     14  C   UNL     1       7.434   5.296  14.597  0.00  0.00    +0.000 A 
ATOM     15  N   UNL     1       6.662   5.724  15.620  0.00  0.00    +0.000 NA
ENDBRANCH   7  10
BRANCH   3  16
ATOM     16  C   UNL     1       1.144   8.581  20.641  0.00  0.00    +0.000 C 
ATOM     17  O   UNL     1       0.664   8.307  21.733  0.00  0.00    +0.000 OA
ATOM     18  N   UNL     1       1.024   9.794  20.004  0.00  0.00    +0.000 N 
ATOM     19  H   UNL     1       1.372   9.843  19.049  0.00  0.00    +0.000 HD
BRANCH  18  20
ATOM     20  C   UNL     1       0.208  10.858  20.540  0.00  0.00    +0.000 C 
BRANCH  20  21
ATOM     21  C   UNL     1      -1.055  11.062  19.757  0.00  0.00    +0.000 A 
ATOM     22  C   UNL     1      -1.326  10.321  18.602  0.00  0.00    +0.000 A 
ATOM     23  C   UNL     1      -2.485  10.571  17.872  0.00  0.00    +0.000 A 
ATOM     24  C   UNL     1      -3.341  11.563  18.320  0.00  0.00    +0.000 A 
ATOM     25  N   UNL     1      -3.114  12.303  19.426  0.00  0.00    +0.000 NA
ATOM     26  C   UNL     1      -1.979  12.039  20.114  0.00  0.00    +0.000 A 
ENDBRANCH  20  21
ENDBRANCH  18  20
ENDBRANCH   3  16
BRANCH   1  28
ATOM     27  C   UNL     1       1.808   3.408  21.349  0.00  0.00    +0.000 C 
ATOM     28  C   UNL     1       2.797   3.793  20.251  0.00  0.00    +0.000 C 
ENDBRANCH   1  28
TORSDOF 5
ENDMDL
MODEL 9
REMARK VINA RESULT:      -7.4      2.384      8.972
REMARK  Name = 
REMARK  6 active torsions:
REMARK  status: ('A' for Active; 'I' for Inactive)
REMARK    1  A    between atoms: C_1  and  C_2
REMARK    2  A    between atoms: C_2  and  C_3
REMARK    3  A    between atoms: C_5  and  C_6
REMARK    4  A    between atoms: N_8  and  C_9
REMARK    5  A    between atoms: C_9  and  C_10
REMARK    6  A    between atoms: C_19  and  C_20
REMARK                            x       y       z     vdW  Elec       q    Type
REMARK                         _______ _______ _______ _____ _____    ______ ____
ROOT
ATOM      1  C   UNL     1       3.657   4.308  18.145  0.00  0.00    +0.000 A 
ATOM      2  C   UNL     1       4.657   4.022  17.288  0.00  0.00    +0.000 A 
ATOM      3  C   UNL     1       5.288   5.181  16.580  0.00  0.00    +0.000 A 
ATOM      4  N   UNL     1       4.962   6.434  16.742  0.00  0.00    +0.000 NA
ATOM      5  C   UNL     1       3.948   6.675  17.632  0.00  0.00    +0.000 A 
ATOM      6  C   UNL     1       3.376   7.847  18.067  0.00  0.00    +0.000 A 
ATOM      7  C   UNL     1       2.375   7.477  18.999  0.00  0.00    +0.000 A 
ATOM      8  N   UNL     1       2.301   6.141  19.111  0.00  0.00    +0.000 NA
ATOM      9  N   UNL     1       3.282   5.650  18.317  0.00  0.00    +0.000 N 
ENDROOT
BRANCH   7  10
ATOM     10  C   UNL     1       1.508   8.375  19.774  0.00  0.00    +0.000 A 
ATOM     11  C   UNL     1       1.183   8.093  21.101  0.00  0.00    +0.000 A 
ATOM     12  C   UNL     1       0.373   8.983  21.801  0.00  0.00    +0.000 A 
ATOM     13  C   UNL     1      -0.087  10.127  21.162  0.00  0.00    +0.000 A 
ATOM     14  C   UNL     1       0.282  10.333  19.844  0.00  0.00    +0.000 A 
ATOM     15  N   UNL     1       1.065   9.489  19.136  0.00  0.00    +0.000 NA
ENDBRANCH   7  10
BRANCH   3  16
ATOM     16  C   UNL     1       6.402   4.841  15.578  0.00  0.00    +0.000 C 
ATOM     17  O   UNL     1       7.508   4.501  15.977  0.00  0.00    +0.000 OA
ATOM     18  N   UNL     1       6.037   4.954  14.256  0.00  0.00    +0.000 N 
ATOM     19  H   UNL     1       5.122   5.361  14.070  0.00  0.00    +0.000 HD
BRANCH  18  20
ATOM     20  C   UNL     1       6.987   4.771  13.186  0.00  0.00    +0.000 C 
BRANCH  20  21
ATOM     21  C   UNL     1       6.655   3.591  12.319  0.00  0.00    +0.000 A 
ATOM     22  C   UNL     1       5.330   3.208  12.085  0.00  0.00    +0.000 A 
ATOM     23  C   UNL     1       5.060   2.079  11.317  0.00  0.00    +0.000 A 
ATOM     24  C   UNL     1       6.128   1.362  10.806  0.00  0.00    +0.000 A 
ATOM     25  N   UNL     1       7.420   1.696  11.012  0.00  0.00    +0.000 NA
ATOM     26  C   UNL     1       7.652   2.796  11.764  0.00  0.00    +0.000 A 
ENDBRANCH  20  21
ENDBRANCH  18  20
ENDBRANCH   3  16
BRANCH   1  28
ATOM     27  C   UNL     1       3.334   1.806  18.561  0.00  0.00    +0.000 C 
ATOM     28  C   UNL     1       2.909   3.233  18.897  0.00  0.00    +0.000 C 
ENDBRANCH   1  28
TORSDOF 5
ENDMDL
