MODEL 1
REMARK VINA RESULT:      -8.0      0.000      0.000
REMARK  Name = 
REMARK  9 active torsions:
REMARK  status: ('A' for Active; 'I' for Inactive)
REMARK    1  A    between atoms: C_1  and  O_2
REMARK    2  A    between atoms: O_2  and  C_3
REMARK    3  A    between atoms: C_7  and  C_8
REMARK    4  A    between atoms: N_10  and  C_11
REMARK    5  A    between atoms: C_11  and  C_12
REMARK    6  A    between atoms: C_11  and  C_13
REMARK    7  A    between atoms: C_16  and  C_17
REMARK    8  A    between atoms: C_25  and  O_26
REMARK    9  A    between atoms: O_26  and  C_27
REMARK                            x       y       z     vdW  Elec       q    Type
REMARK                         _______ _______ _______ _____ _____    ______ ____
ROOT
ATOM      1  C   UNL     1      -0.952  11.313  18.943  0.00  0.00    +0.000 C 
ATOM      2  O   UNL     1      -0.092  12.159  18.711  0.00  0.00    +0.000 OA
ATOM      3  N   UNL     1      -0.756  10.284  19.827  0.00  0.00    +0.000 N 
ATOM      4  H   UNL     1      -1.469   9.564  19.847  0.00  0.00    +0.000 HD
ENDROOT
BRANCH   1   9
ATOM      5  C   UNL     1      -4.688  11.797  18.121  0.00  0.00    +0.000 A 
ATOM      6  C   UNL     1      -4.653  11.463  16.758  0.00  0.00    +0.000 A 
ATOM      7  C   UNL     1      -3.474  11.035  16.158  0.00  0.00    +0.000 A 
ATOM      8  C   UNL     1      -2.306  10.975  16.909  0.00  0.00    +0.000 A 
ATOM      9  C   UNL     1      -2.294  11.380  18.257  0.00  0.00    +0.000 A 
ATOM     10  C   UNL     1      -3.496  11.814  18.876  0.00  0.00    +0.000 A 
BRANCH   5  12
ATOM     11  C   UNL     1      -7.037  11.974  17.900  0.00  0.00    +0.000 C 
ATOM     12  O   UNL     1      -5.873  12.155  18.707  0.00  0.00    +0.000 OA
ENDBRANCH   5  12
BRANCH  10  13
ATOM     13  O   UNL     1      -3.376  12.210  20.184  0.00  0.00    +0.000 OA
ATOM     14  C   UNL     1      -3.326  13.579  20.547  0.00  0.00    +0.000 C 
ENDBRANCH  10  13
ENDBRANCH   1   9
BRANCH   3  15
ATOM     15  C   UNL     1       0.473  10.016  20.550  0.00  0.00    +0.000 C 
ATOM     16  C   UNL     1       0.214   9.504  21.969  0.00  0.00    +0.000 C 
BRANCH  15  17
ATOM     17  C   UNL     1       1.296   9.007  19.761  0.00  0.00    +0.000 A 
ATOM     18  C   UNL     1       1.694   7.801  20.345  0.00  0.00    +0.000 A 
ATOM     19  C   UNL     1       2.459   6.877  19.622  0.00  0.00    +0.000 A 
ATOM     20  C   UNL     1       2.849   7.113  18.289  0.00  0.00    +0.000 A 
ATOM     21  C   UNL     1       2.453   8.335  17.720  0.00  0.00    +0.000 A 
ATOM     22  C   UNL     1       1.697   9.267  18.443  0.00  0.00    +0.000 A 
BRANCH  20  23
ATOM     23  C   UNL     1       3.638   6.114  17.527  0.00  0.00    +0.000 A 
ATOM     24  C   UNL     1       4.682   6.511  16.668  0.00  0.00    +0.000 A 
ATOM     25  C   UNL     1       5.412   5.583  15.922  0.00  0.00    +0.000 A 
ATOM     26  C   UNL     1       5.127   4.225  16.028  0.00  0.00    +0.000 A 
ATOM     27  C   UNL     1       4.116   3.800  16.883  0.00  0.00    +0.000 A 
ATOM     28  C   UNL     1       3.380   4.734  17.620  0.00  0.00    +0.000 A 
ENDBRANCH  20  23
ENDBRANCH  15  17
ENDBRANCH   3  15
TORSDOF 6
ENDMDL
MODEL 2
REMARK VINA RESULT:      -7.8      0.500      1.397
REMARK  Name = 
REMARK  9 active torsions:
REMARK  status: ('A' for Active; 'I' for Inactive)
REMARK    1  A    between atoms: C_1  and  O_2
REMARK    2  A    between atoms: O_2  and  C_3
REMARK    3  A    between atoms: C_7  and  C_8
REMARK    4  A    between atoms: N_10  and  C_11
REMARK    5  A    between atoms: C_11  and  C_12
REMARK    6  A    between atoms: C_11  and  C_13
REMARK    7  A    between atoms: C_16  and  C_17
REMARK    8  A    between atoms: C_25  and  O_26
REMARK    9  A    between atoms: O_26  and  C_27
REMARK                            x       y       z     vdW  Elec       q    Type
REMARK                         _______ _______ _______ _____ _____    ______ ____
ROOT
ATOM      1  C   UNL     1      -0.874  11.090  18.915  0.00  0.00    +0.000 C 
ATOM      2  O   UNL     1      -0.067  12.005  18.776  0.00  0.00    +0.000 OA
ATOM      3  N   UNL     1      -0.634  10.009  19.722  0.00  0.00    +0.000 N 
ATOM      4  H   UNL     1      -1.298   9.245  19.664  0.00  0.00    +0.000 HD
ENDROOT
BRANCH   1   9
ATOM      5  C   UNL     1      -4.511  11.804  17.851  0.00  0.00    +0.000 A 
ATOM      6  C   UNL     1      -4.536  11.062  16.659  0.00  0.00    +0.000 A 
ATOM      7  C   UNL     1      -3.436  10.311  16.264  0.00  0.00    +0.000 A 
ATOM      8  C   UNL     1      -2.281  10.327  17.037  0.00  0.00    +0.000 A 
ATOM      9  C   UNL     1      -2.199  11.125  18.194  0.00  0.00    +0.000 A 
ATOM     10  C   UNL     1      -3.322  11.891  18.605  0.00  0.00    +0.000 A 
BRANCH   5  12
ATOM     11  C   UNL     1      -6.710  11.676  18.716  0.00  0.00    +0.000 C 
ATOM     12  O   UNL     1      -5.628  12.487  18.255  0.00  0.00    +0.000 OA
ENDBRANCH   5  12
BRANCH  10  13
ATOM     13  O   UNL     1      -3.135  12.653  19.731  0.00  0.00    +0.000 OA
ATOM     14  C   UNL     1      -3.798  12.359  20.948  0.00  0.00    +0.000 C 
ENDBRANCH  10  13
ENDBRANCH   1   9
BRANCH   3  15
ATOM     15  C   UNL     1       0.591   9.764  20.460  0.00  0.00    +0.000 C 
ATOM     16  C   UNL     1       0.324   9.228  21.869  0.00  0.00    +0.000 C 
BRANCH  15  17
ATOM     17  C   UNL     1       1.452   8.786  19.672  0.00  0.00    +0.000 A 
ATOM     18  C   UNL     1       1.855   9.083  18.368  0.00  0.00    +0.000 A 
ATOM     19  C   UNL     1       2.639   8.178  17.641  0.00  0.00    +0.000 A 
ATOM     20  C   UNL     1       3.059   6.950  18.186  0.00  0.00    +0.000 A 
ATOM     21  C   UNL     1       2.635   6.659  19.493  0.00  0.00    +0.000 A 
ATOM     22  C   UNL     1       1.842   7.555  20.221  0.00  0.00    +0.000 A 
BRANCH  20  23
ATOM     23  C   UNL     1       3.911   6.014  17.412  0.00  0.00    +0.000 A 
ATOM     24  C   UNL     1       3.782   4.618  17.560  0.00  0.00    +0.000 A 
ATOM     25  C   UNL     1       4.597   3.726  16.861  0.00  0.00    +0.000 A 
ATOM     26  C   UNL     1       5.559   4.207  15.979  0.00  0.00    +0.000 A 
ATOM     27  C   UNL     1       5.699   5.579  15.795  0.00  0.00    +0.000 A 
ATOM     28  C   UNL     1       4.886   6.470  16.506  0.00  0.00    +0.000 A 
ENDBRANCH  20  23
ENDBRANCH  15  17
ENDBRANCH   3  15
TORSDOF 6
ENDMDL
MODEL 3
REMARK VINA RESULT:      -7.7      1.677      2.288
REMARK  Name = 
REMARK  9 active torsions:
REMARK  status: ('A' for Active; 'I' for Inactive)
REMARK    1  A    between atoms: C_1  and  O_2
REMARK    2  A    between atoms: O_2  and  C_3
REMARK    3  A    between atoms: C_7  and  C_8
REMARK    4  A    between atoms: N_10  and  C_11
REMARK    5  A    between atoms: C_11  and  C_12
REMARK    6  A    between atoms: C_11  and  C_13
REMARK    7  A    between atoms: C_16  and  C_17
REMARK    8  A    between atoms: C_25  and  O_26
REMARK    9  A    between atoms: O_26  and  C_27
REMARK                            x       y       z     vdW  Elec       q    Type
REMARK                         _______ _______ _______ _____ _____    ______ ____
ROOT
ATOM      1  C   UNL     1      -0.192  10.422  18.888  0.00  0.00    +0.000 C 
ATOM      2  O   UNL     1       0.808  10.901  18.361  0.00  0.00    +0.000 OA
ATOM      3  N   UNL     1      -0.139   9.694  20.048  0.00  0.00    +0.000 N 
ATOM      4  H   UNL     1      -0.994   9.227  20.329  0.00  0.00    +0.000 HD
ENDROOT
BRANCH   1   9
ATOM      5  C   UNL     1      -3.820  11.512  18.167  0.00  0.00    +0.000 A 
ATOM      6  C   UNL     1      -3.983  10.900  16.913  0.00  0.00    +0.000 A 
ATOM      7  C   UNL     1      -2.975  10.113  16.367  0.00  0.00    +0.000 A 
ATOM      8  C   UNL     1      -1.776   9.964  17.053  0.00  0.00    +0.000 A 
ATOM      9  C   UNL     1      -1.554  10.630  18.273  0.00  0.00    +0.000 A 
ATOM     10  C   UNL     1      -2.581  11.431  18.837  0.00  0.00    +0.000 A 
BRANCH   5  12
ATOM     11  C   UNL     1      -5.898  11.455  19.298  0.00  0.00    +0.000 C 
ATOM     12  O   UNL     1      -4.849  12.230  18.716  0.00  0.00    +0.000 OA
ENDBRANCH   5  12
BRANCH  10  13
ATOM     13  O   UNL     1      -2.260  12.057  20.015  0.00  0.00    +0.000 OA
ATOM     14  C   UNL     1      -1.801  13.397  20.046  0.00  0.00    +0.000 C 
ENDBRANCH  10  13
ENDBRANCH   1   9
BRANCH   3  15
ATOM     15  C   UNL     1       1.071   9.343  20.768  0.00  0.00    +0.000 C 
ATOM     16  C   UNL     1       0.885   9.405  22.286  0.00  0.00    +0.000 C 
BRANCH  15  17
ATOM     17  C   UNL     1       1.508   7.948  20.342  0.00  0.00    +0.000 A 
ATOM     18  C   UNL     1       2.234   7.758  19.163  0.00  0.00    +0.000 A 
ATOM     19  C   UNL     1       2.627   6.473  18.767  0.00  0.00    +0.000 A 
ATOM     20  C   UNL     1       2.323   5.331  19.534  0.00  0.00    +0.000 A 
ATOM     21  C   UNL     1       1.582   5.536  20.709  0.00  0.00    +0.000 A 
ATOM     22  C   UNL     1       1.176   6.817  21.104  0.00  0.00    +0.000 A 
BRANCH  20  23
ATOM     23  C   UNL     1       2.769   3.979  19.115  0.00  0.00    +0.000 A 
ATOM     24  C   UNL     1       3.698   3.248  19.882  0.00  0.00    +0.000 A 
ATOM     25  C   UNL     1       4.149   1.988  19.484  0.00  0.00    +0.000 A 
ATOM     26  C   UNL     1       3.669   1.415  18.310  0.00  0.00    +0.000 A 
ATOM     27  C   UNL     1       2.736   2.102  17.542  0.00  0.00    +0.000 A 
ATOM     28  C   UNL     1       2.295   3.370  17.939  0.00  0.00    +0.000 A 
ENDBRANCH  20  23
ENDBRANCH  15  17
ENDBRANCH   3  15
TORSDOF 6
ENDMDL
MODEL 4
REMARK VINA RESULT:      -7.6      0.737      1.452
REMARK  Name = 
REMARK  9 active torsions:
REMARK  status: ('A' for Active; 'I' for Inactive)
REMARK    1  A    between atoms: C_1  and  O_2
REMARK    2  A    between atoms: O_2  and  C_3
REMARK    3  A    between atoms: C_7  and  C_8
REMARK    4  A    between atoms: N_10  and  C_11
REMARK    5  A    between atoms: C_11  and  C_12
REMARK    6  A    between atoms: C_11  and  C_13
REMARK    7  A    between atoms: C_16  and  C_17
REMARK    8  A    between atoms: C_25  and  O_26
REMARK    9  A    between atoms: O_26  and  C_27
REMARK                            x       y       z     vdW  Elec       q    Type
REMARK                         _______ _______ _______ _____ _____    ______ ____
ROOT
ATOM      1  C   UNL     1      -1.003  11.618  18.866  0.00  0.00    +0.000 C 
ATOM      2  O   UNL     1      -0.179  12.449  18.492  0.00  0.00    +0.000 OA
ATOM      3  N   UNL     1      -0.720  10.674  19.818  0.00  0.00    +0.000 N 
ATOM      4  H   UNL     1      -1.416   9.951  19.959  0.00  0.00    +0.000 HD
ENDROOT
BRANCH   1   9
ATOM      5  C   UNL     1      -4.815  11.871  18.345  0.00  0.00    +0.000 A 
ATOM      6  C   UNL     1      -4.865  11.565  16.975  0.00  0.00    +0.000 A 
ATOM      7  C   UNL     1      -3.712  11.226  16.278  0.00  0.00    +0.000 A 
ATOM      8  C   UNL     1      -2.488  11.229  16.935  0.00  0.00    +0.000 A 
ATOM      9  C   UNL     1      -2.395  11.610  18.287  0.00  0.00    +0.000 A 
ATOM     10  C   UNL     1      -3.571  11.953  19.006  0.00  0.00    +0.000 A 
BRANCH   5  12
ATOM     11  C   UNL     1      -6.561  13.413  18.760  0.00  0.00    +0.000 C 
ATOM     12  O   UNL     1      -5.971  12.140  19.029  0.00  0.00    +0.000 OA
ENDBRANCH   5  12
BRANCH  10  13
ATOM     13  O   UNL     1      -3.374  12.332  20.310  0.00  0.00    +0.000 OA
ATOM     14  C   UNL     1      -3.371  13.695  20.697  0.00  0.00    +0.000 C 
ENDBRANCH  10  13
ENDBRANCH   1   9
BRANCH   3  15
ATOM     15  C   UNL     1       0.567  10.484  20.461  0.00  0.00    +0.000 C 
ATOM     16  C   UNL     1       0.443  10.328  21.978  0.00  0.00    +0.000 C 
BRANCH  15  17
ATOM     17  C   UNL     1       1.244   9.263  19.853  0.00  0.00    +0.000 A 
ATOM     18  C   UNL     1       1.539   9.218  18.488  0.00  0.00    +0.000 A 
ATOM     19  C   UNL     1       2.153   8.090  17.928  0.00  0.00    +0.000 A 
ATOM     20  C   UNL     1       2.505   6.971  18.706  0.00  0.00    +0.000 A 
ATOM     21  C   UNL     1       2.191   7.025  20.074  0.00  0.00    +0.000 A 
ATOM     22  C   UNL     1       1.567   8.145  20.637  0.00  0.00    +0.000 A 
BRANCH  20  23
ATOM     23  C   UNL     1       3.179   5.794  18.104  0.00  0.00    +0.000 A 
ATOM     24  C   UNL     1       2.451   4.641  17.746  0.00  0.00    +0.000 A 
ATOM     25  C   UNL     1       3.077   3.516  17.206  0.00  0.00    +0.000 A 
ATOM     26  C   UNL     1       4.452   3.518  16.993  0.00  0.00    +0.000 A 
ATOM     27  C   UNL     1       5.196   4.648  17.317  0.00  0.00    +0.000 A 
ATOM     28  C   UNL     1       4.566   5.769  17.868  0.00  0.00    +0.000 A 
ENDBRANCH  20  23
ENDBRANCH  15  17
ENDBRANCH   3  15
TORSDOF 6
ENDMDL
MODEL 5
REMARK VINA RESULT:      -7.5      3.335      5.093
REMARK  Name = 
REMARK  9 active torsions:
REMARK  status: ('A' for Active; 'I' for Inactive)
REMARK    1  A    between atoms: C_1  and  O_2
REMARK    2  A    between atoms: O_2  and  C_3
REMARK    3  A    between atoms: C_7  and  C_8
REMARK    4  A    between atoms: N_10  and  C_11
REMARK    5  A    between atoms: C_11  and  C_12
REMARK    6  A    between atoms: C_11  and  C_13
REMARK    7  A    between atoms: C_16  and  C_17
REMARK    8  A    between atoms: C_25  and  O_26
REMARK    9  A    between atoms: O_26  and  C_27
REMARK                            x       y       z     vdW  Elec       q    Type
REMARK                         _______ _______ _______ _____ _____    ______ ____
ROOT
ATOM      1  C   UNL     1       1.607   7.721  20.334  0.00  0.00    +0.000 C 
ATOM      2  O   UNL     1       1.085   7.080  21.243  0.00  0.00    +0.000 OA
ATOM      3  N   UNL     1       2.520   7.172  19.473  0.00  0.00    +0.000 N 
ATOM      4  H   UNL     1       2.993   7.814  18.847  0.00  0.00    +0.000 HD
ENDROOT
BRANCH   1   9
ATOM      5  C   UNL     1       0.670  11.431  20.809  0.00  0.00    +0.000 A 
ATOM      6  C   UNL     1       0.634  11.818  19.460  0.00  0.00    +0.000 A 
ATOM      7  C   UNL     1       0.839  10.890  18.446  0.00  0.00    +0.000 A 
ATOM      8  C   UNL     1       1.124   9.569  18.773  0.00  0.00    +0.000 A 
ATOM      9  C   UNL     1       1.246   9.169  20.118  0.00  0.00    +0.000 A 
ATOM     10  C   UNL     1       1.033  10.113  21.157  0.00  0.00    +0.000 A 
BRANCH   5  12
ATOM     11  C   UNL     1      -0.953  12.795  21.861  0.00  0.00    +0.000 C 
ATOM     12  O   UNL     1       0.402  12.348  21.791  0.00  0.00    +0.000 OA
ENDBRANCH   5  12
BRANCH  10  13
ATOM     13  O   UNL     1       1.198   9.632  22.432  0.00  0.00    +0.000 OA
ATOM     14  C   UNL     1       0.105   9.493  23.323  0.00  0.00    +0.000 C 
ENDBRANCH  10  13
ENDBRANCH   1   9
BRANCH   3  15
ATOM     15  C   UNL     1       3.033   5.816  19.540  0.00  0.00    +0.000 C 
ATOM     16  C   UNL     1       1.930   4.787  19.793  0.00  0.00    +0.000 C 
BRANCH  15  17
ATOM     17  C   UNL     1       3.765   5.505  18.241  0.00  0.00    +0.000 A 
ATOM     18  C   UNL     1       4.295   6.533  17.458  0.00  0.00    +0.000 A 
ATOM     19  C   UNL     1       4.959   6.246  16.259  0.00  0.00    +0.000 A 
ATOM     20  C   UNL     1       5.131   4.926  15.800  0.00  0.00    +0.000 A 
ATOM     21  C   UNL     1       4.581   3.903  16.590  0.00  0.00    +0.000 A 
ATOM     22  C   UNL     1       3.905   4.186  17.784  0.00  0.00    +0.000 A 
BRANCH  20  23
ATOM     23  C   UNL     1       5.860   4.636  14.540  0.00  0.00    +0.000 A 
ATOM     24  C   UNL     1       7.101   5.241  14.260  0.00  0.00    +0.000 A 
ATOM     25  C   UNL     1       7.784   5.000  13.066  0.00  0.00    +0.000 A 
ATOM     26  C   UNL     1       7.248   4.130  12.121  0.00  0.00    +0.000 A 
ATOM     27  C   UNL     1       6.035   3.500  12.377  0.00  0.00    +0.000 A 
ATOM     28  C   UNL     1       5.349   3.753  13.570  0.00  0.00    +0.000 A 
ENDBRANCH  20  23
ENDBRANCH  15  17
ENDBRANCH   3  15
TORSDOF 6
ENDMDL
MODEL 6
REMARK VINA RESULT:      -7.4      3.751      4.980
REMARK  Name = 
REMARK  9 active torsions:
REMARK  status: ('A' for Active; 'I' for Inactive)
REMARK    1  A    between atoms: C_1  and  O_2
REMARK    2  A    between atoms: O_2  and  C_3
REMARK    3  A    between atoms: C_7  and  C_8
REMARK    4  A    between atoms: N_10  and  C_11
REMARK    5  A    between atoms: C_11  and  C_12
REMARK    6  A    between atoms: C_11  and  C_13
REMARK    7  A    between atoms: C_16  and  C_17
REMARK    8  A    between atoms: C_25  and  O_26
REMARK    9  A    between atoms: O_26  and  C_27
REMARK                            x       y       z     vdW  Elec       q    Type
REMARK                         _______ _______ _______ _____ _____    ______ ____
ROOT
ATOM      1  C   UNL     1       1.685  13.357  20.099  0.00  0.00    +0.000 C 
ATOM      2  O   UNL     1       1.949  13.313  21.298  0.00  0.00    +0.000 OA
ATOM      3  N   UNL     1       0.889  12.428  19.483  0.00  0.00    +0.000 N 
ATOM      4  H   UNL     1       0.843  12.471  18.471  0.00  0.00    +0.000 HD
ENDROOT
BRANCH   1   9
ATOM      5  C   UNL     1       2.283  16.713  18.298  0.00  0.00    +0.000 A 
ATOM      6  C   UNL     1       3.453  16.377  17.599  0.00  0.00    +0.000 A 
ATOM      7  C   UNL     1       3.978  15.092  17.664  0.00  0.00    +0.000 A 
ATOM      8  C   UNL     1       3.359  14.138  18.463  0.00  0.00    +0.000 A 
ATOM      9  C   UNL     1       2.231  14.469  19.238  0.00  0.00    +0.000 A 
ATOM     10  C   UNL     1       1.688  15.779  19.172  0.00  0.00    +0.000 A 
BRANCH   5  12
ATOM     11  C   UNL     1       1.146  18.253  16.905  0.00  0.00    +0.000 C 
ATOM     12  O   UNL     1       1.746  17.968  18.169  0.00  0.00    +0.000 OA
ENDBRANCH   5  12
BRANCH  10  13
ATOM     13  O   UNL     1       0.604  16.009  19.981  0.00  0.00    +0.000 OA
ATOM     14  C   UNL     1       0.717  16.745  21.186  0.00  0.00    +0.000 C 
ENDBRANCH  10  13
ENDBRANCH   1   9
BRANCH   3  15
ATOM     15  C   UNL     1       0.308  11.261  20.120  0.00  0.00    +0.000 C 
ATOM     16  C   UNL     1      -1.206  11.177  19.913  0.00  0.00    +0.000 C 
BRANCH  15  17
ATOM     17  C   UNL     1       0.989  10.013  19.574  0.00  0.00    +0.000 A 
ATOM     18  C   UNL     1       1.264   8.928  20.411  0.00  0.00    +0.000 A 
ATOM     19  C   UNL     1       1.900   7.785  19.910  0.00  0.00    +0.000 A 
ATOM     20  C   UNL     1       2.276   7.673  18.558  0.00  0.00    +0.000 A 
ATOM     21  C   UNL     1       2.006   8.777  17.732  0.00  0.00    +0.000 A 
ATOM     22  C   UNL     1       1.381   9.927  18.230  0.00  0.00    +0.000 A 
BRANCH  20  23
ATOM     23  C   UNL     1       2.925   6.445  18.036  0.00  0.00    +0.000 A 
ATOM     24  C   UNL     1       4.233   6.478  17.511  0.00  0.00    +0.000 A 
ATOM     25  C   UNL     1       4.845   5.336  16.990  0.00  0.00    +0.000 A 
ATOM     26  C   UNL     1       4.168   4.121  16.993  0.00  0.00    +0.000 A 
ATOM     27  C   UNL     1       2.884   4.050  17.524  0.00  0.00    +0.000 A 
ATOM     28  C   UNL     1       2.271   5.200  18.035  0.00  0.00    +0.000 A 
ENDBRANCH  20  23
ENDBRANCH  15  17
ENDBRANCH   3  15
TORSDOF 6
ENDMDL
MODEL 7
REMARK VINA RESULT:      -7.4      1.516      1.816
REMARK  Name = 
REMARK  9 active torsions:
REMARK  status: ('A' for Active; 'I' for Inactive)
REMARK    1  A    between atoms: C_1  and  O_2
REMARK    2  A    between atoms: O_2  and  C_3
REMARK    3  A    between atoms: C_7  and  C_8
REMARK    4  A    between atoms: N_10  and  C_11
REMARK    5  A    between atoms: C_11  and  C_12
REMARK    6  A    between atoms: C_11  and  C_13
REMARK    7  A    between atoms: C_16  and  C_17
REMARK    8  A    between atoms: C_25  and  O_26
REMARK    9  A    between atoms: O_26  and  C_27
REMARK                            x       y       z     vdW  Elec       q    Type
REMARK                         _______ _______ _______ _____ _____    ______ ____
ROOT
ATOM      1  C   UNL     1      -0.572  10.921  18.818  0.00  0.00    +0.000 C 
ATOM      2  O   UNL     1       0.309  11.665  18.395  0.00  0.00    +0.000 OA
ATOM      3  N   UNL     1      -0.352  10.008  19.815  0.00  0.00    +0.000 N 
ATOM      4  H   UNL     1      -1.101   9.349  19.999  0.00  0.00    +0.000 HD
ENDROOT
BRANCH   1   9
ATOM      5  C   UNL     1      -4.272  11.768  18.139  0.00  0.00    +0.000 A 
ATOM      6  C   UNL     1      -4.466  10.981  16.993  0.00  0.00    +0.000 A 
ATOM      7  C   UNL     1      -3.452  10.162  16.510  0.00  0.00    +0.000 A 
ATOM      8  C   UNL     1      -2.216  10.153  17.147  0.00  0.00    +0.000 A 
ATOM      9  C   UNL     1      -1.968  10.991  18.250  0.00  0.00    +0.000 A 
ATOM     10  C   UNL     1      -3.001  11.826  18.750  0.00  0.00    +0.000 A 
BRANCH   5  12
ATOM     11  C   UNL     1      -6.232  13.006  17.665  0.00  0.00    +0.000 C 
ATOM     12  O   UNL     1      -5.305  12.519  18.636  0.00  0.00    +0.000 OA
ENDBRANCH   5  12
BRANCH  10  13
ATOM     13  O   UNL     1      -2.654  12.622  19.812  0.00  0.00    +0.000 OA
ATOM     14  C   UNL     1      -3.172  12.399  21.112  0.00  0.00    +0.000 C 
ENDBRANCH  10  13
ENDBRANCH   1   9
BRANCH   3  15
ATOM     15  C   UNL     1       0.924   9.751  20.458  0.00  0.00    +0.000 C 
ATOM     16  C   UNL     1       0.845   9.880  21.981  0.00  0.00    +0.000 C 
BRANCH  15  17
ATOM     17  C   UNL     1       1.401   8.360  20.065  0.00  0.00    +0.000 A 
ATOM     18  C   UNL     1       1.299   7.293  20.961  0.00  0.00    +0.000 A 
ATOM     19  C   UNL     1       1.747   6.015  20.601  0.00  0.00    +0.000 A 
ATOM     20  C   UNL     1       2.302   5.749  19.335  0.00  0.00    +0.000 A 
ATOM     21  C   UNL     1       2.410   6.834  18.449  0.00  0.00    +0.000 A 
ATOM     22  C   UNL     1       1.974   8.116  18.808  0.00  0.00    +0.000 A 
BRANCH  20  23
ATOM     23  C   UNL     1       2.748   4.385  18.959  0.00  0.00    +0.000 A 
ATOM     24  C   UNL     1       2.200   3.719  17.844  0.00  0.00    +0.000 A 
ATOM     25  C   UNL     1       2.589   2.424  17.497  0.00  0.00    +0.000 A 
ATOM     26  C   UNL     1       3.553   1.761  18.250  0.00  0.00    +0.000 A 
ATOM     27  C   UNL     1       4.128   2.398  19.344  0.00  0.00    +0.000 A 
ATOM     28  C   UNL     1       3.728   3.692  19.695  0.00  0.00    +0.000 A 
ENDBRANCH  20  23
ENDBRANCH  15  17
ENDBRANCH   3  15
TORSDOF 6
ENDMDL
MODEL 8
REMARK VINA RESULT:      -7.3      6.464      9.277
REMARK  Name = 
REMARK  9 active torsions:
REMARK  status: ('A' for Active; 'I' for Inactive)
REMARK    1  A    between atoms: C_1  and  O_2
REMARK    2  A    between atoms: O_2  and  C_3
REMARK    3  A    between atoms: C_7  and  C_8
REMARK    4  A    between atoms: N_10  and  C_11
REMARK    5  A    between atoms: C_11  and  C_12
REMARK    6  A    between atoms: C_11  and  C_13
REMARK    7  A    between atoms: C_16  and  C_17
REMARK    8  A    between atoms: C_25  and  O_26
REMARK    9  A    between atoms: O_26  and  C_27
REMARK                            x       y       z     vdW  Elec       q    Type
REMARK                         _______ _______ _______ _____ _____    ______ ____
ROOT
ATOM      1  C   UNL     1       5.119   4.781  18.857  0.00  0.00    +0.000 C 
ATOM      2  O   UNL     1       6.011   4.105  19.363  0.00  0.00    +0.000 OA
ATOM      3  N   UNL     1       5.310   5.530  17.726  0.00  0.00    +0.000 N 
ATOM      4  H   UNL     1       4.557   6.157  17.466  0.00  0.00    +0.000 HD
ENDROOT
BRANCH   1   9
ATOM      5  C   UNL     1       1.721   3.821  20.407  0.00  0.00    +0.000 A 
ATOM      6  C   UNL     1       1.212   5.112  20.624  0.00  0.00    +0.000 A 
ATOM      7  C   UNL     1       1.920   6.236  20.217  0.00  0.00    +0.000 A 
ATOM      8  C   UNL     1       3.169   6.082  19.625  0.00  0.00    +0.000 A 
ATOM      9  C   UNL     1       3.740   4.805  19.468  0.00  0.00    +0.000 A 
ATOM     10  C   UNL     1       3.018   3.653  19.878  0.00  0.00    +0.000 A 
BRANCH   5  12
ATOM     11  C   UNL     1       1.239   2.196  22.059  0.00  0.00    +0.000 C 
ATOM     12  O   UNL     1       0.978   2.725  20.758  0.00  0.00    +0.000 OA
ENDBRANCH   5  12
BRANCH  10  13
ATOM     13  O   UNL     1       3.669   2.458  19.705  0.00  0.00    +0.000 OA
ATOM     14  C   UNL     1       3.442   1.643  18.567  0.00  0.00    +0.000 C 
ENDBRANCH  10  13
ENDBRANCH   1   9
BRANCH   3  15
ATOM     15  C   UNL     1       6.567   5.678  17.016  0.00  0.00    +0.000 C 
ATOM     16  C   UNL     1       6.373   5.773  15.501  0.00  0.00    +0.000 C 
BRANCH  15  17
ATOM     17  C   UNL     1       7.283   6.916  17.539  0.00  0.00    +0.000 A 
ATOM     18  C   UNL     1       8.153   6.828  18.629  0.00  0.00    +0.000 A 
ATOM     19  C   UNL     1       8.804   7.969  19.115  0.00  0.00    +0.000 A 
ATOM     20  C   UNL     1       8.622   9.237  18.531  0.00  0.00    +0.000 A 
ATOM     21  C   UNL     1       7.734   9.313  17.445  0.00  0.00    +0.000 A 
ATOM     22  C   UNL     1       7.072   8.177  16.961  0.00  0.00    +0.000 A 
BRANCH  20  23
ATOM     23  C   UNL     1       9.338  10.432  19.041  0.00  0.00    +0.000 A 
ATOM     24  C   UNL     1       9.993  11.320  18.163  0.00  0.00    +0.000 A 
ATOM     25  C   UNL     1      10.696  12.432  18.632  0.00  0.00    +0.000 A 
ATOM     26  C   UNL     1      10.751  12.696  19.997  0.00  0.00    +0.000 A 
ATOM     27  C   UNL     1      10.098  11.851  20.888  0.00  0.00    +0.000 A 
ATOM     28  C   UNL     1       9.404  10.732  20.414  0.00  0.00    +0.000 A 
ENDBRANCH  20  23
ENDBRANCH  15  17
ENDBRANCH   3  15
TORSDOF 6
ENDMDL
MODEL 9
REMARK VINA RESULT:      -7.3      1.066      1.464
REMARK  Name = 
REMARK  9 active torsions:
REMARK  status: ('A' for Active; 'I' for Inactive)
REMARK    1  A    between atoms: C_1  and  O_2
REMARK    2  A    between atoms: O_2  and  C_3
REMARK    3  A    between atoms: C_7  and  C_8
REMARK    4  A    between atoms: N_10  and  C_11
REMARK    5  A    between atoms: C_11  and  C_12
REMARK    6  A    between atoms: C_11  and  C_13
REMARK    7  A    between atoms: C_16  and  C_17
REMARK    8  A    between atoms: C_25  and  O_26
REMARK    9  A    between atoms: O_26  and  C_27
REMARK                            x       y       z     vdW  Elec       q    Type
REMARK                         _______ _______ _______ _____ _____    ______ ____
ROOT
ATOM      1  C   UNL     1      -1.924  12.014  19.750  0.00  0.00    +0.000 C 
ATOM      2  O   UNL     1      -1.589  13.068  20.284  0.00  0.00    +0.000 OA
ATOM      3  N   UNL     1      -1.182  10.867  19.848  0.00  0.00    +0.000 N 
ATOM      4  H   UNL     1      -1.468  10.091  19.262  0.00  0.00    +0.000 HD
ENDROOT
BRANCH   1   9
ATOM      5  C   UNL     1      -5.569  12.315  18.530  0.00  0.00    +0.000 A 
ATOM      6  C   UNL     1      -5.428  11.700  17.276  0.00  0.00    +0.000 A 
ATOM      7  C   UNL     1      -4.212  11.153  16.883  0.00  0.00    +0.000 A 
ATOM      8  C   UNL     1      -3.112  11.253  17.726  0.00  0.00    +0.000 A 
ATOM      9  C   UNL     1      -3.203  11.935  18.954  0.00  0.00    +0.000 A 
ATOM     10  C   UNL     1      -4.444  12.492  19.362  0.00  0.00    +0.000 A 
BRANCH   5  12
ATOM     11  C   UNL     1      -7.526  13.503  17.926  0.00  0.00    +0.000 C 
ATOM     12  O   UNL     1      -6.793  12.791  18.924  0.00  0.00    +0.000 OA
ENDBRANCH   5  12
BRANCH  10  13
ATOM     13  O   UNL     1      -4.425  13.156  20.562  0.00  0.00    +0.000 OA
ATOM     14  C   UNL     1      -4.997  12.598  21.732  0.00  0.00    +0.000 C 
ENDBRANCH  10  13
ENDBRANCH   1   9
BRANCH   3  15
ATOM     15  C   UNL     1       0.096  10.746  20.525  0.00  0.00    +0.000 C 
ATOM     16  C   UNL     1      -0.061  10.438  22.016  0.00  0.00    +0.000 C 
BRANCH  15  17
ATOM     17  C   UNL     1       0.913   9.658  19.840  0.00  0.00    +0.000 A 
ATOM     18  C   UNL     1       1.206   9.741  18.477  0.00  0.00    +0.000 A 
ATOM     19  C   UNL     1       1.949   8.735  17.845  0.00  0.00    +0.000 A 
ATOM     20  C   UNL     1       2.436   7.616  18.548  0.00  0.00    +0.000 A 
ATOM     21  C   UNL     1       2.123   7.540  19.915  0.00  0.00    +0.000 A 
ATOM     22  C   UNL     1       1.370   8.537  20.549  0.00  0.00    +0.000 A 
BRANCH  20  23
ATOM     23  C   UNL     1       3.244   6.572  17.871  0.00  0.00    +0.000 A 
ATOM     24  C   UNL     1       4.392   6.907  17.125  0.00  0.00    +0.000 A 
ATOM     25  C   UNL     1       5.144   5.938  16.458  0.00  0.00    +0.000 A 
ATOM     26  C   UNL     1       4.777   4.598  16.532  0.00  0.00    +0.000 A 
ATOM     27  C   UNL     1       3.661   4.232  17.277  0.00  0.00    +0.000 A 
ATOM     28  C   UNL     1       2.904   5.208  17.935  0.00  0.00    +0.000 A 
ENDBRANCH  20  23
ENDBRANCH  15  17
ENDBRANCH   3  15
TORSDOF 6
ENDMDL
