MODEL 1
REMARK VINA RESULT:      -7.4      0.000      0.000
REMARK  Name = 
REMARK  10 active torsions:
REMARK  status: ('A' for Active; 'I' for Inactive)
REMARK    1  A    between atoms: C_1  and  C_2
REMARK    2  A    between atoms: C_2  and  C_3
REMARK    3  A    between atoms: C_2  and  C_4
REMARK    4  A    between atoms: C_2  and  N_5
REMARK    5  A    between atoms: C_6  and  C_8
REMARK    6  A    between atoms: C_8  and  N_9
REMARK    7  A    between atoms: C_10  and  S_11
REMARK    8  A    between atoms: S_11  and  C_12
REMARK    9  A    between atoms: C_12  and  C_13
REMARK   10  A    between atoms: N_15  and  C_16
REMARK                            x       y       z     vdW  Elec       q    Type
REMARK                         _______ _______ _______ _____ _____    ______ ____
ROOT
ATOM      1  N   UNL     1       3.559   5.294  18.717  0.00  0.00    +0.000 N 
ATOM      2  C   UNL     1       4.241   4.862  17.606  0.00  0.00    +0.000 A 
ATOM      3  N   UNL     1       3.739   3.747  17.128  0.00  0.00    +0.000 NA
ATOM      4  C   UNL     1       2.725   3.407  17.991  0.00  0.00    +0.000 A 
ATOM      5  C   UNL     1       1.852   2.309  17.956  0.00  0.00    +0.000 A 
ATOM      6  C   UNL     1       0.920   2.153  18.990  0.00  0.00    +0.000 A 
ATOM      7  C   UNL     1       0.851   3.075  20.035  0.00  0.00    +0.000 A 
ATOM      8  C   UNL     1       1.691   4.194  20.069  0.00  0.00    +0.000 A 
ATOM      9  C   UNL     1       2.617   4.332  19.026  0.00  0.00    +0.000 A 
ENDROOT
BRANCH   1  10
ATOM     10  C   UNL     1       3.734   6.534  19.448  0.00  0.00    +0.000 C 
BRANCH  10  12
ATOM     11  N   UNL     1       2.095   7.818  20.732  0.00  0.00    +0.000 N 
ATOM     12  C   UNL     1       2.469   7.364  19.478  0.00  0.00    +0.000 C 
ATOM     13  O   UNL     1       1.816   7.571  18.457  0.00  0.00    +0.000 OA
ATOM     14  H   UNL     1       2.729   7.649  21.507  0.00  0.00    +0.000 HD
BRANCH  11  16
ATOM     15  C   UNL     1       1.029   9.343  22.371  0.00  0.00    +0.000 C 
ATOM     16  C   UNL     1       0.894   8.621  21.021  0.00  0.00    +0.000 C 
ATOM     17  C   UNL     1      -0.374   7.752  21.008  0.00  0.00    +0.000 C 
ATOM     18  C   UNL     1       0.753   9.689  19.919  0.00  0.00    +0.000 C 
ENDBRANCH  11  16
ENDBRANCH  10  12
ENDBRANCH   1  10
BRANCH   2  19
ATOM     19  S   UNL     1       5.598   5.702  16.923  0.00  0.00    +0.000 S 
BRANCH  19  20
ATOM     20  C   UNL     1       6.565   4.311  16.258  0.00  0.00    +0.000 C 
BRANCH  20  21
ATOM     21  C   UNL     1       6.761   4.488  14.760  0.00  0.00    +0.000 C 
ATOM     22  O   UNL     1       7.455   5.392  14.295  0.00  0.00    +0.000 OA
ATOM     23  N   UNL     1       6.105   3.553  13.974  0.00  0.00    +0.000 N 
ATOM     24  H   UNL     1       5.637   2.774  14.429  0.00  0.00    +0.000 HD
BRANCH  23  25
ATOM     25  C   UNL     1       6.187   3.553  12.544  0.00  0.00    +0.000 C 
ATOM     26  C   UNL     1       6.033   2.277  11.759  0.00  0.00    +0.000 C 
ATOM     27  C   UNL     1       4.962   3.325  11.702  0.00  0.00    +0.000 C 
ENDBRANCH  23  25
ENDBRANCH  20  21
ENDBRANCH  19  20
ENDBRANCH   2  19
TORSDOF 7
ENDMDL
MODEL 2
REMARK VINA RESULT:      -7.4      1.480      1.903
REMARK  Name = 
REMARK  10 active torsions:
REMARK  status: ('A' for Active; 'I' for Inactive)
REMARK    1  A    between atoms: C_1  and  C_2
REMARK    2  A    between atoms: C_2  and  C_3
REMARK    3  A    between atoms: C_2  and  C_4
REMARK    4  A    between atoms: C_2  and  N_5
REMARK    5  A    between atoms: C_6  and  C_8
REMARK    6  A    between atoms: C_8  and  N_9
REMARK    7  A    between atoms: C_10  and  S_11
REMARK    8  A    between atoms: S_11  and  C_12
REMARK    9  A    between atoms: C_12  and  C_13
REMARK   10  A    between atoms: N_15  and  C_16
REMARK                            x       y       z     vdW  Elec       q    Type
REMARK                         _______ _______ _______ _____ _____    ______ ____
ROOT
ATOM      1  N   UNL     1       3.380   5.136  18.600  0.00  0.00    +0.000 N 
ATOM      2  C   UNL     1       4.701   4.763  18.607  0.00  0.00    +0.000 A 
ATOM      3  N   UNL     1       4.912   3.727  19.385  0.00  0.00    +0.000 NA
ATOM      4  C   UNL     1       3.692   3.446  19.952  0.00  0.00    +0.000 A 
ATOM      5  C   UNL     1       3.340   2.437  20.861  0.00  0.00    +0.000 A 
ATOM      6  C   UNL     1       2.023   2.383  21.336  0.00  0.00    +0.000 A 
ATOM      7  C   UNL     1       1.072   3.311  20.911  0.00  0.00    +0.000 A 
ATOM      8  C   UNL     1       1.397   4.306  19.980  0.00  0.00    +0.000 A 
ATOM      9  C   UNL     1       2.719   4.342  19.516  0.00  0.00    +0.000 A 
ENDROOT
BRANCH   1  10
ATOM     10  C   UNL     1       2.741   6.147  17.780  0.00  0.00    +0.000 C 
BRANCH  10  12
ATOM     11  N   UNL     1       1.579   8.297  17.897  0.00  0.00    +0.000 N 
ATOM     12  C   UNL     1       2.342   7.366  18.583  0.00  0.00    +0.000 C 
ATOM     13  O   UNL     1       2.716   7.517  19.745  0.00  0.00    +0.000 OA
ATOM     14  H   UNL     1       1.268   8.059  16.961  0.00  0.00    +0.000 HD
BRANCH  11  16
ATOM     15  C   UNL     1       2.066  10.716  18.137  0.00  0.00    +0.000 C 
ATOM     16  C   UNL     1       1.092   9.571  18.454  0.00  0.00    +0.000 C 
ATOM     17  C   UNL     1       0.869   9.467  19.971  0.00  0.00    +0.000 C 
ATOM     18  C   UNL     1      -0.261   9.898  17.793  0.00  0.00    +0.000 C 
ENDBRANCH  11  16
ENDBRANCH  10  12
ENDBRANCH   1  10
BRANCH   2  19
ATOM     19  S   UNL     1       5.934   5.569  17.688  0.00  0.00    +0.000 S 
BRANCH  19  20
ATOM     20  C   UNL     1       6.478   4.225  16.588  0.00  0.00    +0.000 C 
BRANCH  20  21
ATOM     21  C   UNL     1       6.317   4.649  15.135  0.00  0.00    +0.000 C 
ATOM     22  O   UNL     1       6.174   5.828  14.812  0.00  0.00    +0.000 OA
ATOM     23  N   UNL     1       6.351   3.608  14.219  0.00  0.00    +0.000 N 
ATOM     24  H   UNL     1       6.577   2.674  14.550  0.00  0.00    +0.000 HD
BRANCH  23  25
ATOM     25  C   UNL     1       6.232   3.818  12.808  0.00  0.00    +0.000 C 
ATOM     26  C   UNL     1       6.419   2.683  11.837  0.00  0.00    +0.000 C 
ATOM     27  C   UNL     1       5.056   3.273  12.044  0.00  0.00    +0.000 C 
ENDBRANCH  23  25
ENDBRANCH  20  21
ENDBRANCH  19  20
ENDBRANCH   2  19
TORSDOF 7
ENDMDL
MODEL 3
REMARK VINA RESULT:      -7.4      1.618      1.987
REMARK  Name = 
REMARK  10 active torsions:
REMARK  status: ('A' for Active; 'I' for Inactive)
REMARK    1  A    between atoms: C_1  and  C_2
REMARK    2  A    between atoms: C_2  and  C_3
REMARK    3  A    between atoms: C_2  and  C_4
REMARK    4  A    between atoms: C_2  and  N_5
REMARK    5  A    between atoms: C_6  and  C_8
REMARK    6  A    between atoms: C_8  and  N_9
REMARK    7  A    between atoms: C_10  and  S_11
REMARK    8  A    between atoms: S_11  and  C_12
REMARK    9  A    between atoms: C_12  and  C_13
REMARK   10  A    between atoms: N_15  and  C_16
REMARK                            x       y       z     vdW  Elec       q    Type
REMARK                         _______ _______ _______ _____ _____    ______ ____
ROOT
ATOM      1  N   UNL     1       2.963   5.937  18.803  0.00  0.00    +0.000 N 
ATOM      2  C   UNL     1       3.807   5.729  17.740  0.00  0.00    +0.000 A 
ATOM      3  N   UNL     1       3.618   4.553  17.188  0.00  0.00    +0.000 NA
ATOM      4  C   UNL     1       2.652   3.945  17.953  0.00  0.00    +0.000 A 
ATOM      5  C   UNL     1       2.067   2.677  17.814  0.00  0.00    +0.000 A 
ATOM      6  C   UNL     1       1.125   2.259  18.762  0.00  0.00    +0.000 A 
ATOM      7  C   UNL     1       0.764   3.088  19.825  0.00  0.00    +0.000 A 
ATOM      8  C   UNL     1       1.313   4.368  19.963  0.00  0.00    +0.000 A 
ATOM      9  C   UNL     1       2.254   4.769  19.004  0.00  0.00    +0.000 A 
ENDROOT
BRANCH   1  10
ATOM     10  C   UNL     1       2.788   7.146  19.582  0.00  0.00    +0.000 C 
BRANCH  10  12
ATOM     11  N   UNL     1       1.332   9.111  19.646  0.00  0.00    +0.000 N 
ATOM     12  C   UNL     1       1.987   8.195  18.841  0.00  0.00    +0.000 C 
ATOM     13  O   UNL     1       1.906   8.186  17.613  0.00  0.00    +0.000 OA
ATOM     14  H   UNL     1       1.507   9.076  20.645  0.00  0.00    +0.000 HD
BRANCH  11  16
ATOM     15  C   UNL     1       1.323  11.386  18.662  0.00  0.00    +0.000 C 
ATOM     16  C   UNL     1       0.474  10.206  19.161  0.00  0.00    +0.000 C 
ATOM     17  C   UNL     1      -0.499  10.677  20.254  0.00  0.00    +0.000 C 
ATOM     18  C   UNL     1      -0.356   9.679  17.975  0.00  0.00    +0.000 C 
ENDBRANCH  11  16
ENDBRANCH  10  12
ENDBRANCH   1  10
BRANCH   2  19
ATOM     19  S   UNL     1       4.975   6.894  17.197  0.00  0.00    +0.000 S 
BRANCH  19  20
ATOM     20  C   UNL     1       6.506   6.194  17.889  0.00  0.00    +0.000 C 
BRANCH  20  21
ATOM     21  C   UNL     1       7.107   5.197  16.908  0.00  0.00    +0.000 C 
ATOM     22  O   UNL     1       7.974   4.390  17.247  0.00  0.00    +0.000 OA
ATOM     23  N   UNL     1       6.598   5.269  15.620  0.00  0.00    +0.000 N 
ATOM     24  H   UNL     1       5.811   5.887  15.441  0.00  0.00    +0.000 HD
BRANCH  23  25
ATOM     25  C   UNL     1       7.031   4.399  14.569  0.00  0.00    +0.000 C 
ATOM     26  C   UNL     1       6.063   3.892  13.534  0.00  0.00    +0.000 C 
ATOM     27  C   UNL     1       7.115   4.889  13.150  0.00  0.00    +0.000 C 
ENDBRANCH  23  25
ENDBRANCH  20  21
ENDBRANCH  19  20
ENDBRANCH   2  19
TORSDOF 7
ENDMDL
MODEL 4
REMARK VINA RESULT:      -7.3      0.896      1.149
REMARK  Name = 
REMARK  10 active torsions:
REMARK  status: ('A' for Active; 'I' for Inactive)
REMARK    1  A    between atoms: C_1  and  C_2
REMARK    2  A    between atoms: C_2  and  C_3
REMARK    3  A    between atoms: C_2  and  C_4
REMARK    4  A    between atoms: C_2  and  N_5
REMARK    5  A    between atoms: C_6  and  C_8
REMARK    6  A    between atoms: C_8  and  N_9
REMARK    7  A    between atoms: C_10  and  S_11
REMARK    8  A    between atoms: S_11  and  C_12
REMARK    9  A    between atoms: C_12  and  C_13
REMARK   10  A    between atoms: N_15  and  C_16
REMARK                            x       y       z     vdW  Elec       q    Type
REMARK                         _______ _______ _______ _____ _____    ______ ____
ROOT
ATOM      1  N   UNL     1       3.267   5.686  18.461  0.00  0.00    +0.000 N 
ATOM      2  C   UNL     1       3.920   5.216  17.348  0.00  0.00    +0.000 A 
ATOM      3  N   UNL     1       3.499   4.022  17.003  0.00  0.00    +0.000 NA
ATOM      4  C   UNL     1       2.574   3.674  17.957  0.00  0.00    +0.000 A 
ATOM      5  C   UNL     1       1.809   2.504  18.076  0.00  0.00    +0.000 A 
ATOM      6  C   UNL     1       0.958   2.361  19.179  0.00  0.00    +0.000 A 
ATOM      7  C   UNL     1       0.864   3.365  20.143  0.00  0.00    +0.000 A 
ATOM      8  C   UNL     1       1.595   4.553  20.025  0.00  0.00    +0.000 A 
ATOM      9  C   UNL     1       2.440   4.677  18.914  0.00  0.00    +0.000 A 
ENDROOT
BRANCH   1  10
ATOM     10  C   UNL     1       3.367   6.998  19.069  0.00  0.00    +0.000 C 
BRANCH  10  12
ATOM     11  N   UNL     1       1.789   8.790  19.601  0.00  0.00    +0.000 N 
ATOM     12  C   UNL     1       2.252   7.921  18.628  0.00  0.00    +0.000 C 
ATOM     13  O   UNL     1       1.778   7.854  17.494  0.00  0.00    +0.000 OA
ATOM     14  H   UNL     1       2.281   8.815  20.488  0.00  0.00    +0.000 HD
BRANCH  11  16
ATOM     15  C   UNL     1      -0.417   9.534  20.454  0.00  0.00    +0.000 C 
ATOM     16  C   UNL     1       0.697   9.763  19.421  0.00  0.00    +0.000 C 
ATOM     17  C   UNL     1       0.123   9.698  17.996  0.00  0.00    +0.000 C 
ATOM     18  C   UNL     1       1.271  11.176  19.641  0.00  0.00    +0.000 C 
ENDBRANCH  11  16
ENDBRANCH  10  12
ENDBRANCH   1  10
BRANCH   2  19
ATOM     19  S   UNL     1       5.150   6.108  16.506  0.00  0.00    +0.000 S 
BRANCH  19  20
ATOM     20  C   UNL     1       6.372   4.796  16.192  0.00  0.00    +0.000 C 
BRANCH  20  21
ATOM     21  C   UNL     1       6.683   4.726  14.704  0.00  0.00    +0.000 C 
ATOM     22  O   UNL     1       7.633   5.332  14.207  0.00  0.00    +0.000 OA
ATOM     23  N   UNL     1       5.820   3.929  13.967  0.00  0.00    +0.000 N 
ATOM     24  H   UNL     1       5.124   3.377  14.461  0.00  0.00    +0.000 HD
BRANCH  23  25
ATOM     25  C   UNL     1       5.968   3.731  12.557  0.00  0.00    +0.000 C 
ATOM     26  C   UNL     1       5.818   2.362  11.946  0.00  0.00    +0.000 C 
ATOM     27  C   UNL     1       4.777   3.412  11.695  0.00  0.00    +0.000 C 
ENDBRANCH  23  25
ENDBRANCH  20  21
ENDBRANCH  19  20
ENDBRANCH   2  19
TORSDOF 7
ENDMDL
MODEL 5
REMARK VINA RESULT:      -7.3      1.615      2.016
REMARK  Name = 
REMARK  10 active torsions:
REMARK  status: ('A' for Active; 'I' for Inactive)
REMARK    1  A    between atoms: C_1  and  C_2
REMARK    2  A    between atoms: C_2  and  C_3
REMARK    3  A    between atoms: C_2  and  C_4
REMARK    4  A    between atoms: C_2  and  N_5
REMARK    5  A    between atoms: C_6  and  C_8
REMARK    6  A    between atoms: C_8  and  N_9
REMARK    7  A    between atoms: C_10  and  S_11
REMARK    8  A    between atoms: S_11  and  C_12
REMARK    9  A    between atoms: C_12  and  C_13
REMARK   10  A    between atoms: N_15  and  C_16
REMARK                            x       y       z     vdW  Elec       q    Type
REMARK                         _______ _______ _______ _____ _____    ______ ____
ROOT
ATOM      1  N   UNL     1       3.861   5.395  18.162  0.00  0.00    +0.000 N 
ATOM      2  C   UNL     1       5.103   4.996  18.593  0.00  0.00    +0.000 A 
ATOM      3  N   UNL     1       5.104   3.745  18.989  0.00  0.00    +0.000 NA
ATOM      4  C   UNL     1       3.802   3.324  18.865  0.00  0.00    +0.000 A 
ATOM      5  C   UNL     1       3.237   2.071  19.145  0.00  0.00    +0.000 A 
ATOM      6  C   UNL     1       1.857   1.899  18.979  0.00  0.00    +0.000 A 
ATOM      7  C   UNL     1       1.054   2.951  18.537  0.00  0.00    +0.000 A 
ATOM      8  C   UNL     1       1.604   4.199  18.222  0.00  0.00    +0.000 A 
ATOM      9  C   UNL     1       2.987   4.351  18.393  0.00  0.00    +0.000 A 
ENDROOT
BRANCH   1  10
ATOM     10  C   UNL     1       3.490   6.653  17.545  0.00  0.00    +0.000 C 
BRANCH  10  12
ATOM     11  N   UNL     1       2.050   8.605  17.864  0.00  0.00    +0.000 N 
ATOM     12  C   UNL     1       2.668   7.524  18.471  0.00  0.00    +0.000 C 
ATOM     13  O   UNL     1       2.605   7.292  19.677  0.00  0.00    +0.000 OA
ATOM     14  H   UNL     1       2.109   8.680  16.854  0.00  0.00    +0.000 HD
BRANCH  11  16
ATOM     15  C   UNL     1       1.839  11.007  18.439  0.00  0.00    +0.000 C 
ATOM     16  C   UNL     1       1.220   9.606  18.556  0.00  0.00    +0.000 C 
ATOM     17  C   UNL     1       1.019   9.237  20.035  0.00  0.00    +0.000 C 
ATOM     18  C   UNL     1      -0.164   9.636  17.878  0.00  0.00    +0.000 C 
ENDBRANCH  11  16
ENDBRANCH  10  12
ENDBRANCH   1  10
BRANCH   2  19
ATOM     19  S   UNL     1       6.496   6.033  18.602  0.00  0.00    +0.000 S 
BRANCH  19  20
ATOM     20  C   UNL     1       6.645   6.424  16.831  0.00  0.00    +0.000 C 
BRANCH  20  21
ATOM     21  C   UNL     1       6.940   5.155  16.045  0.00  0.00    +0.000 C 
ATOM     22  O   UNL     1       7.794   4.346  16.408  0.00  0.00    +0.000 OA
ATOM     23  N   UNL     1       6.172   4.988  14.902  0.00  0.00    +0.000 N 
ATOM     24  H   UNL     1       5.416   5.642  14.722  0.00  0.00    +0.000 HD
BRANCH  23  25
ATOM     25  C   UNL     1       6.299   3.846  14.048  0.00  0.00    +0.000 C 
ATOM     26  C   UNL     1       5.320   3.601  12.930  0.00  0.00    +0.000 C 
ATOM     27  C   UNL     1       6.731   4.000  12.615  0.00  0.00    +0.000 C 
ENDBRANCH  23  25
ENDBRANCH  20  21
ENDBRANCH  19  20
ENDBRANCH   2  19
TORSDOF 7
ENDMDL
MODEL 6
REMARK VINA RESULT:      -7.3      1.244      1.731
REMARK  Name = 
REMARK  10 active torsions:
REMARK  status: ('A' for Active; 'I' for Inactive)
REMARK    1  A    between atoms: C_1  and  C_2
REMARK    2  A    between atoms: C_2  and  C_3
REMARK    3  A    between atoms: C_2  and  C_4
REMARK    4  A    between atoms: C_2  and  N_5
REMARK    5  A    between atoms: C_6  and  C_8
REMARK    6  A    between atoms: C_8  and  N_9
REMARK    7  A    between atoms: C_10  and  S_11
REMARK    8  A    between atoms: S_11  and  C_12
REMARK    9  A    between atoms: C_12  and  C_13
REMARK   10  A    between atoms: N_15  and  C_16
REMARK                            x       y       z     vdW  Elec       q    Type
REMARK                         _______ _______ _______ _____ _____    ______ ____
ROOT
ATOM      1  N   UNL     1       3.275   5.468  18.929  0.00  0.00    +0.000 N 
ATOM      2  C   UNL     1       4.270   5.093  18.060  0.00  0.00    +0.000 A 
ATOM      3  N   UNL     1       4.036   3.916  17.528  0.00  0.00    +0.000 NA
ATOM      4  C   UNL     1       2.872   3.479  18.113  0.00  0.00    +0.000 A 
ATOM      5  C   UNL     1       2.163   2.285  17.911  0.00  0.00    +0.000 A 
ATOM      6  C   UNL     1       1.012   2.045  18.672  0.00  0.00    +0.000 A 
ATOM      7  C   UNL     1       0.569   2.977  19.612  0.00  0.00    +0.000 A 
ATOM      8  C   UNL     1       1.245   4.188  19.804  0.00  0.00    +0.000 A 
ATOM      9  C   UNL     1       2.394   4.409  19.033  0.00  0.00    +0.000 A 
ENDROOT
BRANCH   1  10
ATOM     10  C   UNL     1       3.117   6.736  19.612  0.00  0.00    +0.000 C 
BRANCH  10  12
ATOM     11  N   UNL     1       1.654   8.689  19.437  0.00  0.00    +0.000 N 
ATOM     12  C   UNL     1       2.426   7.769  18.748  0.00  0.00    +0.000 C 
ATOM     13  O   UNL     1       2.526   7.747  17.522  0.00  0.00    +0.000 OA
ATOM     14  H   UNL     1       1.681   8.667  20.451  0.00  0.00    +0.000 HD
BRANCH  11  16
ATOM     15  C   UNL     1      -0.022   9.228  17.691  0.00  0.00    +0.000 C 
ATOM     16  C   UNL     1       0.869   9.772  18.818  0.00  0.00    +0.000 C 
ATOM     17  C   UNL     1       1.783  10.886  18.282  0.00  0.00    +0.000 C 
ATOM     18  C   UNL     1      -0.044  10.383  19.899  0.00  0.00    +0.000 C 
ENDBRANCH  11  16
ENDBRANCH  10  12
ENDBRANCH   1  10
BRANCH   2  19
ATOM     19  S   UNL     1       5.662   6.071  17.711  0.00  0.00    +0.000 S 
BRANCH  19  20
ATOM     20  C   UNL     1       5.485   6.291  15.913  0.00  0.00    +0.000 C 
BRANCH  20  21
ATOM     21  C   UNL     1       6.285   5.224  15.180  0.00  0.00    +0.000 C 
ATOM     22  O   UNL     1       7.451   4.963  15.478  0.00  0.00    +0.000 OA
ATOM     23  N   UNL     1       5.596   4.575  14.166  0.00  0.00    +0.000 N 
ATOM     24  H   UNL     1       4.606   4.770  14.047  0.00  0.00    +0.000 HD
BRANCH  23  25
ATOM     25  C   UNL     1       6.183   3.532  13.381  0.00  0.00    +0.000 C 
ATOM     26  C   UNL     1       5.613   3.159  12.037  0.00  0.00    +0.000 C 
ATOM     27  C   UNL     1       6.941   3.850  12.121  0.00  0.00    +0.000 C 
ENDBRANCH  23  25
ENDBRANCH  20  21
ENDBRANCH  19  20
ENDBRANCH   2  19
TORSDOF 7
ENDMDL
MODEL 7
REMARK VINA RESULT:      -7.2      3.537      7.454
REMARK  Name = 
REMARK  10 active torsions:
REMARK  status: ('A' for Active; 'I' for Inactive)
REMARK    1  A    between atoms: C_1  and  C_2
REMARK    2  A    between atoms: C_2  and  C_3
REMARK    3  A    between atoms: C_2  and  C_4
REMARK    4  A    between atoms: C_2  and  N_5
REMARK    5  A    between atoms: C_6  and  C_8
REMARK    6  A    between atoms: C_8  and  N_9
REMARK    7  A    between atoms: C_10  and  S_11
REMARK    8  A    between atoms: S_11  and  C_12
REMARK    9  A    between atoms: C_12  and  C_13
REMARK   10  A    between atoms: N_15  and  C_16
REMARK                            x       y       z     vdW  Elec       q    Type
REMARK                         _______ _______ _______ _____ _____    ______ ____
ROOT
ATOM      1  N   UNL     1       5.305   4.466  16.947  0.00  0.00    +0.000 N 
ATOM      2  C   UNL     1       5.917   5.569  17.490  0.00  0.00    +0.000 A 
ATOM      3  N   UNL     1       5.167   6.146  18.399  0.00  0.00    +0.000 NA
ATOM      4  C   UNL     1       3.996   5.427  18.413  0.00  0.00    +0.000 A 
ATOM      5  C   UNL     1       2.847   5.605  19.197  0.00  0.00    +0.000 A 
ATOM      6  C   UNL     1       1.749   4.760  18.990  0.00  0.00    +0.000 A 
ATOM      7  C   UNL     1       1.795   3.753  18.026  0.00  0.00    +0.000 A 
ATOM      8  C   UNL     1       2.944   3.539  17.256  0.00  0.00    +0.000 A 
ATOM      9  C   UNL     1       4.032   4.395  17.478  0.00  0.00    +0.000 A 
ENDROOT
BRANCH   1  10
ATOM     10  C   UNL     1       5.857   3.507  16.010  0.00  0.00    +0.000 C 
BRANCH  10  12
ATOM     11  N   UNL     1       6.180   3.069  13.625  0.00  0.00    +0.000 N 
ATOM     12  C   UNL     1       5.732   3.971  14.575  0.00  0.00    +0.000 C 
ATOM     13  O   UNL     1       5.300   5.090  14.301  0.00  0.00    +0.000 OA
ATOM     14  H   UNL     1       6.463   2.147  13.942  0.00  0.00    +0.000 HD
BRANCH  11  16
ATOM     15  C   UNL     1       4.776   3.655  11.668  0.00  0.00    +0.000 C 
ATOM     16  C   UNL     1       6.184   3.300  12.170  0.00  0.00    +0.000 C 
ATOM     17  C   UNL     1       6.725   2.076  11.414  0.00  0.00    +0.000 C 
ATOM     18  C   UNL     1       7.113   4.494  11.875  0.00  0.00    +0.000 C 
ENDBRANCH  11  16
ENDBRANCH  10  12
ENDBRANCH   1  10
BRANCH   2  19
ATOM     19  S   UNL     1       7.498   6.118  17.025  0.00  0.00    +0.000 S 
BRANCH  19  20
ATOM     20  C   UNL     1       8.001   7.025  18.521  0.00  0.00    +0.000 C 
BRANCH  20  21
ATOM     21  C   UNL     1       8.125   8.509  18.207  0.00  0.00    +0.000 C 
ATOM     22  O   UNL     1       7.511   9.034  17.278  0.00  0.00    +0.000 OA
ATOM     23  N   UNL     1       8.975   9.211  19.049  0.00  0.00    +0.000 N 
ATOM     24  H   UNL     1       9.366   8.734  19.856  0.00  0.00    +0.000 HD
BRANCH  23  25
ATOM     25  C   UNL     1       9.204  10.618  18.915  0.00  0.00    +0.000 C 
ATOM     26  C   UNL     1      10.462  11.253  19.446  0.00  0.00    +0.000 C 
ATOM     27  C   UNL     1      10.246  11.143  17.966  0.00  0.00    +0.000 C 
ENDBRANCH  23  25
ENDBRANCH  20  21
ENDBRANCH  19  20
ENDBRANCH   2  19
TORSDOF 7
ENDMDL
MODEL 8
REMARK VINA RESULT:      -7.2      4.621      6.649
REMARK  Name = 
REMARK  10 active torsions:
REMARK  status: ('A' for Active; 'I' for Inactive)
REMARK    1  A    between atoms: C_1  and  C_2
REMARK    2  A    between atoms: C_2  and  C_3
REMARK    3  A    between atoms: C_2  and  C_4
REMARK    4  A    between atoms: C_2  and  N_5
REMARK    5  A    between atoms: C_6  and  C_8
REMARK    6  A    between atoms: C_8  and  N_9
REMARK    7  A    between atoms: C_10  and  S_11
REMARK    8  A    between atoms: S_11  and  C_12
REMARK    9  A    between atoms: C_12  and  C_13
REMARK   10  A    between atoms: N_15  and  C_16
REMARK                            x       y       z     vdW  Elec       q    Type
REMARK                         _______ _______ _______ _____ _____    ______ ____
ROOT
ATOM      1  N   UNL     1       6.506   5.479  17.904  0.00  0.00    +0.000 N 
ATOM      2  C   UNL     1       7.426   6.449  17.592  0.00  0.00    +0.000 A 
ATOM      3  N   UNL     1       7.664   6.501  16.303  0.00  0.00    +0.000 NA
ATOM      4  C   UNL     1       6.912   5.490  15.755  0.00  0.00    +0.000 A 
ATOM      5  C   UNL     1       6.784   5.096  14.414  0.00  0.00    +0.000 A 
ATOM      6  C   UNL     1       5.982   3.990  14.107  0.00  0.00    +0.000 A 
ATOM      7  C   UNL     1       5.313   3.292  15.113  0.00  0.00    +0.000 A 
ATOM      8  C   UNL     1       5.402   3.689  16.453  0.00  0.00    +0.000 A 
ATOM      9  C   UNL     1       6.209   4.799  16.739  0.00  0.00    +0.000 A 
ENDROOT
BRANCH   1  10
ATOM     10  C   UNL     1       5.902   5.200  19.192  0.00  0.00    +0.000 C 
BRANCH  10  12
ATOM     11  N   UNL     1       3.700   4.228  19.629  0.00  0.00    +0.000 N 
ATOM     12  C   UNL     1       4.394   5.329  19.157  0.00  0.00    +0.000 C 
ATOM     13  O   UNL     1       3.849   6.332  18.699  0.00  0.00    +0.000 OA
ATOM     14  H   UNL     1       4.234   3.472  20.044  0.00  0.00    +0.000 HD
BRANCH  11  16
ATOM     15  C   UNL     1       1.813   2.788  20.347  0.00  0.00    +0.000 C 
ATOM     16  C   UNL     1       2.232   4.105  19.675  0.00  0.00    +0.000 C 
ATOM     17  C   UNL     1       1.622   4.200  18.267  0.00  0.00    +0.000 C 
ATOM     18  C   UNL     1       1.677   5.270  20.517  0.00  0.00    +0.000 C 
ENDBRANCH  11  16
ENDBRANCH  10  12
ENDBRANCH   1  10
BRANCH   2  19
ATOM     19  S   UNL     1       8.174   7.480  18.773  0.00  0.00    +0.000 S 
BRANCH  19  20
ATOM     20  C   UNL     1       8.132   9.081  17.908  0.00  0.00    +0.000 C 
BRANCH  20  21
ATOM     21  C   UNL     1       8.991  10.093  18.652  0.00  0.00    +0.000 C 
ATOM     22  O   UNL     1       9.092  10.086  19.879  0.00  0.00    +0.000 OA
ATOM     23  N   UNL     1       9.646  11.007  17.840  0.00  0.00    +0.000 N 
ATOM     24  H   UNL     1       9.599  10.887  16.833  0.00  0.00    +0.000 HD
BRANCH  23  25
ATOM     25  C   UNL     1      10.510  12.022  18.363  0.00  0.00    +0.000 C 
ATOM     26  C   UNL     1      11.965  11.739  18.631  0.00  0.00    +0.000 C 
ATOM     27  C   UNL     1      11.574  12.646  17.502  0.00  0.00    +0.000 C 
ENDBRANCH  23  25
ENDBRANCH  20  21
ENDBRANCH  19  20
ENDBRANCH   2  19
TORSDOF 7
ENDMDL
MODEL 9
REMARK VINA RESULT:      -7.1      2.723      6.482
REMARK  Name = 
REMARK  10 active torsions:
REMARK  status: ('A' for Active; 'I' for Inactive)
REMARK    1  A    between atoms: C_1  and  C_2
REMARK    2  A    between atoms: C_2  and  C_3
REMARK    3  A    between atoms: C_2  and  C_4
REMARK    4  A    between atoms: C_2  and  N_5
REMARK    5  A    between atoms: C_6  and  C_8
REMARK    6  A    between atoms: C_8  and  N_9
REMARK    7  A    between atoms: C_10  and  S_11
REMARK    8  A    between atoms: S_11  and  C_12
REMARK    9  A    between atoms: C_12  and  C_13
REMARK   10  A    between atoms: N_15  and  C_16
REMARK                            x       y       z     vdW  Elec       q    Type
REMARK                         _______ _______ _______ _____ _____    ______ ____
ROOT
ATOM      1  N   UNL     1       2.415   6.629  19.056  0.00  0.00    +0.000 N 
ATOM      2  C   UNL     1       1.966   6.293  20.310  0.00  0.00    +0.000 A 
ATOM      3  N   UNL     1       1.341   7.291  20.888  0.00  0.00    +0.000 NA
ATOM      4  C   UNL     1       1.432   8.338  20.003  0.00  0.00    +0.000 A 
ATOM      5  C   UNL     1       0.936   9.646  20.110  0.00  0.00    +0.000 A 
ATOM      6  C   UNL     1       1.203  10.558  19.080  0.00  0.00    +0.000 A 
ATOM      7  C   UNL     1       1.944  10.175  17.962  0.00  0.00    +0.000 A 
ATOM      8  C   UNL     1       2.420   8.866  17.822  0.00  0.00    +0.000 A 
ATOM      9  C   UNL     1       2.142   7.969  18.863  0.00  0.00    +0.000 A 
ENDROOT
BRANCH   1  10
ATOM     10  C   UNL     1       3.037   5.768  18.069  0.00  0.00    +0.000 C 
BRANCH  10  12
ATOM     11  N   UNL     1       5.229   5.681  16.986  0.00  0.00    +0.000 N 
ATOM     12  C   UNL     1       4.546   5.759  18.188  0.00  0.00    +0.000 C 
ATOM     13  O   UNL     1       5.100   5.776  19.286  0.00  0.00    +0.000 OA
ATOM     14  H   UNL     1       4.689   5.733  16.129  0.00  0.00    +0.000 HD
BRANCH  11  16
ATOM     15  C   UNL     1       7.292   4.507  17.703  0.00  0.00    +0.000 C 
ATOM     16  C   UNL     1       6.695   5.633  16.844  0.00  0.00    +0.000 C 
ATOM     17  C   UNL     1       7.335   6.981  17.215  0.00  0.00    +0.000 C 
ATOM     18  C   UNL     1       7.026   5.337  15.369  0.00  0.00    +0.000 C 
ENDBRANCH  11  16
ENDBRANCH  10  12
ENDBRANCH   1  10
BRANCH   2  19
ATOM     19  S   UNL     1       2.199   4.729  21.028  0.00  0.00    +0.000 S 
BRANCH  19  20
ATOM     20  C   UNL     1       0.695   3.868  20.471  0.00  0.00    +0.000 C 
BRANCH  20  21
ATOM     21  C   UNL     1       1.037   2.912  19.337  0.00  0.00    +0.000 C 
ATOM     22  O   UNL     1       0.172   2.429  18.607  0.00  0.00    +0.000 OA
ATOM     23  N   UNL     1       2.390   2.639  19.197  0.00  0.00    +0.000 N 
ATOM     24  H   UNL     1       3.054   3.154  19.768  0.00  0.00    +0.000 HD
BRANCH  23  25
ATOM     25  C   UNL     1       2.900   1.775  18.175  0.00  0.00    +0.000 C 
ATOM     26  C   UNL     1       4.094   2.173  17.348  0.00  0.00    +0.000 C 
ATOM     27  C   UNL     1       4.214   1.065  18.352  0.00  0.00    +0.000 C 
ENDBRANCH  23  25
ENDBRANCH  20  21
ENDBRANCH  19  20
ENDBRANCH   2  19
TORSDOF 7
ENDMDL
