MODEL 1
REMARK VINA RESULT:      -8.4      0.000      0.000
REMARK  Name = 
REMARK  5 active torsions:
REMARK  status: ('A' for Active; 'I' for Inactive)
REMARK    1  A    between atoms: C_1  and  C_2
REMARK    2  A    between atoms: C_2  and  O_3
REMARK    3  A    between atoms: O_3  and  C_4
REMARK    4  A    between atoms: C_9  and  C_10
REMARK    5  A    between atoms: C_19  and  C_20
REMARK                            x       y       z     vdW  Elec       q    Type
REMARK                         _______ _______ _______ _____ _____    ______ ____
ROOT
ATOM      1  C   UNL     1       4.461   4.214  16.938  0.00  0.00    +0.000 C 
ATOM      2  O   UNL     1       4.328   3.095  17.448  0.00  0.00    +0.000 OA
ATOM      3  N   UNL     1       3.684   5.285  17.344  0.00  0.00    +0.000 N 
ATOM      4  C   UNL     1       2.656   5.035  18.377  0.00  0.00    +0.000 C 
ATOM      5  C   UNL     1       2.786   6.034  19.541  0.00  0.00    +0.000 C 
ATOM      6  N   UNL     1       2.688   7.379  18.971  0.00  0.00    +0.000 N 
ATOM      7  C   UNL     1       1.855   8.304  19.543  0.00  0.00    +0.000 A 
ATOM      8  C   UNL     1       1.300   9.325  18.786  0.00  0.00    +0.000 A 
ATOM      9  C   UNL     1       0.397  10.214  19.356  0.00  0.00    +0.000 A 
ATOM     10  C   UNL     1       0.062  10.080  20.694  0.00  0.00    +0.000 A 
ATOM     11  N   UNL     1       0.615   9.090  21.423  0.00  0.00    +0.000 NA
ATOM     12  N   UNL     1       1.494   8.197  20.838  0.00  0.00    +0.000 NA
ATOM     13  C   UNL     1       3.710   7.718  17.981  0.00  0.00    +0.000 C 
ATOM     14  C   UNL     1       3.714   6.674  16.848  0.00  0.00    +0.000 C 
ENDROOT
BRANCH  10  15
ATOM     15  C   UNL     1      -0.873  10.982  21.381  0.00  0.00    +0.000 A 
ATOM     16  C   UNL     1      -1.121  10.873  22.764  0.00  0.00    +0.000 A 
ATOM     17  C   UNL     1      -2.052  11.697  23.402  0.00  0.00    +0.000 A 
ATOM     18  C   UNL     1      -2.743  12.656  22.669  0.00  0.00    +0.000 A 
ATOM     19 CL   UNL     1      -3.904  13.654  23.450  0.00  0.00    +0.000 Cl
ATOM     20  C   UNL     1      -2.500  12.805  21.306  0.00  0.00    +0.000 A 
ATOM     21  C   UNL     1      -1.570  11.978  20.670  0.00  0.00    +0.000 A 
ENDBRANCH  10  15
BRANCH   1  27
ATOM     22  C   UNL     1       6.752   4.990  16.116  0.00  0.00    +0.000 A 
ATOM     23  N   UNL     1       7.675   5.142  15.129  0.00  0.00    +0.000 NA
ATOM     24  C   UNL     1       7.356   4.684  13.900  0.00  0.00    +0.000 A 
ATOM     25  C   UNL     1       6.162   4.056  13.606  0.00  0.00    +0.000 A 
ATOM     26  C   UNL     1       5.257   3.862  14.646  0.00  0.00    +0.000 A 
ATOM     27  C   UNL     1       5.551   4.317  15.939  0.00  0.00    +0.000 A 
BRANCH  22  28
ATOM     28  O   UNL     1       7.040   5.540  17.344  0.00  0.00    +0.000 OA
BRANCH  28  30
ATOM     29  C   UNL     1       8.079   7.309  18.536  0.00  0.00    +0.000 C 
ATOM     30  C   UNL     1       7.292   6.942  17.294  0.00  0.00    +0.000 C 
ENDBRANCH  28  30
ENDBRANCH  22  28
ENDBRANCH   1  27
TORSDOF 4
ENDMDL
MODEL 2
REMARK VINA RESULT:      -8.3      0.609      1.070
REMARK  Name = 
REMARK  5 active torsions:
REMARK  status: ('A' for Active; 'I' for Inactive)
REMARK    1  A    between atoms: C_1  and  C_2
REMARK    2  A    between atoms: C_2  and  O_3
REMARK    3  A    between atoms: O_3  and  C_4
REMARK    4  A    between atoms: C_9  and  C_10
REMARK    5  A    between atoms: C_19  and  C_20
REMARK                            x       y       z     vdW  Elec       q    Type
REMARK                         _______ _______ _______ _____ _____    ______ ____
ROOT
ATOM      1  C   UNL     1       4.263   4.089  17.226  0.00  0.00    +0.000 C 
ATOM      2  O   UNL     1       4.066   2.977  17.730  0.00  0.00    +0.000 OA
ATOM      3  N   UNL     1       3.508   5.189  17.595  0.00  0.00    +0.000 N 
ATOM      4  C   UNL     1       2.428   4.980  18.582  0.00  0.00    +0.000 C 
ATOM      5  C   UNL     1       2.542   5.977  19.749  0.00  0.00    +0.000 C 
ATOM      6  N   UNL     1       2.520   7.323  19.174  0.00  0.00    +0.000 N 
ATOM      7  C   UNL     1       1.696   8.279  19.708  0.00  0.00    +0.000 A 
ATOM      8  C   UNL     1       1.213   9.318  18.925  0.00  0.00    +0.000 A 
ATOM      9  C   UNL     1       0.320  10.241  19.454  0.00  0.00    +0.000 A 
ATOM     10  C   UNL     1      -0.079  10.124  20.776  0.00  0.00    +0.000 A 
ATOM     11  N   UNL     1       0.404   9.116  21.530  0.00  0.00    +0.000 NA
ATOM     12  N   UNL     1       1.275   8.189  20.985  0.00  0.00    +0.000 NA
ATOM     13  C   UNL     1       3.596   7.621  18.230  0.00  0.00    +0.000 C 
ATOM     14  C   UNL     1       3.612   6.574  17.100  0.00  0.00    +0.000 C 
ENDROOT
BRANCH  10  15
ATOM     15  C   UNL     1      -1.009  11.062  21.419  0.00  0.00    +0.000 A 
ATOM     16  C   UNL     1      -1.677  12.060  20.682  0.00  0.00    +0.000 A 
ATOM     17  C   UNL     1      -2.519  12.984  21.308  0.00  0.00    +0.000 A 
ATOM     18  C   UNL     1      -2.718  12.917  22.683  0.00  0.00    +0.000 A 
ATOM     19 CL   UNL     1      -3.734  14.068  23.455  0.00  0.00    +0.000 Cl
ATOM     20  C   UNL     1      -2.092  11.926  23.434  0.00  0.00    +0.000 A 
ATOM     21  C   UNL     1      -1.250  11.004  22.805  0.00  0.00    +0.000 A 
ENDBRANCH  10  15
BRANCH   1  27
ATOM     22  C   UNL     1       6.723   4.396  16.611  0.00  0.00    +0.000 A 
ATOM     23  N   UNL     1       7.711   4.544  15.688  0.00  0.00    +0.000 NA
ATOM     24  C   UNL     1       7.356   4.532  14.386  0.00  0.00    +0.000 A 
ATOM     25  C   UNL     1       6.058   4.355  13.950  0.00  0.00    +0.000 A 
ATOM     26  C   UNL     1       5.072   4.150  14.912  0.00  0.00    +0.000 A 
ATOM     27  C   UNL     1       5.399   4.149  16.276  0.00  0.00    +0.000 A 
BRANCH  22  28
ATOM     28  O   UNL     1       7.073   4.503  17.937  0.00  0.00    +0.000 OA
BRANCH  28  30
ATOM     29  C   UNL     1       8.014   5.773  19.706  0.00  0.00    +0.000 C 
ATOM     30  C   UNL     1       7.350   5.840  18.346  0.00  0.00    +0.000 C 
ENDBRANCH  28  30
ENDBRANCH  22  28
ENDBRANCH   1  27
TORSDOF 4
ENDMDL
MODEL 3
REMARK VINA RESULT:      -8.0      1.012      1.116
REMARK  Name = 
REMARK  5 active torsions:
REMARK  status: ('A' for Active; 'I' for Inactive)
REMARK    1  A    between atoms: C_1  and  C_2
REMARK    2  A    between atoms: C_2  and  O_3
REMARK    3  A    between atoms: O_3  and  C_4
REMARK    4  A    between atoms: C_9  and  C_10
REMARK    5  A    between atoms: C_19  and  C_20
REMARK                            x       y       z     vdW  Elec       q    Type
REMARK                         _______ _______ _______ _____ _____    ______ ____
ROOT
ATOM      1  C   UNL     1       4.108   4.756  17.653  0.00  0.00    +0.000 C 
ATOM      2  O   UNL     1       4.035   3.718  18.322  0.00  0.00    +0.000 OA
ATOM      3  N   UNL     1       3.261   5.824  17.888  0.00  0.00    +0.000 N 
ATOM      4  C   UNL     1       2.233   5.666  18.939  0.00  0.00    +0.000 C 
ATOM      5  C   UNL     1       2.281   6.832  19.942  0.00  0.00    +0.000 C 
ATOM      6  N   UNL     1       2.112   8.070  19.177  0.00  0.00    +0.000 N 
ATOM      7  C   UNL     1       1.214   9.015  19.598  0.00  0.00    +0.000 A 
ATOM      8  C   UNL     1       0.612   9.876  18.693  0.00  0.00    +0.000 A 
ATOM      9  C   UNL     1      -0.353  10.782  19.117  0.00  0.00    +0.000 A 
ATOM     10  C   UNL     1      -0.703  10.827  20.457  0.00  0.00    +0.000 A 
ATOM     11  N   UNL     1      -0.104   9.992  21.330  0.00  0.00    +0.000 NA
ATOM     12  N   UNL     1       0.839   9.079  20.892  0.00  0.00    +0.000 NA
ATOM     13  C   UNL     1       3.128   8.321  18.156  0.00  0.00    +0.000 C 
ATOM     14  C   UNL     1       3.215   7.123  17.191  0.00  0.00    +0.000 C 
ENDROOT
BRANCH  10  15
ATOM     15  C   UNL     1      -1.702  11.760  20.994  0.00  0.00    +0.000 A 
ATOM     16  C   UNL     1      -1.872  11.940  22.381  0.00  0.00    +0.000 A 
ATOM     17  C   UNL     1      -2.861  12.788  22.888  0.00  0.00    +0.000 A 
ATOM     18  C   UNL     1      -3.690  13.483  22.013  0.00  0.00    +0.000 A 
ATOM     19 CL   UNL     1      -4.921  14.507  22.638  0.00  0.00    +0.000 Cl
ATOM     20  C   UNL     1      -3.530  13.345  20.638  0.00  0.00    +0.000 A 
ATOM     21  C   UNL     1      -2.540  12.495  20.134  0.00  0.00    +0.000 A 
ENDBRANCH  10  15
BRANCH   1  27
ATOM     22  C   UNL     1       6.309   5.622  16.685  0.00  0.00    +0.000 A 
ATOM     23  N   UNL     1       7.235   5.672  15.691  0.00  0.00    +0.000 NA
ATOM     24  C   UNL     1       7.015   4.919  14.593  0.00  0.00    +0.000 A 
ATOM     25  C   UNL     1       5.919   4.092  14.442  0.00  0.00    +0.000 A 
ATOM     26  C   UNL     1       5.013   4.016  15.497  0.00  0.00    +0.000 A 
ATOM     27  C   UNL     1       5.208   4.778  16.658  0.00  0.00    +0.000 A 
BRANCH  22  28
ATOM     28  O   UNL     1       6.486   6.460  17.762  0.00  0.00    +0.000 OA
BRANCH  28  30
ATOM     29  C   UNL     1       7.976   5.702  19.446  0.00  0.00    +0.000 C 
ATOM     30  C   UNL     1       7.841   6.548  18.196  0.00  0.00    +0.000 C 
ENDBRANCH  28  30
ENDBRANCH  22  28
ENDBRANCH   1  27
TORSDOF 4
ENDMDL
MODEL 4
REMARK VINA RESULT:      -8.0      5.188     11.511
REMARK  Name = 
REMARK  5 active torsions:
REMARK  status: ('A' for Active; 'I' for Inactive)
REMARK    1  A    between atoms: C_1  and  C_2
REMARK    2  A    between atoms: C_2  and  O_3
REMARK    3  A    between atoms: O_3  and  C_4
REMARK    4  A    between atoms: C_9  and  C_10
REMARK    5  A    between atoms: C_19  and  C_20
REMARK                            x       y       z     vdW  Elec       q    Type
REMARK                         _______ _______ _______ _____ _____    ______ ____
ROOT
ATOM      1  C   UNL     1      -2.508  12.988  21.494  0.00  0.00    +0.000 C 
ATOM      2  O   UNL     1      -3.182  13.594  20.651  0.00  0.00    +0.000 OA
ATOM      3  N   UNL     1      -1.684  11.936  21.133  0.00  0.00    +0.000 N 
ATOM      4  C   UNL     1      -1.671  11.531  19.712  0.00  0.00    +0.000 C 
ATOM      5  C   UNL     1      -0.234  11.474  19.165  0.00  0.00    +0.000 C 
ATOM      6  N   UNL     1       0.519  10.550  20.016  0.00  0.00    +0.000 N 
ATOM      7  C   UNL     1       1.294   9.575  19.446  0.00  0.00    +0.000 A 
ATOM      8  C   UNL     1       1.549   8.388  20.116  0.00  0.00    +0.000 A 
ATOM      9  C   UNL     1       2.274   7.374  19.502  0.00  0.00    +0.000 A 
ATOM     10  C   UNL     1       2.751   7.561  18.214  0.00  0.00    +0.000 A 
ATOM     11  N   UNL     1       2.505   8.723  17.575  0.00  0.00    +0.000 NA
ATOM     12  N   UNL     1       1.763   9.716  18.189  0.00  0.00    +0.000 NA
ATOM     13  C   UNL     1       0.597  10.919  21.429  0.00  0.00    +0.000 C 
ATOM     14  C   UNL     1      -0.819  11.116  22.002  0.00  0.00    +0.000 C 
ENDROOT
BRANCH  10  15
ATOM     15  C   UNL     1       3.535   6.549  17.494  0.00  0.00    +0.000 A 
ATOM     16  C   UNL     1       3.299   5.170  17.670  0.00  0.00    +0.000 A 
ATOM     17  C   UNL     1       4.085   4.211  17.025  0.00  0.00    +0.000 A 
ATOM     18  C   UNL     1       5.113   4.614  16.180  0.00  0.00    +0.000 A 
ATOM     19 CL   UNL     1       6.093   3.434  15.406  0.00  0.00    +0.000 Cl
ATOM     20  C   UNL     1       5.354   5.968  15.967  0.00  0.00    +0.000 A 
ATOM     21  C   UNL     1       4.568   6.926  16.615  0.00  0.00    +0.000 A 
ENDBRANCH  10  15
BRANCH   1  27
ATOM     22  C   UNL     1      -3.654  13.327  23.752  0.00  0.00    +0.000 A 
ATOM     23  N   UNL     1      -3.738  13.932  24.967  0.00  0.00    +0.000 NA
ATOM     24  C   UNL     1      -2.786  14.836  25.281  0.00  0.00    +0.000 A 
ATOM     25  C   UNL     1      -1.731  15.155  24.448  0.00  0.00    +0.000 A 
ATOM     26  C   UNL     1      -1.636  14.480  23.234  0.00  0.00    +0.000 A 
ATOM     27  C   UNL     1      -2.601  13.529  22.871  0.00  0.00    +0.000 A 
BRANCH  22  28
ATOM     28  O   UNL     1      -4.675  12.476  23.395  0.00  0.00    +0.000 OA
BRANCH  28  30
ATOM     29  C   UNL     1      -6.987  12.546  23.927  0.00  0.00    +0.000 C 
ATOM     30  C   UNL     1      -5.890  13.150  23.073  0.00  0.00    +0.000 C 
ENDBRANCH  28  30
ENDBRANCH  22  28
ENDBRANCH   1  27
TORSDOF 4
ENDMDL
MODEL 5
REMARK VINA RESULT:      -7.9      1.593      2.104
REMARK  Name = 
REMARK  5 active torsions:
REMARK  status: ('A' for Active; 'I' for Inactive)
REMARK    1  A    between atoms: C_1  and  C_2
REMARK    2  A    between atoms: C_2  and  O_3
REMARK    3  A    between atoms: O_3  and  C_4
REMARK    4  A    between atoms: C_9  and  C_10
REMARK    5  A    between atoms: C_19  and  C_20
REMARK                            x       y       z     vdW  Elec       q    Type
REMARK                         _______ _______ _______ _____ _____    ______ ____
ROOT
ATOM      1  C   UNL     1       4.243   5.256  18.295  0.00  0.00    +0.000 C 
ATOM      2  O   UNL     1       4.379   4.480  19.249  0.00  0.00    +0.000 OA
ATOM      3  N   UNL     1       3.250   6.220  18.290  0.00  0.00    +0.000 N 
ATOM      4  C   UNL     1       2.329   6.262  19.446  0.00  0.00    +0.000 C 
ATOM      5  C   UNL     1       2.251   7.680  20.041  0.00  0.00    +0.000 C 
ATOM      6  N   UNL     1       1.837   8.581  18.964  0.00  0.00    +0.000 N 
ATOM      7  C   UNL     1       0.826   9.481  19.178  0.00  0.00    +0.000 A 
ATOM      8  C   UNL     1       0.037   9.926  18.127  0.00  0.00    +0.000 A 
ATOM      9  C   UNL     1      -1.032  10.781  18.363  0.00  0.00    +0.000 A 
ATOM     10  C   UNL     1      -1.301  11.196  19.658  0.00  0.00    +0.000 A 
ATOM     11  N   UNL     1      -0.521  10.764  20.670  0.00  0.00    +0.000 NA
ATOM     12  N   UNL     1       0.527   9.895  20.426  0.00  0.00    +0.000 NA
ATOM     13  C   UNL     1       2.733   8.634  17.810  0.00  0.00    +0.000 C 
ATOM     14  C   UNL     1       2.952   7.218  17.245  0.00  0.00    +0.000 C 
ENDROOT
BRANCH  10  15
ATOM     15  C   UNL     1      -2.402  12.108  19.996  0.00  0.00    +0.000 A 
ATOM     16  C   UNL     1      -3.671  11.986  19.394  0.00  0.00    +0.000 A 
ATOM     17  C   UNL     1      -4.699  12.890  19.679  0.00  0.00    +0.000 A 
ATOM     18  C   UNL     1      -4.479  13.924  20.583  0.00  0.00    +0.000 A 
ATOM     19 CL   UNL     1      -5.736  15.048  20.914  0.00  0.00    +0.000 Cl
ATOM     20  C   UNL     1      -3.245  14.054  21.212  0.00  0.00    +0.000 A 
ATOM     21  C   UNL     1      -2.218  13.150  20.924  0.00  0.00    +0.000 A 
ENDBRANCH  10  15
BRANCH   1  27
ATOM     22  C   UNL     1       6.315   5.983  16.989  0.00  0.00    +0.000 A 
ATOM     23  N   UNL     1       7.159   5.861  15.930  0.00  0.00    +0.000 NA
ATOM     24  C   UNL     1       6.893   4.894  15.027  0.00  0.00    +0.000 A 
ATOM     25  C   UNL     1       5.832   4.017  15.138  0.00  0.00    +0.000 A 
ATOM     26  C   UNL     1       5.015   4.125  16.261  0.00  0.00    +0.000 A 
ATOM     27  C   UNL     1       5.260   5.113  17.226  0.00  0.00    +0.000 A 
BRANCH  22  28
ATOM     28  O   UNL     1       6.533   7.027  17.858  0.00  0.00    +0.000 OA
BRANCH  28  30
ATOM     29  C   UNL     1       8.122   8.788  17.934  0.00  0.00    +0.000 C 
ATOM     30  C   UNL     1       7.913   7.295  18.090  0.00  0.00    +0.000 C 
ENDBRANCH  28  30
ENDBRANCH  22  28
ENDBRANCH   1  27
TORSDOF 4
ENDMDL
MODEL 6
REMARK VINA RESULT:      -7.7      2.042      3.413
REMARK  Name = 
REMARK  5 active torsions:
REMARK  status: ('A' for Active; 'I' for Inactive)
REMARK    1  A    between atoms: C_1  and  C_2
REMARK    2  A    between atoms: C_2  and  O_3
REMARK    3  A    between atoms: O_3  and  C_4
REMARK    4  A    between atoms: C_9  and  C_10
REMARK    5  A    between atoms: C_19  and  C_20
REMARK                            x       y       z     vdW  Elec       q    Type
REMARK                         _______ _______ _______ _____ _____    ______ ____
ROOT
ATOM      1  C   UNL     1       3.606   5.697  19.008  0.00  0.00    +0.000 C 
ATOM      2  O   UNL     1       3.812   5.064  20.051  0.00  0.00    +0.000 OA
ATOM      3  N   UNL     1       2.614   6.660  18.936  0.00  0.00    +0.000 N 
ATOM      4  C   UNL     1       1.778   6.875  20.136  0.00  0.00    +0.000 C 
ATOM      5  C   UNL     1       1.742   8.364  20.526  0.00  0.00    +0.000 C 
ATOM      6  N   UNL     1       1.251   9.106  19.363  0.00  0.00    +0.000 N 
ATOM      7  C   UNL     1       0.257  10.036  19.517  0.00  0.00    +0.000 A 
ATOM      8  C   UNL     1      -0.606  10.334  18.473  0.00  0.00    +0.000 A 
ATOM      9  C   UNL     1      -1.657  11.223  18.659  0.00  0.00    +0.000 A 
ATOM     10  C   UNL     1      -1.832  11.822  19.896  0.00  0.00    +0.000 A 
ATOM     11  N   UNL     1      -0.981  11.533  20.902  0.00  0.00    +0.000 NA
ATOM     12  N   UNL     1       0.048  10.628  20.710  0.00  0.00    +0.000 NA
ATOM     13  C   UNL     1       2.061   8.984  18.152  0.00  0.00    +0.000 C 
ATOM     14  C   UNL     1       2.241   7.500  17.783  0.00  0.00    +0.000 C 
ENDROOT
BRANCH  10  15
ATOM     15  C   UNL     1      -2.907  12.783  20.178  0.00  0.00    +0.000 A 
ATOM     16  C   UNL     1      -2.652  14.001  20.840  0.00  0.00    +0.000 A 
ATOM     17  C   UNL     1      -3.687  14.886  21.155  0.00  0.00    +0.000 A 
ATOM     18  C   UNL     1      -4.995  14.575  20.799  0.00  0.00    +0.000 A 
ATOM     19 CL   UNL     1      -6.270  15.653  21.207  0.00  0.00    +0.000 Cl
ATOM     20  C   UNL     1      -5.274  13.391  20.122  0.00  0.00    +0.000 A 
ATOM     21  C   UNL     1      -4.237  12.507  19.810  0.00  0.00    +0.000 A 
ENDBRANCH  10  15
BRANCH   1  27
ATOM     22  C   UNL     1       4.422   4.343  17.002  0.00  0.00    +0.000 A 
ATOM     23  N   UNL     1       5.366   4.047  16.069  0.00  0.00    +0.000 NA
ATOM     24  C   UNL     1       6.509   4.765  16.087  0.00  0.00    +0.000 A 
ATOM     25  C   UNL     1       6.753   5.790  16.980  0.00  0.00    +0.000 A 
ATOM     26  C   UNL     1       5.748   6.111  17.889  0.00  0.00    +0.000 A 
ATOM     27  C   UNL     1       4.543   5.393  17.901  0.00  0.00    +0.000 A 
BRANCH  22  28
ATOM     28  O   UNL     1       3.299   3.549  17.042  0.00  0.00    +0.000 OA
BRANCH  28  30
ATOM     29  C   UNL     1       2.278   2.120  18.638  0.00  0.00    +0.000 C 
ATOM     30  C   UNL     1       3.491   2.329  17.755  0.00  0.00    +0.000 C 
ENDBRANCH  28  30
ENDBRANCH  22  28
ENDBRANCH   1  27
TORSDOF 4
ENDMDL
MODEL 7
REMARK VINA RESULT:      -7.7      5.888     10.321
REMARK  Name = 
REMARK  5 active torsions:
REMARK  status: ('A' for Active; 'I' for Inactive)
REMARK    1  A    between atoms: C_1  and  C_2
REMARK    2  A    between atoms: C_2  and  O_3
REMARK    3  A    between atoms: O_3  and  C_4
REMARK    4  A    between atoms: C_9  and  C_10
REMARK    5  A    between atoms: C_19  and  C_20
REMARK                            x       y       z     vdW  Elec       q    Type
REMARK                         _______ _______ _______ _____ _____    ______ ____
ROOT
ATOM      1  C   UNL     1       1.065  15.601  20.044  0.00  0.00    +0.000 C 
ATOM      2  O   UNL     1       1.304  15.993  21.193  0.00  0.00    +0.000 OA
ATOM      3  N   UNL     1       1.327  14.297  19.662  0.00  0.00    +0.000 N 
ATOM      4  C   UNL     1       1.945  13.399  20.661  0.00  0.00    +0.000 C 
ATOM      5  C   UNL     1       1.145  12.092  20.802  0.00  0.00    +0.000 C 
ATOM      6  N   UNL     1       1.072  11.482  19.473  0.00  0.00    +0.000 N 
ATOM      7  C   UNL     1       1.364  10.153  19.316  0.00  0.00    +0.000 A 
ATOM      8  C   UNL     1       1.855   9.671  18.111  0.00  0.00    +0.000 A 
ATOM      9  C   UNL     1       2.219   8.336  17.982  0.00  0.00    +0.000 A 
ATOM     10  C   UNL     1       2.079   7.484  19.065  0.00  0.00    +0.000 A 
ATOM     11  N   UNL     1       1.592   7.961  20.229  0.00  0.00    +0.000 NA
ATOM     12  N   UNL     1       1.255   9.297  20.352  0.00  0.00    +0.000 NA
ATOM     13  C   UNL     1       0.420  12.292  18.445  0.00  0.00    +0.000 C 
ATOM     14  C   UNL     1       1.101  13.669  18.346  0.00  0.00    +0.000 C 
ENDROOT
BRANCH  10  15
ATOM     15  C   UNL     1       2.427   6.057  19.014  0.00  0.00    +0.000 A 
ATOM     16  C   UNL     1       2.252   5.215  20.131  0.00  0.00    +0.000 A 
ATOM     17  C   UNL     1       2.636   3.872  20.095  0.00  0.00    +0.000 A 
ATOM     18  C   UNL     1       3.190   3.343  18.934  0.00  0.00    +0.000 A 
ATOM     19 CL   UNL     1       3.683   1.697  18.898  0.00  0.00    +0.000 Cl
ATOM     20  C   UNL     1       3.352   4.143  17.807  0.00  0.00    +0.000 A 
ATOM     21  C   UNL     1       2.968   5.487  17.847  0.00  0.00    +0.000 A 
ENDBRANCH  10  15
BRANCH   1  27
ATOM     22  C   UNL     1       1.076  17.540  18.381  0.00  0.00    +0.000 A 
ATOM     23  N   UNL     1       0.433  18.506  17.674  0.00  0.00    +0.000 NA
ATOM     24  C   UNL     1      -0.906  18.601  17.820  0.00  0.00    +0.000 A 
ATOM     25  C   UNL     1      -1.647  17.758  18.625  0.00  0.00    +0.000 A 
ATOM     26  C   UNL     1      -0.973  16.741  19.295  0.00  0.00    +0.000 A 
ATOM     27  C   UNL     1       0.417  16.604  19.166  0.00  0.00    +0.000 A 
BRANCH  22  28
ATOM     28  O   UNL     1       2.450  17.505  18.304  0.00  0.00    +0.000 OA
BRANCH  28  30
ATOM     29  C   UNL     1       3.952  15.821  17.569  0.00  0.00    +0.000 C 
ATOM     30  C   UNL     1       2.936  16.857  17.131  0.00  0.00    +0.000 C 
ENDBRANCH  28  30
ENDBRANCH  22  28
ENDBRANCH   1  27
TORSDOF 4
ENDMDL
MODEL 8
REMARK VINA RESULT:      -7.5      5.104     11.015
REMARK  Name = 
REMARK  5 active torsions:
REMARK  status: ('A' for Active; 'I' for Inactive)
REMARK    1  A    between atoms: C_1  and  C_2
REMARK    2  A    between atoms: C_2  and  O_3
REMARK    3  A    between atoms: O_3  and  C_4
REMARK    4  A    between atoms: C_9  and  C_10
REMARK    5  A    between atoms: C_19  and  C_20
REMARK                            x       y       z     vdW  Elec       q    Type
REMARK                         _______ _______ _______ _____ _____    ______ ____
ROOT
ATOM      1  C   UNL     1      -2.778  13.026  21.125  0.00  0.00    +0.000 C 
ATOM      2  O   UNL     1      -3.462  13.567  20.247  0.00  0.00    +0.000 OA
ATOM      3  N   UNL     1      -1.914  11.988  20.824  0.00  0.00    +0.000 N 
ATOM      4  C   UNL     1      -1.870  11.515  19.425  0.00  0.00    +0.000 C 
ATOM      5  C   UNL     1      -0.425  11.482  18.896  0.00  0.00    +0.000 C 
ATOM      6  N   UNL     1       0.348  10.627  19.799  0.00  0.00    +0.000 N 
ATOM      7  C   UNL     1       1.163   9.653  19.285  0.00  0.00    +0.000 A 
ATOM      8  C   UNL     1       1.451   8.509  20.015  0.00  0.00    +0.000 A 
ATOM      9  C   UNL     1       2.217   7.492  19.458  0.00  0.00    +0.000 A 
ATOM     10  C   UNL     1       2.703   7.634  18.168  0.00  0.00    +0.000 A 
ATOM     11  N   UNL     1       2.425   8.754  17.471  0.00  0.00    +0.000 NA
ATOM     12  N   UNL     1       1.642   9.749  18.028  0.00  0.00    +0.000 NA
ATOM     13  C   UNL     1       0.396  11.066  21.193  0.00  0.00    +0.000 C 
ATOM     14  C   UNL     1      -1.032  11.241  21.741  0.00  0.00    +0.000 C 
ENDROOT
BRANCH  10  15
ATOM     15  C   UNL     1       3.531   6.616  17.506  0.00  0.00    +0.000 A 
ATOM     16  C   UNL     1       3.307   5.239  17.707  0.00  0.00    +0.000 A 
ATOM     17  C   UNL     1       4.131   4.276  17.119  0.00  0.00    +0.000 A 
ATOM     18  C   UNL     1       5.188   4.674  16.307  0.00  0.00    +0.000 A 
ATOM     19 CL   UNL     1       6.215   3.489  15.603  0.00  0.00    +0.000 Cl
ATOM     20  C   UNL     1       5.419   6.026  16.069  0.00  0.00    +0.000 A 
ATOM     21  C   UNL     1       4.593   6.987  16.660  0.00  0.00    +0.000 A 
ENDBRANCH  10  15
BRANCH   1  27
ATOM     22  C   UNL     1      -2.134  14.668  22.974  0.00  0.00    +0.000 A 
ATOM     23  N   UNL     1      -2.224  15.115  24.255  0.00  0.00    +0.000 NA
ATOM     24  C   UNL     1      -3.048  14.450  25.092  0.00  0.00    +0.000 A 
ATOM     25  C   UNL     1      -3.813  13.366  24.708  0.00  0.00    +0.000 A 
ATOM     26  C   UNL     1      -3.746  12.962  23.377  0.00  0.00    +0.000 A 
ATOM     27  C   UNL     1      -2.907  13.630  22.473  0.00  0.00    +0.000 A 
BRANCH  22  28
ATOM     28  O   UNL     1      -1.225  15.288  22.148  0.00  0.00    +0.000 OA
BRANCH  28  30
ATOM     29  C   UNL     1       0.969  14.516  21.675  0.00  0.00    +0.000 C 
ATOM     30  C   UNL     1       0.106  15.279  22.659  0.00  0.00    +0.000 C 
ENDBRANCH  28  30
ENDBRANCH  22  28
ENDBRANCH   1  27
TORSDOF 4
ENDMDL
MODEL 9
REMARK VINA RESULT:      -7.4      2.385      3.928
REMARK  Name = 
REMARK  5 active torsions:
REMARK  status: ('A' for Active; 'I' for Inactive)
REMARK    1  A    between atoms: C_1  and  C_2
REMARK    2  A    between atoms: C_2  and  O_3
REMARK    3  A    between atoms: O_3  and  C_4
REMARK    4  A    between atoms: C_9  and  C_10
REMARK    5  A    between atoms: C_19  and  C_20
REMARK                            x       y       z     vdW  Elec       q    Type
REMARK                         _______ _______ _______ _____ _____    ______ ____
ROOT
ATOM      1  C   UNL     1       3.007   6.924  18.224  0.00  0.00    +0.000 C 
ATOM      2  O   UNL     1       3.441   7.386  17.161  0.00  0.00    +0.000 OA
ATOM      3  N   UNL     1       2.337   7.723  19.133  0.00  0.00    +0.000 N 
ATOM      4  C   UNL     1       2.196   9.159  18.812  0.00  0.00    +0.000 C 
ATOM      5  C   UNL     1       0.728   9.610  18.919  0.00  0.00    +0.000 C 
ATOM      6  N   UNL     1       0.275   9.294  20.275  0.00  0.00    +0.000 N 
ATOM      7  C   UNL     1      -0.391  10.240  21.010  0.00  0.00    +0.000 A 
ATOM      8  C   UNL     1      -0.339  10.229  22.396  0.00  0.00    +0.000 A 
ATOM      9  C   UNL     1      -0.954  11.234  23.132  0.00  0.00    +0.000 A 
ATOM     10  C   UNL     1      -1.632  12.246  22.470  0.00  0.00    +0.000 A 
ATOM     11  N   UNL     1      -1.684  12.241  21.122  0.00  0.00    +0.000 NA
ATOM     12  N   UNL     1      -1.048  11.247  20.400  0.00  0.00    +0.000 NA
ATOM     13  C   UNL     1       0.332   7.880  20.643  0.00  0.00    +0.000 C 
ATOM     14  C   UNL     1       1.758   7.336  20.434  0.00  0.00    +0.000 C 
ENDROOT
BRANCH  10  15
ATOM     15  C   UNL     1      -2.321  13.339  23.168  0.00  0.00    +0.000 A 
ATOM     16  C   UNL     1      -3.727  13.388  23.256  0.00  0.00    +0.000 A 
ATOM     17  C   UNL     1      -4.379  14.458  23.874  0.00  0.00    +0.000 A 
ATOM     18  C   UNL     1      -3.635  15.496  24.426  0.00  0.00    +0.000 A 
ATOM     19 CL   UNL     1      -4.439  16.823  25.164  0.00  0.00    +0.000 Cl
ATOM     20  C   UNL     1      -2.244  15.463  24.376  0.00  0.00    +0.000 A 
ATOM     21  C   UNL     1      -1.595  14.391  23.757  0.00  0.00    +0.000 A 
ENDBRANCH  10  15
BRANCH   1  27
ATOM     22  C   UNL     1       4.348   4.842  18.853  0.00  0.00    +0.000 A 
ATOM     23  N   UNL     1       4.505   3.492  18.887  0.00  0.00    +0.000 NA
ATOM     24  C   UNL     1       3.517   2.734  18.365  0.00  0.00    +0.000 A 
ATOM     25  C   UNL     1       2.359   3.257  17.825  0.00  0.00    +0.000 A 
ATOM     26  C   UNL     1       2.196   4.640  17.851  0.00  0.00    +0.000 A 
ATOM     27  C   UNL     1       3.196   5.463  18.390  0.00  0.00    +0.000 A 
BRANCH  22  28
ATOM     28  O   UNL     1       5.395   5.615  19.299  0.00  0.00    +0.000 OA
BRANCH  28  30
ATOM     29  C   UNL     1       7.138   6.402  17.894  0.00  0.00    +0.000 C 
ATOM     30  C   UNL     1       6.653   5.243  18.743  0.00  0.00    +0.000 C 
ENDBRANCH  28  30
ENDBRANCH  22  28
ENDBRANCH   1  27
TORSDOF 4
ENDMDL
