MODEL 1
REMARK VINA RESULT:      -7.7      0.000      0.000
REMARK  Name = 
REMARK  10 active torsions:
REMARK  status: ('A' for Active; 'I' for Inactive)
REMARK    1  A    between atoms: C_1  and  C_2
REMARK    2  A    between atoms: C_5  and  S_6
REMARK    3  A    between atoms: S_6  and  C_9
REMARK    4  A    between atoms: C_11  and  O_12
REMARK    5  A    between atoms: O_12  and  C_13
REMARK    6  A    between atoms: C_21  and  O_22
REMARK    7  A    between atoms: O_22  and  C_23
REMARK    8  A    between atoms: C_23  and  C_24
REMARK    9  A    between atoms: C_24  and  S_25
REMARK   10  A    between atoms: S_25  and  C_26
REMARK                            x       y       z     vdW  Elec       q    Type
REMARK                         _______ _______ _______ _____ _____    ______ ____
ROOT
ATOM      1  C   UNL     1       4.750   6.073  17.416  0.00  0.00    +0.000 A 
ATOM      2  C   UNL     1       4.211   7.377  17.348  0.00  0.00    +0.000 A 
ATOM      3  C   UNL     1       2.927   7.642  17.814  0.00  0.00    +0.000 A 
ATOM      4  C   UNL     1       2.116   6.592  18.208  0.00  0.00    +0.000 A 
ATOM      5  C   UNL     1       2.643   5.314  18.299  0.00  0.00    +0.000 A 
ATOM      6  C   UNL     1       3.972   5.013  17.927  0.00  0.00    +0.000 A 
ENDROOT
BRANCH   1   7
ATOM      7  S   UNL     1       6.423   5.866  16.826  0.00  0.00    +0.000 S 
ATOM      8  O   UNL     1       7.034   4.912  17.734  0.00  0.00    +0.000 OA
ATOM      9  O   UNL     1       7.004   7.179  16.611  0.00  0.00    +0.000 OA
BRANCH   7  14
ATOM     10  C   UNL     1       6.643   2.988  11.431  0.00  0.00    +0.000 C 
ATOM     11  C   UNL     1       6.544   3.775  12.711  0.00  0.00    +0.000 A 
ATOM     12  C   UNL     1       7.565   4.655  13.087  0.00  0.00    +0.000 A 
ATOM     13  C   UNL     1       7.531   5.303  14.329  0.00  0.00    +0.000 A 
ATOM     14  C   UNL     1       6.453   5.095  15.195  0.00  0.00    +0.000 A 
ATOM     15  C   UNL     1       5.404   4.250  14.811  0.00  0.00    +0.000 A 
ATOM     16  C   UNL     1       5.458   3.584  13.578  0.00  0.00    +0.000 A 
ENDBRANCH   7  14
ENDBRANCH   1   7
BRANCH   3  17
ATOM     17  O   UNL     1       2.518   8.953  17.846  0.00  0.00    +0.000 OA
BRANCH  17  18
ATOM     18  C   UNL     1       1.484   9.292  18.697  0.00  0.00    +0.000 A 
ATOM     19  C   UNL     1       1.488   9.046  20.077  0.00  0.00    +0.000 A 
ATOM     20  C   UNL     1       0.372   9.368  20.851  0.00  0.00    +0.000 A 
ATOM     21  C   UNL     1      -0.725   9.992  20.259  0.00  0.00    +0.000 A 
ATOM     22  C   UNL     1      -0.707  10.291  18.896  0.00  0.00    +0.000 A 
ATOM     23  C   UNL     1       0.395   9.939  18.116  0.00  0.00    +0.000 A 
ENDBRANCH  17  18
ENDBRANCH   3  17
BRANCH   6  24
ATOM     24  O   UNL     1       4.467   3.721  18.043  0.00  0.00    +0.000 OA
BRANCH  24  25
ATOM     25  C   UNL     1       3.486   2.714  17.717  0.00  0.00    +0.000 C 
BRANCH  25  26
ATOM     26  C   UNL     1       3.148   1.689  18.791  0.00  0.00    +0.000 C 
BRANCH  26  27
ATOM     27  S   UNL     1       1.452   2.130  19.337  0.00  0.00    +0.000 S 
BRANCH  27  28
ATOM     28  C   UNL     1       1.778   2.542  20.926  0.00  0.00    +0.000 C 
ATOM     29  N   UNL     1       1.993   2.835  22.029  0.00  0.00    +0.000 NA
ENDBRANCH  27  28
ENDBRANCH  26  27
ENDBRANCH  25  26
ENDBRANCH  24  25
ENDBRANCH   6  24
TORSDOF 9
ENDMDL
MODEL 2
REMARK VINA RESULT:      -7.6      0.708      1.143
REMARK  Name = 
REMARK  10 active torsions:
REMARK  status: ('A' for Active; 'I' for Inactive)
REMARK    1  A    between atoms: C_1  and  C_2
REMARK    2  A    between atoms: C_5  and  S_6
REMARK    3  A    between atoms: S_6  and  C_9
REMARK    4  A    between atoms: C_11  and  O_12
REMARK    5  A    between atoms: O_12  and  C_13
REMARK    6  A    between atoms: C_21  and  O_22
REMARK    7  A    between atoms: O_22  and  C_23
REMARK    8  A    between atoms: C_23  and  C_24
REMARK    9  A    between atoms: C_24  and  S_25
REMARK   10  A    between atoms: S_25  and  C_26
REMARK                            x       y       z     vdW  Elec       q    Type
REMARK                         _______ _______ _______ _____ _____    ______ ____
ROOT
ATOM      1  C   UNL     1       4.543   6.442  17.781  0.00  0.00    +0.000 A 
ATOM      2  C   UNL     1       3.947   7.664  17.393  0.00  0.00    +0.000 A 
ATOM      3  C   UNL     1       2.654   7.983  17.796  0.00  0.00    +0.000 A 
ATOM      4  C   UNL     1       1.891   7.034  18.453  0.00  0.00    +0.000 A 
ATOM      5  C   UNL     1       2.474   5.844  18.856  0.00  0.00    +0.000 A 
ATOM      6  C   UNL     1       3.814   5.515  18.554  0.00  0.00    +0.000 A 
ENDROOT
BRANCH   1   7
ATOM      7  S   UNL     1       6.222   6.164  17.239  0.00  0.00    +0.000 S 
ATOM      8  O   UNL     1       6.814   5.307  18.251  0.00  0.00    +0.000 OA
ATOM      9  O   UNL     1       6.816   7.443  16.895  0.00  0.00    +0.000 OA
BRANCH   7  14
ATOM     10  C   UNL     1       6.277   3.243  11.863  0.00  0.00    +0.000 C 
ATOM     11  C   UNL     1       6.303   3.877  13.228  0.00  0.00    +0.000 A 
ATOM     12  C   UNL     1       5.214   3.743  14.098  0.00  0.00    +0.000 A 
ATOM     13  C   UNL     1       5.186   4.424  15.321  0.00  0.00    +0.000 A 
ATOM     14  C   UNL     1       6.267   5.225  15.699  0.00  0.00    +0.000 A 
ATOM     15  C   UNL     1       7.382   5.332  14.857  0.00  0.00    +0.000 A 
ATOM     16  C   UNL     1       7.392   4.669  13.622  0.00  0.00    +0.000 A 
ENDBRANCH   7  14
ENDBRANCH   1   7
BRANCH   3  17
ATOM     17  O   UNL     1       2.188   9.241  17.502  0.00  0.00    +0.000 OA
BRANCH  17  18
ATOM     18  C   UNL     1       1.163   9.753  18.274  0.00  0.00    +0.000 A 
ATOM     19  C   UNL     1       1.335  10.280  19.561  0.00  0.00    +0.000 A 
ATOM     20  C   UNL     1       0.232  10.720  20.294  0.00  0.00    +0.000 A 
ATOM     21  C   UNL     1      -1.037  10.691  19.719  0.00  0.00    +0.000 A 
ATOM     22  C   UNL     1      -1.203  10.222  18.415  0.00  0.00    +0.000 A 
ATOM     23  C   UNL     1      -0.105   9.751  17.695  0.00  0.00    +0.000 A 
ENDBRANCH  17  18
ENDBRANCH   3  17
BRANCH   6  24
ATOM     24  O   UNL     1       4.366   4.315  18.985  0.00  0.00    +0.000 OA
BRANCH  24  25
ATOM     25  C   UNL     1       3.910   3.181  18.218  0.00  0.00    +0.000 C 
BRANCH  25  26
ATOM     26  C   UNL     1       3.497   1.933  18.988  0.00  0.00    +0.000 C 
BRANCH  26  27
ATOM     27  S   UNL     1       1.745   2.229  19.446  0.00  0.00    +0.000 S 
BRANCH  27  28
ATOM     28  C   UNL     1       1.959   2.724  21.030  0.00  0.00    +0.000 C 
ATOM     29  N   UNL     1       2.097   3.075  22.128  0.00  0.00    +0.000 NA
ENDBRANCH  27  28
ENDBRANCH  26  27
ENDBRANCH  25  26
ENDBRANCH  24  25
ENDBRANCH   6  24
TORSDOF 9
ENDMDL
MODEL 3
REMARK VINA RESULT:      -7.6      4.155      8.602
REMARK  Name = 
REMARK  10 active torsions:
REMARK  status: ('A' for Active; 'I' for Inactive)
REMARK    1  A    between atoms: C_1  and  C_2
REMARK    2  A    between atoms: C_5  and  S_6
REMARK    3  A    between atoms: S_6  and  C_9
REMARK    4  A    between atoms: C_11  and  O_12
REMARK    5  A    between atoms: O_12  and  C_13
REMARK    6  A    between atoms: C_21  and  O_22
REMARK    7  A    between atoms: O_22  and  C_23
REMARK    8  A    between atoms: C_23  and  C_24
REMARK    9  A    between atoms: C_24  and  S_25
REMARK   10  A    between atoms: S_25  and  C_26
REMARK                            x       y       z     vdW  Elec       q    Type
REMARK                         _______ _______ _______ _____ _____    ______ ____
ROOT
ATOM      1  C   UNL     1       1.537   8.667  19.239  0.00  0.00    +0.000 A 
ATOM      2  C   UNL     1       2.473   7.904  18.504  0.00  0.00    +0.000 A 
ATOM      3  C   UNL     1       2.773   6.597  18.876  0.00  0.00    +0.000 A 
ATOM      4  C   UNL     1       2.267   6.093  20.060  0.00  0.00    +0.000 A 
ATOM      5  C   UNL     1       1.333   6.825  20.775  0.00  0.00    +0.000 A 
ATOM      6  C   UNL     1       0.923   8.119  20.384  0.00  0.00    +0.000 A 
ENDROOT
BRANCH   1   7
ATOM      7  S   UNL     1       1.202  10.316  18.640  0.00  0.00    +0.000 S 
ATOM      8  O   UNL     1       1.890  10.407  17.364  0.00  0.00    +0.000 OA
ATOM      9  O   UNL     1       1.471  11.260  19.709  0.00  0.00    +0.000 OA
BRANCH   7  14
ATOM     10  C   UNL     1      -4.663  11.248  17.167  0.00  0.00    +0.000 C 
ATOM     11  C   UNL     1      -3.252  10.957  17.604  0.00  0.00    +0.000 A 
ATOM     12  C   UNL     1      -2.633  11.743  18.583  0.00  0.00    +0.000 A 
ATOM     13  C   UNL     1      -1.285  11.548  18.912  0.00  0.00    +0.000 A 
ATOM     14  C   UNL     1      -0.552  10.539  18.280  0.00  0.00    +0.000 A 
ATOM     15  C   UNL     1      -1.173   9.718  17.331  0.00  0.00    +0.000 A 
ATOM     16  C   UNL     1      -2.515   9.936  16.987  0.00  0.00    +0.000 A 
ENDBRANCH   7  14
ENDBRANCH   1   7
BRANCH   3  17
ATOM     17  O   UNL     1       3.584   5.868  18.040  0.00  0.00    +0.000 OA
BRANCH  17  18
ATOM     18  C   UNL     1       4.949   6.062  18.124  0.00  0.00    +0.000 A 
ATOM     19  C   UNL     1       5.679   6.901  17.271  0.00  0.00    +0.000 A 
ATOM     20  C   UNL     1       7.066   6.989  17.390  0.00  0.00    +0.000 A 
ATOM     21  C   UNL     1       7.721   6.287  18.401  0.00  0.00    +0.000 A 
ATOM     22  C   UNL     1       6.989   5.497  19.289  0.00  0.00    +0.000 A 
ATOM     23  C   UNL     1       5.605   5.382  19.149  0.00  0.00    +0.000 A 
ENDBRANCH  17  18
ENDBRANCH   3  17
BRANCH   6  24
ATOM     24  O   UNL     1      -0.024   8.817  21.122  0.00  0.00    +0.000 OA
BRANCH  24  25
ATOM     25  C   UNL     1       0.502   9.342  22.357  0.00  0.00    +0.000 C 
BRANCH  25  26
ATOM     26  C   UNL     1      -0.486   9.964  23.335  0.00  0.00    +0.000 C 
BRANCH  26  27
ATOM     27  S   UNL     1      -0.893  11.600  22.609  0.00  0.00    +0.000 S 
BRANCH  27  28
ATOM     28  C   UNL     1      -2.404  11.829  23.288  0.00  0.00    +0.000 C 
ATOM     29  N   UNL     1      -3.456  11.999  23.751  0.00  0.00    +0.000 NA
ENDBRANCH  27  28
ENDBRANCH  26  27
ENDBRANCH  25  26
ENDBRANCH  24  25
ENDBRANCH   6  24
TORSDOF 9
ENDMDL
MODEL 4
REMARK VINA RESULT:      -7.5      4.342      8.648
REMARK  Name = 
REMARK  10 active torsions:
REMARK  status: ('A' for Active; 'I' for Inactive)
REMARK    1  A    between atoms: C_1  and  C_2
REMARK    2  A    between atoms: C_5  and  S_6
REMARK    3  A    between atoms: S_6  and  C_9
REMARK    4  A    between atoms: C_11  and  O_12
REMARK    5  A    between atoms: O_12  and  C_13
REMARK    6  A    between atoms: C_21  and  O_22
REMARK    7  A    between atoms: O_22  and  C_23
REMARK    8  A    between atoms: C_23  and  C_24
REMARK    9  A    between atoms: C_24  and  S_25
REMARK   10  A    between atoms: S_25  and  C_26
REMARK                            x       y       z     vdW  Elec       q    Type
REMARK                         _______ _______ _______ _____ _____    ______ ____
ROOT
ATOM      1  C   UNL     1       1.503   8.753  19.316  0.00  0.00    +0.000 A 
ATOM      2  C   UNL     1       2.437   7.958  18.614  0.00  0.00    +0.000 A 
ATOM      3  C   UNL     1       2.732   6.666  19.039  0.00  0.00    +0.000 A 
ATOM      4  C   UNL     1       2.222   6.211  20.242  0.00  0.00    +0.000 A 
ATOM      5  C   UNL     1       1.289   6.975  20.924  0.00  0.00    +0.000 A 
ATOM      6  C   UNL     1       0.885   8.254  20.481  0.00  0.00    +0.000 A 
ENDROOT
BRANCH   1   7
ATOM      7  S   UNL     1       1.176  10.378  18.651  0.00  0.00    +0.000 S 
ATOM      8  O   UNL     1       1.867  10.415  17.374  0.00  0.00    +0.000 OA
ATOM      9  O   UNL     1       1.445  11.363  19.682  0.00  0.00    +0.000 OA
BRANCH   7  14
ATOM     10  C   UNL     1      -4.682  11.272  17.127  0.00  0.00    +0.000 C 
ATOM     11  C   UNL     1      -3.274  10.994  17.579  0.00  0.00    +0.000 A 
ATOM     12  C   UNL     1      -2.655  11.811  18.532  0.00  0.00    +0.000 A 
ATOM     13  C   UNL     1      -1.309  11.624  18.872  0.00  0.00    +0.000 A 
ATOM     14  C   UNL     1      -0.577  10.593  18.278  0.00  0.00    +0.000 A 
ATOM     15  C   UNL     1      -1.196   9.741  17.355  0.00  0.00    +0.000 A 
ATOM     16  C   UNL     1      -2.537   9.950  17.000  0.00  0.00    +0.000 A 
ENDBRANCH   7  14
ENDBRANCH   1   7
BRANCH   3  17
ATOM     17  O   UNL     1       3.541   5.900  18.235  0.00  0.00    +0.000 OA
BRANCH  17  18
ATOM     18  C   UNL     1       3.475   4.526  18.363  0.00  0.00    +0.000 A 
ATOM     19  C   UNL     1       4.311   3.773  19.198  0.00  0.00    +0.000 A 
ATOM     20  C   UNL     1       4.214   2.381  19.218  0.00  0.00    +0.000 A 
ATOM     21  C   UNL     1       3.241   1.743  18.452  0.00  0.00    +0.000 A 
ATOM     22  C   UNL     1       2.368   2.495  17.665  0.00  0.00    +0.000 A 
ATOM     23  C   UNL     1       2.487   3.885  17.618  0.00  0.00    +0.000 A 
ENDBRANCH  17  18
ENDBRANCH   3  17
BRANCH   6  24
ATOM     24  O   UNL     1      -0.061   8.984  21.188  0.00  0.00    +0.000 OA
BRANCH  24  25
ATOM     25  C   UNL     1       0.420   9.430  22.474  0.00  0.00    +0.000 C 
BRANCH  25  26
ATOM     26  C   UNL     1      -0.584  10.090  23.409  0.00  0.00    +0.000 C 
BRANCH  26  27
ATOM     27  S   UNL     1      -1.015  11.673  22.587  0.00  0.00    +0.000 S 
BRANCH  27  28
ATOM     28  C   UNL     1      -2.531  11.919  23.251  0.00  0.00    +0.000 C 
ATOM     29  N   UNL     1      -3.577  12.095  23.723  0.00  0.00    +0.000 NA
ENDBRANCH  27  28
ENDBRANCH  26  27
ENDBRANCH  25  26
ENDBRANCH  24  25
ENDBRANCH   6  24
TORSDOF 9
ENDMDL
MODEL 5
REMARK VINA RESULT:      -7.5      0.751      1.188
REMARK  Name = 
REMARK  10 active torsions:
REMARK  status: ('A' for Active; 'I' for Inactive)
REMARK    1  A    between atoms: C_1  and  C_2
REMARK    2  A    between atoms: C_5  and  S_6
REMARK    3  A    between atoms: S_6  and  C_9
REMARK    4  A    between atoms: C_11  and  O_12
REMARK    5  A    between atoms: O_12  and  C_13
REMARK    6  A    between atoms: C_21  and  O_22
REMARK    7  A    between atoms: O_22  and  C_23
REMARK    8  A    between atoms: C_23  and  C_24
REMARK    9  A    between atoms: C_24  and  S_25
REMARK   10  A    between atoms: S_25  and  C_26
REMARK                            x       y       z     vdW  Elec       q    Type
REMARK                         _______ _______ _______ _____ _____    ______ ____
ROOT
ATOM      1  C   UNL     1       4.515   5.940  17.384  0.00  0.00    +0.000 A 
ATOM      2  C   UNL     1       4.028   7.259  17.522  0.00  0.00    +0.000 A 
ATOM      3  C   UNL     1       2.715   7.494  17.920  0.00  0.00    +0.000 A 
ATOM      4  C   UNL     1       1.837   6.431  18.033  0.00  0.00    +0.000 A 
ATOM      5  C   UNL     1       2.311   5.134  17.921  0.00  0.00    +0.000 A 
ATOM      6  C   UNL     1       3.659   4.843  17.614  0.00  0.00    +0.000 A 
ENDROOT
BRANCH   1   7
ATOM      7  S   UNL     1       6.229   5.765  16.910  0.00  0.00    +0.000 S 
ATOM      8  O   UNL     1       6.772   4.758  17.804  0.00  0.00    +0.000 OA
ATOM      9  O   UNL     1       6.820   7.087  16.818  0.00  0.00    +0.000 OA
BRANCH   7  14
ATOM     10  C   UNL     1       6.875   3.216  11.386  0.00  0.00    +0.000 C 
ATOM     11  C   UNL     1       6.670   3.922  12.699  0.00  0.00    +0.000 A 
ATOM     12  C   UNL     1       7.626   4.824  13.181  0.00  0.00    +0.000 A 
ATOM     13  C   UNL     1       7.495   5.397  14.453  0.00  0.00    +0.000 A 
ATOM     14  C   UNL     1       6.383   5.092  15.243  0.00  0.00    +0.000 A 
ATOM     15  C   UNL     1       5.397   4.225  14.754  0.00  0.00    +0.000 A 
ATOM     16  C   UNL     1       5.549   3.634  13.491  0.00  0.00    +0.000 A 
ENDBRANCH   7  14
ENDBRANCH   1   7
BRANCH   3  17
ATOM     17  O   UNL     1       2.348   8.794  18.168  0.00  0.00    +0.000 OA
BRANCH  17  18
ATOM     18  C   UNL     1       1.462   9.035  19.200  0.00  0.00    +0.000 A 
ATOM     19  C   UNL     1       0.340   9.870  19.095  0.00  0.00    +0.000 A 
ATOM     20  C   UNL     1      -0.467  10.104  20.210  0.00  0.00    +0.000 A 
ATOM     21  C   UNL     1      -0.192   9.457  21.413  0.00  0.00    +0.000 A 
ATOM     22  C   UNL     1       0.889   8.578  21.503  0.00  0.00    +0.000 A 
ATOM     23  C   UNL     1       1.717   8.371  20.398  0.00  0.00    +0.000 A 
ENDBRANCH  17  18
ENDBRANCH   3  17
BRANCH   6  24
ATOM     24  O   UNL     1       4.098   3.529  17.520  0.00  0.00    +0.000 OA
BRANCH  24  25
ATOM     25  C   UNL     1       3.061   2.568  17.809  0.00  0.00    +0.000 C 
BRANCH  25  26
ATOM     26  C   UNL     1       3.389   1.455  18.796  0.00  0.00    +0.000 C 
BRANCH  26  27
ATOM     27  S   UNL     1       4.265   2.297  20.172  0.00  0.00    +0.000 S 
BRANCH  27  28
ATOM     28  C   UNL     1       2.954   2.656  21.148  0.00  0.00    +0.000 C 
ATOM     29  N   UNL     1       2.036   2.907  21.814  0.00  0.00    +0.000 NA
ENDBRANCH  27  28
ENDBRANCH  26  27
ENDBRANCH  25  26
ENDBRANCH  24  25
ENDBRANCH   6  24
TORSDOF 9
ENDMDL
MODEL 6
REMARK VINA RESULT:      -7.4      1.184      1.410
REMARK  Name = 
REMARK  10 active torsions:
REMARK  status: ('A' for Active; 'I' for Inactive)
REMARK    1  A    between atoms: C_1  and  C_2
REMARK    2  A    between atoms: C_5  and  S_6
REMARK    3  A    between atoms: S_6  and  C_9
REMARK    4  A    between atoms: C_11  and  O_12
REMARK    5  A    between atoms: O_12  and  C_13
REMARK    6  A    between atoms: C_21  and  O_22
REMARK    7  A    between atoms: O_22  and  C_23
REMARK    8  A    between atoms: C_23  and  C_24
REMARK    9  A    between atoms: C_24  and  S_25
REMARK   10  A    between atoms: S_25  and  C_26
REMARK                            x       y       z     vdW  Elec       q    Type
REMARK                         _______ _______ _______ _____ _____    ______ ____
ROOT
ATOM      1  C   UNL     1       4.753   6.455  17.839  0.00  0.00    +0.000 A 
ATOM      2  C   UNL     1       4.096   7.609  17.356  0.00  0.00    +0.000 A 
ATOM      3  C   UNL     1       2.842   7.969  17.841  0.00  0.00    +0.000 A 
ATOM      4  C   UNL     1       2.168   7.109  18.691  0.00  0.00    +0.000 A 
ATOM      5  C   UNL     1       2.814   5.988  19.186  0.00  0.00    +0.000 A 
ATOM      6  C   UNL     1       4.124   5.632  18.797  0.00  0.00    +0.000 A 
ENDROOT
BRANCH   1   7
ATOM      7  S   UNL     1       6.376   6.120  17.173  0.00  0.00    +0.000 S 
ATOM      8  O   UNL     1       6.988   5.190  18.105  0.00  0.00    +0.000 OA
ATOM      9  O   UNL     1       7.011   7.383  16.844  0.00  0.00    +0.000 OA
BRANCH   7  14
ATOM     10  C   UNL     1       6.127   2.913  11.968  0.00  0.00    +0.000 C 
ATOM     11  C   UNL     1       6.146   3.781  13.198  0.00  0.00    +0.000 A 
ATOM     12  C   UNL     1       7.239   4.612  13.468  0.00  0.00    +0.000 A 
ATOM     13  C   UNL     1       7.312   5.335  14.666  0.00  0.00    +0.000 A 
ATOM     14  C   UNL     1       6.271   5.252  15.595  0.00  0.00    +0.000 A 
ATOM     15  C   UNL     1       5.151   4.457  15.317  0.00  0.00    +0.000 A 
ATOM     16  C   UNL     1       5.097   3.716  14.128  0.00  0.00    +0.000 A 
ENDBRANCH   7  14
ENDBRANCH   1   7
BRANCH   3  17
ATOM     17  O   UNL     1       2.323   9.173  17.432  0.00  0.00    +0.000 OA
BRANCH  17  18
ATOM     18  C   UNL     1       1.221   9.669  18.103  0.00  0.00    +0.000 A 
ATOM     19  C   UNL     1      -0.100   9.530  17.657  0.00  0.00    +0.000 A 
ATOM     20  C   UNL     1      -1.147  10.118  18.369  0.00  0.00    +0.000 A 
ATOM     21  C   UNL     1      -0.882  10.792  19.560  0.00  0.00    +0.000 A 
ATOM     22  C   UNL     1       0.426  10.880  20.037  0.00  0.00    +0.000 A 
ATOM     23  C   UNL     1       1.477  10.321  19.308  0.00  0.00    +0.000 A 
ENDBRANCH  17  18
ENDBRANCH   3  17
BRANCH   6  24
ATOM     24  O   UNL     1       4.741   4.506  19.325  0.00  0.00    +0.000 OA
BRANCH  24  25
ATOM     25  C   UNL     1       4.202   3.274  18.801  0.00  0.00    +0.000 C 
BRANCH  25  26
ATOM     26  C   UNL     1       3.904   2.159  19.794  0.00  0.00    +0.000 C 
BRANCH  26  27
ATOM     27  S   UNL     1       2.376   2.700  20.657  0.00  0.00    +0.000 S 
BRANCH  27  28
ATOM     28  C   UNL     1       1.272   2.468  19.421  0.00  0.00    +0.000 C 
ATOM     29  N   UNL     1       0.496   2.305  18.573  0.00  0.00    +0.000 NA
ENDBRANCH  27  28
ENDBRANCH  26  27
ENDBRANCH  25  26
ENDBRANCH  24  25
ENDBRANCH   6  24
TORSDOF 9
ENDMDL
MODEL 7
REMARK VINA RESULT:      -7.4      1.457      1.884
REMARK  Name = 
REMARK  10 active torsions:
REMARK  status: ('A' for Active; 'I' for Inactive)
REMARK    1  A    between atoms: C_1  and  C_2
REMARK    2  A    between atoms: C_5  and  S_6
REMARK    3  A    between atoms: S_6  and  C_9
REMARK    4  A    between atoms: C_11  and  O_12
REMARK    5  A    between atoms: O_12  and  C_13
REMARK    6  A    between atoms: C_21  and  O_22
REMARK    7  A    between atoms: O_22  and  C_23
REMARK    8  A    between atoms: C_23  and  C_24
REMARK    9  A    between atoms: C_24  and  S_25
REMARK   10  A    between atoms: S_25  and  C_26
REMARK                            x       y       z     vdW  Elec       q    Type
REMARK                         _______ _______ _______ _____ _____    ______ ____
ROOT
ATOM      1  C   UNL     1       4.691   6.578  17.956  0.00  0.00    +0.000 A 
ATOM      2  C   UNL     1       3.981   7.653  17.378  0.00  0.00    +0.000 A 
ATOM      3  C   UNL     1       2.711   7.994  17.836  0.00  0.00    +0.000 A 
ATOM      4  C   UNL     1       2.079   7.180  18.759  0.00  0.00    +0.000 A 
ATOM      5  C   UNL     1       2.777   6.138  19.346  0.00  0.00    +0.000 A 
ATOM      6  C   UNL     1       4.103   5.812  18.983  0.00  0.00    +0.000 A 
ENDROOT
BRANCH   1   7
ATOM      7  S   UNL     1       6.329   6.264  17.313  0.00  0.00    +0.000 S 
ATOM      8  O   UNL     1       6.984   5.447  18.319  0.00  0.00    +0.000 OA
ATOM      9  O   UNL     1       6.903   7.522  16.875  0.00  0.00    +0.000 OA
BRANCH   7  14
ATOM     10  C   UNL     1       5.980   3.106  12.085  0.00  0.00    +0.000 C 
ATOM     11  C   UNL     1       6.115   3.803  13.412  0.00  0.00    +0.000 A 
ATOM     12  C   UNL     1       5.138   3.646  14.403  0.00  0.00    +0.000 A 
ATOM     13  C   UNL     1       5.201   4.379  15.594  0.00  0.00    +0.000 A 
ATOM     14  C   UNL     1       6.265   5.259  15.816  0.00  0.00    +0.000 A 
ATOM     15  C   UNL     1       7.271   5.392  14.851  0.00  0.00    +0.000 A 
ATOM     16  C   UNL     1       7.188   4.674  13.650  0.00  0.00    +0.000 A 
ENDBRANCH   7  14
ENDBRANCH   1   7
BRANCH   3  17
ATOM     17  O   UNL     1       2.135   9.133  17.327  0.00  0.00    +0.000 OA
BRANCH  17  18
ATOM     18  C   UNL     1       1.168   9.767  18.083  0.00  0.00    +0.000 A 
ATOM     19  C   UNL     1      -0.211   9.582  17.911  0.00  0.00    +0.000 A 
ATOM     20  C   UNL     1      -1.118  10.312  18.680  0.00  0.00    +0.000 A 
ATOM     21  C   UNL     1      -0.651  11.182  19.663  0.00  0.00    +0.000 A 
ATOM     22  C   UNL     1       0.721  11.323  19.876  0.00  0.00    +0.000 A 
ATOM     23  C   UNL     1       1.629  10.618  19.085  0.00  0.00    +0.000 A 
ENDBRANCH  17  18
ENDBRANCH   3  17
BRANCH   6  24
ATOM     24  O   UNL     1       4.772   4.765  19.603  0.00  0.00    +0.000 OA
BRANCH  24  25
ATOM     25  C   UNL     1       4.369   3.471  19.109  0.00  0.00    +0.000 C 
BRANCH  25  26
ATOM     26  C   UNL     1       3.793   2.483  20.115  0.00  0.00    +0.000 C 
BRANCH  26  27
ATOM     27  S   UNL     1       1.992   2.459  19.763  0.00  0.00    +0.000 S 
BRANCH  27  28
ATOM     28  C   UNL     1       2.029   2.847  18.136  0.00  0.00    +0.000 C 
ATOM     29  N   UNL     1       2.053   3.130  17.010  0.00  0.00    +0.000 NA
ENDBRANCH  27  28
ENDBRANCH  26  27
ENDBRANCH  25  26
ENDBRANCH  24  25
ENDBRANCH   6  24
TORSDOF 9
ENDMDL
MODEL 8
REMARK VINA RESULT:      -7.3      0.860      1.496
REMARK  Name = 
REMARK  10 active torsions:
REMARK  status: ('A' for Active; 'I' for Inactive)
REMARK    1  A    between atoms: C_1  and  C_2
REMARK    2  A    between atoms: C_5  and  S_6
REMARK    3  A    between atoms: S_6  and  C_9
REMARK    4  A    between atoms: C_11  and  O_12
REMARK    5  A    between atoms: O_12  and  C_13
REMARK    6  A    between atoms: C_21  and  O_22
REMARK    7  A    between atoms: O_22  and  C_23
REMARK    8  A    between atoms: C_23  and  C_24
REMARK    9  A    between atoms: C_24  and  S_25
REMARK   10  A    between atoms: S_25  and  C_26
REMARK                            x       y       z     vdW  Elec       q    Type
REMARK                         _______ _______ _______ _____ _____    ______ ____
ROOT
ATOM      1  C   UNL     1       4.419   6.506  17.589  0.00  0.00    +0.000 A 
ATOM      2  C   UNL     1       3.863   7.776  17.317  0.00  0.00    +0.000 A 
ATOM      3  C   UNL     1       2.552   8.072  17.681  0.00  0.00    +0.000 A 
ATOM      4  C   UNL     1       1.740   7.066  18.174  0.00  0.00    +0.000 A 
ATOM      5  C   UNL     1       2.283   5.825  18.465  0.00  0.00    +0.000 A 
ATOM      6  C   UNL     1       3.634   5.508  18.203  0.00  0.00    +0.000 A 
ENDROOT
BRANCH   1   7
ATOM      7  S   UNL     1       6.123   6.260  17.115  0.00  0.00    +0.000 S 
ATOM      8  O   UNL     1       6.703   5.455  18.175  0.00  0.00    +0.000 OA
ATOM      9  O   UNL     1       6.692   7.545  16.749  0.00  0.00    +0.000 OA
BRANCH   7  14
ATOM     10  C   UNL     1       6.423   3.159  11.849  0.00  0.00    +0.000 C 
ATOM     11  C   UNL     1       6.398   3.844  13.189  0.00  0.00    +0.000 A 
ATOM     12  C   UNL     1       5.345   3.623  14.085  0.00  0.00    +0.000 A 
ATOM     13  C   UNL     1       5.260   4.343  15.283  0.00  0.00    +0.000 A 
ATOM     14  C   UNL     1       6.250   5.274  15.609  0.00  0.00    +0.000 A 
ATOM     15  C   UNL     1       7.332   5.473  14.742  0.00  0.00    +0.000 A 
ATOM     16  C   UNL     1       7.397   4.768  13.532  0.00  0.00    +0.000 A 
ENDBRANCH   7  14
ENDBRANCH   1   7
BRANCH   3  17
ATOM     17  O   UNL     1       2.121   9.365  17.513  0.00  0.00    +0.000 OA
BRANCH  17  18
ATOM     18  C   UNL     1       1.073   9.809  18.296  0.00  0.00    +0.000 A 
ATOM     19  C   UNL     1      -0.254   9.907  17.854  0.00  0.00    +0.000 A 
ATOM     20  C   UNL     1      -1.238  10.425  18.697  0.00  0.00    +0.000 A 
ATOM     21  C   UNL     1      -0.912  10.788  20.002  0.00  0.00    +0.000 A 
ATOM     22  C   UNL     1       0.396  10.636  20.463  0.00  0.00    +0.000 A 
ATOM     23  C   UNL     1       1.388  10.149  19.610  0.00  0.00    +0.000 A 
ENDBRANCH  17  18
ENDBRANCH   3  17
BRANCH   6  24
ATOM     24  O   UNL     1       4.143   4.255  18.518  0.00  0.00    +0.000 OA
BRANCH  24  25
ATOM     25  C   UNL     1       3.292   3.176  18.079  0.00  0.00    +0.000 C 
BRANCH  25  26
ATOM     26  C   UNL     1       3.328   1.881  18.880  0.00  0.00    +0.000 C 
BRANCH  26  27
ATOM     27  S   UNL     1       4.089   2.347  20.484  0.00  0.00    +0.000 S 
BRANCH  27  28
ATOM     28  C   UNL     1       2.699   2.669  21.358  0.00  0.00    +0.000 C 
ATOM     29  N   UNL     1       1.727   2.893  21.954  0.00  0.00    +0.000 NA
ENDBRANCH  27  28
ENDBRANCH  26  27
ENDBRANCH  25  26
ENDBRANCH  24  25
ENDBRANCH   6  24
TORSDOF 9
ENDMDL
MODEL 9
REMARK VINA RESULT:      -7.3      1.139      1.180
REMARK  Name = 
REMARK  10 active torsions:
REMARK  status: ('A' for Active; 'I' for Inactive)
REMARK    1  A    between atoms: C_1  and  C_2
REMARK    2  A    between atoms: C_5  and  S_6
REMARK    3  A    between atoms: S_6  and  C_9
REMARK    4  A    between atoms: C_11  and  O_12
REMARK    5  A    between atoms: O_12  and  C_13
REMARK    6  A    between atoms: C_21  and  O_22
REMARK    7  A    between atoms: O_22  and  C_23
REMARK    8  A    between atoms: C_23  and  C_24
REMARK    9  A    between atoms: C_24  and  S_25
REMARK   10  A    between atoms: S_25  and  C_26
REMARK                            x       y       z     vdW  Elec       q    Type
REMARK                         _______ _______ _______ _____ _____    ______ ____
ROOT
ATOM      1  C   UNL     1       4.566   6.456  17.541  0.00  0.00    +0.000 A 
ATOM      2  C   UNL     1       3.996   7.725  17.296  0.00  0.00    +0.000 A 
ATOM      3  C   UNL     1       2.705   8.020  17.726  0.00  0.00    +0.000 A 
ATOM      4  C   UNL     1       1.920   7.015  18.262  0.00  0.00    +0.000 A 
ATOM      5  C   UNL     1       2.478   5.774  18.526  0.00  0.00    +0.000 A 
ATOM      6  C   UNL     1       3.814   5.457  18.195  0.00  0.00    +0.000 A 
ENDROOT
BRANCH   1   7
ATOM      7  S   UNL     1       6.244   6.211  16.979  0.00  0.00    +0.000 S 
ATOM      8  O   UNL     1       6.848   5.321  17.956  0.00  0.00    +0.000 OA
ATOM      9  O   UNL     1       6.826   7.506  16.680  0.00  0.00    +0.000 OA
BRANCH   7  14
ATOM     10  C   UNL     1       6.492   2.967  11.797  0.00  0.00    +0.000 C 
ATOM     11  C   UNL     1       6.392   3.842  13.018  0.00  0.00    +0.000 A 
ATOM     12  C   UNL     1       7.440   4.701  13.369  0.00  0.00    +0.000 A 
ATOM     13  C   UNL     1       7.399   5.432  14.563  0.00  0.00    +0.000 A 
ATOM     14  C   UNL     1       6.288   5.331  15.405  0.00  0.00    +0.000 A 
ATOM     15  C   UNL     1       5.213   4.508  15.044  0.00  0.00    +0.000 A 
ATOM     16  C   UNL     1       5.272   3.759  13.860  0.00  0.00    +0.000 A 
ENDBRANCH   7  14
ENDBRANCH   1   7
BRANCH   3  17
ATOM     17  O   UNL     1       2.265   9.313  17.580  0.00  0.00    +0.000 OA
BRANCH  17  18
ATOM     18  C   UNL     1       1.222   9.740  18.379  0.00  0.00    +0.000 A 
ATOM     19  C   UNL     1       1.355  10.079  19.732  0.00  0.00    +0.000 A 
ATOM     20  C   UNL     1       0.233  10.441  20.479  0.00  0.00    +0.000 A 
ATOM     21  C   UNL     1      -1.013  10.526  19.861  0.00  0.00    +0.000 A 
ATOM     22  C   UNL     1      -1.138  10.247  18.499  0.00  0.00    +0.000 A 
ATOM     23  C   UNL     1      -0.022   9.851  17.760  0.00  0.00    +0.000 A 
ENDBRANCH  17  18
ENDBRANCH   3  17
BRANCH   6  24
ATOM     24  O   UNL     1       4.340   4.205  18.485  0.00  0.00    +0.000 OA
BRANCH  24  25
ATOM     25  C   UNL     1       4.090   3.793  19.844  0.00  0.00    +0.000 C 
BRANCH  25  26
ATOM     26  C   UNL     1       3.742   2.329  20.082  0.00  0.00    +0.000 C 
BRANCH  26  27
ATOM     27  S   UNL     1       3.193   1.710  18.444  0.00  0.00    +0.000 S 
BRANCH  27  28
ATOM     28  C   UNL     1       1.572   2.114  18.532  0.00  0.00    +0.000 C 
ATOM     29  N   UNL     1       0.449   2.401  18.604  0.00  0.00    +0.000 NA
ENDBRANCH  27  28
ENDBRANCH  26  27
ENDBRANCH  25  26
ENDBRANCH  24  25
ENDBRANCH   6  24
TORSDOF 9
ENDMDL
