MODEL 1
REMARK VINA RESULT:      -9.0      0.000      0.000
REMARK  Name = 
REMARK  7 active torsions:
REMARK  status: ('A' for Active; 'I' for Inactive)
REMARK    1  A    between atoms: C_1  and  S_2
REMARK    2  A    between atoms: S_2  and  C_5
REMARK    3  A    between atoms: C_8  and  O_9
REMARK    4  A    between atoms: O_9  and  C_10
REMARK    5  A    between atoms: C_12  and  O_13
REMARK    6  A    between atoms: O_13  and  C_14
REMARK    7  A    between atoms: C_20  and  C_21
REMARK                            x       y       z     vdW  Elec       q    Type
REMARK                         _______ _______ _______ _____ _____    ______ ____
ROOT
ATOM      1  C   UNL     1       3.035   6.586  18.906  0.00  0.00    +0.000 A 
ATOM      2  C   UNL     1       2.173   5.480  18.841  0.00  0.00    +0.000 A 
ATOM      3  C   UNL     1       2.434   4.433  17.957  0.00  0.00    +0.000 A 
ATOM      4  C   UNL     1       3.518   4.532  17.089  0.00  0.00    +0.000 A 
ATOM      5  C   UNL     1       4.401   5.612  17.176  0.00  0.00    +0.000 A 
ATOM      6  C   UNL     1       4.195   6.615  18.123  0.00  0.00    +0.000 A 
ENDROOT
BRANCH   5   7
ATOM      7  C   UNL     1       5.486   5.673  16.166  0.00  0.00    +0.000 C 
ATOM      8  O   UNL     1       6.226   6.649  16.212  0.00  0.00    +0.000 OA
ATOM      9  N   UNL     1       5.503   4.657  15.242  0.00  0.00    +0.000 N 
ATOM     10  C   UNL     1       6.388   4.692  14.197  0.00  0.00    +0.000 A 
ATOM     11  N   UNL     1       7.424   5.469  14.021  0.00  0.00    +0.000 NA
ATOM     12  C   UNL     1       7.975   5.231  12.782  0.00  0.00    +0.000 A 
ATOM     13  C   UNL     1       7.342   4.262  12.032  0.00  0.00    +0.000 A 
ATOM     14  S   UNL     1       6.046   3.589  12.939  0.00  0.00    +0.000 S 
ATOM     15  H   UNL     1       4.769   3.968  15.194  0.00  0.00    +0.000 HD
ENDBRANCH   5   7
BRANCH   1  16
ATOM     16  O   UNL     1       2.684   7.603  19.774  0.00  0.00    +0.000 OA
BRANCH  16  20
ATOM     17  C   UNL     1      -0.305  10.338  18.789  0.00  0.00    +0.000 A 
ATOM     18  C   UNL     1       0.552   9.893  17.782  0.00  0.00    +0.000 A 
ATOM     19  C   UNL     1       1.518   8.933  18.077  0.00  0.00    +0.000 A 
ATOM     20  C   UNL     1       1.683   8.479  19.394  0.00  0.00    +0.000 A 
ATOM     21  C   UNL     1       0.797   8.901  20.389  0.00  0.00    +0.000 A 
ATOM     22  C   UNL     1      -0.200   9.836  20.092  0.00  0.00    +0.000 A 
BRANCH  17  24
ATOM     23  C   UNL     1      -0.511  13.051  18.224  0.00  0.00    +0.000 C 
ATOM     24  S   UNL     1      -1.503  11.592  18.406  0.00  0.00    +0.000 S 
ATOM     25  O   UNL     1      -2.346  11.754  19.575  0.00  0.00    +0.000 OA
ATOM     26  O   UNL     1      -2.078  11.270  17.113  0.00  0.00    +0.000 OA
ENDBRANCH  17  24
ENDBRANCH  16  20
ENDBRANCH   1  16
BRANCH   3  27
ATOM     27  O   UNL     1       1.570   3.366  17.970  0.00  0.00    +0.000 OA
BRANCH  27  28
ATOM     28  C   UNL     1       1.584   2.550  19.149  0.00  0.00    +0.000 C 
ATOM     29  C   UNL     1       2.959   2.519  19.813  0.00  0.00    +0.000 C 
ATOM     30  C   UNL     1       2.689   2.237  21.279  0.00  0.00    +0.000 C 
ATOM     31  C   UNL     1       1.295   2.784  21.564  0.00  0.00    +0.000 C 
ATOM     32  C   UNL     1       0.686   3.172  20.219  0.00  0.00    +0.000 C 
ENDBRANCH  27  28
ENDBRANCH   3  27
TORSDOF 6
ENDMDL
MODEL 2
REMARK VINA RESULT:      -8.4      2.040      2.592
REMARK  Name = 
REMARK  7 active torsions:
REMARK  status: ('A' for Active; 'I' for Inactive)
REMARK    1  A    between atoms: C_1  and  S_2
REMARK    2  A    between atoms: S_2  and  C_5
REMARK    3  A    between atoms: C_8  and  O_9
REMARK    4  A    between atoms: O_9  and  C_10
REMARK    5  A    between atoms: C_12  and  O_13
REMARK    6  A    between atoms: O_13  and  C_14
REMARK    7  A    between atoms: C_20  and  C_21
REMARK                            x       y       z     vdW  Elec       q    Type
REMARK                         _______ _______ _______ _____ _____    ______ ____
ROOT
ATOM      1  C   UNL     1       2.407   7.489  18.160  0.00  0.00    +0.000 A 
ATOM      2  C   UNL     1       2.346   6.602  19.247  0.00  0.00    +0.000 A 
ATOM      3  C   UNL     1       3.352   5.655  19.442  0.00  0.00    +0.000 A 
ATOM      4  C   UNL     1       4.378   5.553  18.506  0.00  0.00    +0.000 A 
ATOM      5  C   UNL     1       4.464   6.458  17.445  0.00  0.00    +0.000 A 
ATOM      6  C   UNL     1       3.510   7.465  17.300  0.00  0.00    +0.000 A 
ENDROOT
BRANCH   5   7
ATOM      7  C   UNL     1       5.548   6.231  16.457  0.00  0.00    +0.000 C 
ATOM      8  O   UNL     1       6.457   7.052  16.438  0.00  0.00    +0.000 OA
ATOM      9  N   UNL     1       5.378   5.156  15.619  0.00  0.00    +0.000 N 
ATOM     10  C   UNL     1       6.260   4.937  14.593  0.00  0.00    +0.000 A 
ATOM     11  N   UNL     1       7.424   5.490  14.377  0.00  0.00    +0.000 NA
ATOM     12  C   UNL     1       7.927   5.050  13.174  0.00  0.00    +0.000 A 
ATOM     13  C   UNL     1       7.128   4.157  12.491  0.00  0.00    +0.000 A 
ATOM     14  S   UNL     1       5.725   3.815  13.423  0.00  0.00    +0.000 S 
ATOM     15  H   UNL     1       4.529   4.614  15.612  0.00  0.00    +0.000 HD
ENDBRANCH   5   7
BRANCH   1  16
ATOM     16  O   UNL     1       1.350   8.367  18.009  0.00  0.00    +0.000 OA
BRANCH  16  20
ATOM     17  C   UNL     1       1.351  12.027  20.005  0.00  0.00    +0.000 A 
ATOM     18  C   UNL     1       0.854  10.904  20.668  0.00  0.00    +0.000 A 
ATOM     19  C   UNL     1       0.901   9.660  20.041  0.00  0.00    +0.000 A 
ATOM     20  C   UNL     1       1.368   9.551  18.723  0.00  0.00    +0.000 A 
ATOM     21  C   UNL     1       1.897  10.673  18.079  0.00  0.00    +0.000 A 
ATOM     22  C   UNL     1       1.888  11.918  18.717  0.00  0.00    +0.000 A 
BRANCH  17  24
ATOM     23  C   UNL     1      -0.193  13.449  21.828  0.00  0.00    +0.000 C 
ATOM     24  S   UNL     1       1.244  13.611  20.801  0.00  0.00    +0.000 S 
ATOM     25  O   UNL     1       0.962  14.593  19.771  0.00  0.00    +0.000 OA
ATOM     26  O   UNL     1       2.404  13.749  21.662  0.00  0.00    +0.000 OA
ENDBRANCH  17  24
ENDBRANCH  16  20
ENDBRANCH   1  16
BRANCH   3  27
ATOM     27  O   UNL     1       3.248   4.843  20.543  0.00  0.00    +0.000 OA
BRANCH  27  28
ATOM     28  C   UNL     1       2.560   3.598  20.353  0.00  0.00    +0.000 C 
ATOM     29  C   UNL     1       1.137   3.800  19.836  0.00  0.00    +0.000 C 
ATOM     30  C   UNL     1       0.804   2.527  19.079  0.00  0.00    +0.000 C 
ATOM     31  C   UNL     1       2.133   1.972  18.581  0.00  0.00    +0.000 C 
ATOM     32  C   UNL     1       3.235   2.799  19.239  0.00  0.00    +0.000 C 
ENDBRANCH  27  28
ENDBRANCH   3  27
TORSDOF 6
ENDMDL
MODEL 3
REMARK VINA RESULT:      -8.4      2.060      2.446
REMARK  Name = 
REMARK  7 active torsions:
REMARK  status: ('A' for Active; 'I' for Inactive)
REMARK    1  A    between atoms: C_1  and  S_2
REMARK    2  A    between atoms: S_2  and  C_5
REMARK    3  A    between atoms: C_8  and  O_9
REMARK    4  A    between atoms: O_9  and  C_10
REMARK    5  A    between atoms: C_12  and  O_13
REMARK    6  A    between atoms: O_13  and  C_14
REMARK    7  A    between atoms: C_20  and  C_21
REMARK                            x       y       z     vdW  Elec       q    Type
REMARK                         _______ _______ _______ _____ _____    ______ ____
ROOT
ATOM      1  C   UNL     1       2.442   7.796  17.946  0.00  0.00    +0.000 A 
ATOM      2  C   UNL     1       2.359   7.000  19.100  0.00  0.00    +0.000 A 
ATOM      3  C   UNL     1       3.349   6.059  19.381  0.00  0.00    +0.000 A 
ATOM      4  C   UNL     1       4.382   5.867  18.467  0.00  0.00    +0.000 A 
ATOM      5  C   UNL     1       4.490   6.682  17.338  0.00  0.00    +0.000 A 
ATOM      6  C   UNL     1       3.553   7.687  17.102  0.00  0.00    +0.000 A 
ENDROOT
BRANCH   5   7
ATOM      7  C   UNL     1       5.579   6.361  16.382  0.00  0.00    +0.000 C 
ATOM      8  O   UNL     1       6.545   7.115  16.374  0.00  0.00    +0.000 OA
ATOM      9  N   UNL     1       5.355   5.286  15.556  0.00  0.00    +0.000 N 
ATOM     10  C   UNL     1       6.243   4.988  14.558  0.00  0.00    +0.000 A 
ATOM     11  N   UNL     1       7.449   5.453  14.363  0.00  0.00    +0.000 NA
ATOM     12  C   UNL     1       7.950   4.957  13.181  0.00  0.00    +0.000 A 
ATOM     13  C   UNL     1       7.107   4.110  12.492  0.00  0.00    +0.000 A 
ATOM     14  S   UNL     1       5.659   3.886  13.392  0.00  0.00    +0.000 S 
ATOM     15  H   UNL     1       4.469   4.806  15.536  0.00  0.00    +0.000 HD
ENDBRANCH   5   7
BRANCH   1  16
ATOM     16  O   UNL     1       1.399   8.673  17.714  0.00  0.00    +0.000 OA
BRANCH  16  20
ATOM     17  C   UNL     1       1.354  12.202  19.934  0.00  0.00    +0.000 A 
ATOM     18  C   UNL     1       2.140  12.145  18.783  0.00  0.00    +0.000 A 
ATOM     19  C   UNL     1       2.122  10.997  17.994  0.00  0.00    +0.000 A 
ATOM     20  C   UNL     1       1.383   9.875  18.397  0.00  0.00    +0.000 A 
ATOM     21  C   UNL     1       0.569   9.952  19.530  0.00  0.00    +0.000 A 
ATOM     22  C   UNL     1       0.553  11.115  20.307  0.00  0.00    +0.000 A 
BRANCH  17  24
ATOM     23  C   UNL     1       1.225  14.974  19.781  0.00  0.00    +0.000 C 
ATOM     24  S   UNL     1       1.421  13.656  20.951  0.00  0.00    +0.000 S 
ATOM     25  O   UNL     1       2.759  13.732  21.506  0.00  0.00    +0.000 OA
ATOM     26  O   UNL     1       0.257  13.640  21.818  0.00  0.00    +0.000 OA
ENDBRANCH  17  24
ENDBRANCH  16  20
ENDBRANCH   1  16
BRANCH   3  27
ATOM     27  O   UNL     1       3.223   5.339  20.543  0.00  0.00    +0.000 OA
BRANCH  27  28
ATOM     28  C   UNL     1       2.007   4.596  20.704  0.00  0.00    +0.000 C 
ATOM     29  C   UNL     1       1.675   3.761  19.469  0.00  0.00    +0.000 C 
ATOM     30  C   UNL     1       0.844   2.601  19.984  0.00  0.00    +0.000 C 
ATOM     31  C   UNL     1       1.274   2.382  21.429  0.00  0.00    +0.000 C 
ATOM     32  C   UNL     1       2.181   3.550  21.805  0.00  0.00    +0.000 C 
ENDBRANCH  27  28
ENDBRANCH   3  27
TORSDOF 6
ENDMDL
MODEL 4
REMARK VINA RESULT:      -8.2      2.158      2.538
REMARK  Name = 
REMARK  7 active torsions:
REMARK  status: ('A' for Active; 'I' for Inactive)
REMARK    1  A    between atoms: C_1  and  S_2
REMARK    2  A    between atoms: S_2  and  C_5
REMARK    3  A    between atoms: C_8  and  O_9
REMARK    4  A    between atoms: O_9  and  C_10
REMARK    5  A    between atoms: C_12  and  O_13
REMARK    6  A    between atoms: O_13  and  C_14
REMARK    7  A    between atoms: C_20  and  C_21
REMARK                            x       y       z     vdW  Elec       q    Type
REMARK                         _______ _______ _______ _____ _____    ______ ____
ROOT
ATOM      1  C   UNL     1       2.398   7.638  18.080  0.00  0.00    +0.000 A 
ATOM      2  C   UNL     1       2.324   6.781  19.190  0.00  0.00    +0.000 A 
ATOM      3  C   UNL     1       3.322   5.833  19.418  0.00  0.00    +0.000 A 
ATOM      4  C   UNL     1       4.353   5.698  18.493  0.00  0.00    +0.000 A 
ATOM      5  C   UNL     1       4.453   6.572  17.408  0.00  0.00    +0.000 A 
ATOM      6  C   UNL     1       3.508   7.582  17.228  0.00  0.00    +0.000 A 
ENDROOT
BRANCH   5   7
ATOM      7  C   UNL     1       5.541   6.311  16.433  0.00  0.00    +0.000 C 
ATOM      8  O   UNL     1       6.458   7.123  16.401  0.00  0.00    +0.000 OA
ATOM      9  N   UNL     1       5.368   5.216  15.621  0.00  0.00    +0.000 N 
ATOM     10  C   UNL     1       6.254   4.964  14.608  0.00  0.00    +0.000 A 
ATOM     11  N   UNL     1       7.425   5.501  14.386  0.00  0.00    +0.000 NA
ATOM     12  C   UNL     1       7.933   5.026  13.198  0.00  0.00    +0.000 A 
ATOM     13  C   UNL     1       7.130   4.123  12.533  0.00  0.00    +0.000 A 
ATOM     14  S   UNL     1       5.717   3.818  13.462  0.00  0.00    +0.000 S 
ATOM     15  H   UNL     1       4.513   4.682  15.622  0.00  0.00    +0.000 HD
ENDBRANCH   5   7
BRANCH   1  16
ATOM     16  O   UNL     1       1.349   8.518  17.897  0.00  0.00    +0.000 OA
BRANCH  16  20
ATOM     17  C   UNL     1       1.752  12.332  19.534  0.00  0.00    +0.000 A 
ATOM     18  C   UNL     1       2.379  12.056  18.319  0.00  0.00    +0.000 A 
ATOM     19  C   UNL     1       2.207  10.807  17.725  0.00  0.00    +0.000 A 
ATOM     20  C   UNL     1       1.476   9.807  18.383  0.00  0.00    +0.000 A 
ATOM     21  C   UNL     1       0.821  10.102  19.582  0.00  0.00    +0.000 A 
ATOM     22  C   UNL     1       0.959  11.366  20.165  0.00  0.00    +0.000 A 
BRANCH  17  24
ATOM     23  C   UNL     1       3.400  14.566  19.401  0.00  0.00    +0.000 C 
ATOM     24  S   UNL     1       2.017  13.913  20.298  0.00  0.00    +0.000 S 
ATOM     25  O   UNL     1       2.433  13.666  21.666  0.00  0.00    +0.000 OA
ATOM     26  O   UNL     1       0.858  14.739  20.012  0.00  0.00    +0.000 OA
ENDBRANCH  17  24
ENDBRANCH  16  20
ENDBRANCH   1  16
BRANCH   3  27
ATOM     27  O   UNL     1       3.205   5.052  20.540  0.00  0.00    +0.000 OA
BRANCH  27  28
ATOM     28  C   UNL     1       2.581   3.773  20.364  0.00  0.00    +0.000 C 
ATOM     29  C   UNL     1       1.059   3.854  20.471  0.00  0.00    +0.000 C 
ATOM     30  C   UNL     1       0.539   2.694  19.644  0.00  0.00    +0.000 C 
ATOM     31  C   UNL     1       1.596   2.426  18.580  0.00  0.00    +0.000 C 
ATOM     32  C   UNL     1       2.812   3.278  18.936  0.00  0.00    +0.000 C 
ENDBRANCH  27  28
ENDBRANCH   3  27
TORSDOF 6
ENDMDL
MODEL 5
REMARK VINA RESULT:      -8.2      2.444      2.907
REMARK  Name = 
REMARK  7 active torsions:
REMARK  status: ('A' for Active; 'I' for Inactive)
REMARK    1  A    between atoms: C_1  and  S_2
REMARK    2  A    between atoms: S_2  and  C_5
REMARK    3  A    between atoms: C_8  and  O_9
REMARK    4  A    between atoms: O_9  and  C_10
REMARK    5  A    between atoms: C_12  and  O_13
REMARK    6  A    between atoms: O_13  and  C_14
REMARK    7  A    between atoms: C_20  and  C_21
REMARK                            x       y       z     vdW  Elec       q    Type
REMARK                         _______ _______ _______ _____ _____    ______ ____
ROOT
ATOM      1  C   UNL     1       2.222   8.525  18.074  0.00  0.00    +0.000 A 
ATOM      2  C   UNL     1       1.886   7.692  19.152  0.00  0.00    +0.000 A 
ATOM      3  C   UNL     1       2.671   6.580  19.456  0.00  0.00    +0.000 A 
ATOM      4  C   UNL     1       3.749   6.265  18.632  0.00  0.00    +0.000 A 
ATOM      5  C   UNL     1       4.110   7.112  17.581  0.00  0.00    +0.000 A 
ATOM      6  C   UNL     1       3.382   8.276  17.333  0.00  0.00    +0.000 A 
ENDROOT
BRANCH   5   7
ATOM      7  C   UNL     1       5.226   6.663  16.711  0.00  0.00    +0.000 C 
ATOM      8  O   UNL     1       6.234   7.360  16.705  0.00  0.00    +0.000 OA
ATOM      9  N   UNL     1       4.981   5.545  15.952  0.00  0.00    +0.000 N 
ATOM     10  C   UNL     1       5.900   5.126  15.027  0.00  0.00    +0.000 A 
ATOM     11  N   UNL     1       7.140   5.509  14.867  0.00  0.00    +0.000 NA
ATOM     12  C   UNL     1       7.671   4.902  13.752  0.00  0.00    +0.000 A 
ATOM     13  C   UNL     1       6.815   4.055  13.078  0.00  0.00    +0.000 A 
ATOM     14  S   UNL     1       5.313   3.977  13.909  0.00  0.00    +0.000 S 
ATOM     15  H   UNL     1       4.071   5.114  15.915  0.00  0.00    +0.000 HD
ENDBRANCH   5   7
BRANCH   1  16
ATOM     16  O   UNL     1       1.369   9.581  17.809  0.00  0.00    +0.000 OA
BRANCH  16  20
ATOM     17  C   UNL     1       1.719  12.931  20.266  0.00  0.00    +0.000 A 
ATOM     18  C   UNL     1       2.400  12.920  19.048  0.00  0.00    +0.000 A 
ATOM     19  C   UNL     1       2.248  11.837  18.185  0.00  0.00    +0.000 A 
ATOM     20  C   UNL     1       1.482  10.728  18.573  0.00  0.00    +0.000 A 
ATOM     21  C   UNL     1       0.774  10.761  19.778  0.00  0.00    +0.000 A 
ATOM     22  C   UNL     1       0.891  11.863  20.632  0.00  0.00    +0.000 A 
BRANCH  17  24
ATOM     23  C   UNL     1       1.791  15.709  20.309  0.00  0.00    +0.000 C 
ATOM     24  S   UNL     1       1.958  14.300  21.372  0.00  0.00    +0.000 S 
ATOM     25  O   UNL     1       3.329  14.240  21.842  0.00  0.00    +0.000 OA
ATOM     26  O   UNL     1       0.850  14.304  22.311  0.00  0.00    +0.000 OA
ENDBRANCH  17  24
ENDBRANCH  16  20
ENDBRANCH   1  16
BRANCH   3  27
ATOM     27  O   UNL     1       2.306   5.828  20.544  0.00  0.00    +0.000 OA
BRANCH  27  28
ATOM     28  C   UNL     1       2.406   4.404  20.397  0.00  0.00    +0.000 C 
ATOM     29  C   UNL     1       2.231   3.675  21.728  0.00  0.00    +0.000 C 
ATOM     30  C   UNL     1       1.700   2.301  21.363  0.00  0.00    +0.000 C 
ATOM     31  C   UNL     1       0.950   2.475  20.048  0.00  0.00    +0.000 C 
ATOM     32  C   UNL     1       1.241   3.888  19.552  0.00  0.00    +0.000 C 
ENDBRANCH  27  28
ENDBRANCH   3  27
TORSDOF 6
ENDMDL
MODEL 6
REMARK VINA RESULT:      -8.1      4.732     10.580
REMARK  Name = 
REMARK  7 active torsions:
REMARK  status: ('A' for Active; 'I' for Inactive)
REMARK    1  A    between atoms: C_1  and  S_2
REMARK    2  A    between atoms: S_2  and  C_5
REMARK    3  A    between atoms: C_8  and  O_9
REMARK    4  A    between atoms: O_9  and  C_10
REMARK    5  A    between atoms: C_12  and  O_13
REMARK    6  A    between atoms: O_13  and  C_14
REMARK    7  A    between atoms: C_20  and  C_21
REMARK                            x       y       z     vdW  Elec       q    Type
REMARK                         _______ _______ _______ _____ _____    ______ ____
ROOT
ATOM      1  C   UNL     1       1.289   9.633  18.646  0.00  0.00    +0.000 A 
ATOM      2  C   UNL     1       1.988  10.694  18.048  0.00  0.00    +0.000 A 
ATOM      3  C   UNL     1       1.945  11.971  18.607  0.00  0.00    +0.000 A 
ATOM      4  C   UNL     1       1.143  12.197  19.722  0.00  0.00    +0.000 A 
ATOM      5  C   UNL     1       0.476  11.138  20.343  0.00  0.00    +0.000 A 
ATOM      6  C   UNL     1       0.592   9.842  19.841  0.00  0.00    +0.000 A 
ENDROOT
BRANCH   5   7
ATOM      7  C   UNL     1      -0.412  11.481  21.482  0.00  0.00    +0.000 C 
ATOM      8  O   UNL     1      -0.072  11.077  22.587  0.00  0.00    +0.000 OA
ATOM      9  N   UNL     1      -1.563  12.159  21.160  0.00  0.00    +0.000 N 
ATOM     10  C   UNL     1      -2.505  12.410  22.122  0.00  0.00    +0.000 A 
ATOM     11  N   UNL     1      -2.410  12.288  23.420  0.00  0.00    +0.000 NA
ATOM     12  C   UNL     1      -3.630  12.551  23.999  0.00  0.00    +0.000 A 
ATOM     13  C   UNL     1      -4.642  12.877  23.121  0.00  0.00    +0.000 A 
ATOM     14  S   UNL     1      -4.022  12.910  21.518  0.00  0.00    +0.000 S 
ATOM     15  H   UNL     1      -1.832  12.329  20.205  0.00  0.00    +0.000 HD
ENDBRANCH   5   7
BRANCH   1  16
ATOM     16  O   UNL     1       1.343   8.409  18.007  0.00  0.00    +0.000 OA
BRANCH  16  20
ATOM     17  C   UNL     1       4.550   5.835  18.699  0.00  0.00    +0.000 A 
ATOM     18  C   UNL     1       4.604   6.691  17.598  0.00  0.00    +0.000 A 
ATOM     19  C   UNL     1       3.571   7.602  17.384  0.00  0.00    +0.000 A 
ATOM     20  C   UNL     1       2.445   7.601  18.221  0.00  0.00    +0.000 A 
ATOM     21  C   UNL     1       2.415   6.767  19.341  0.00  0.00    +0.000 A 
ATOM     22  C   UNL     1       3.466   5.877  19.584  0.00  0.00    +0.000 A 
BRANCH  17  24
ATOM     23  C   UNL     1       6.565   4.513  17.314  0.00  0.00    +0.000 C 
ATOM     24  S   UNL     1       5.853   4.652  18.933  0.00  0.00    +0.000 S 
ATOM     25  O   UNL     1       5.231   3.386  19.271  0.00  0.00    +0.000 OA
ATOM     26  O   UNL     1       6.840   5.253  19.813  0.00  0.00    +0.000 OA
ENDBRANCH  17  24
ENDBRANCH  16  20
ENDBRANCH   1  16
BRANCH   3  27
ATOM     27  O   UNL     1       2.679  12.954  17.991  0.00  0.00    +0.000 OA
BRANCH  27  28
ATOM     28  C   UNL     1       3.020  14.092  18.794  0.00  0.00    +0.000 C 
ATOM     29  C   UNL     1       4.414  14.627  18.474  0.00  0.00    +0.000 C 
ATOM     30  C   UNL     1       4.370  16.099  18.841  0.00  0.00    +0.000 C 
ATOM     31  C   UNL     1       2.918  16.531  18.685  0.00  0.00    +0.000 C 
ATOM     32  C   UNL     1       2.100  15.264  18.448  0.00  0.00    +0.000 C 
ENDBRANCH  27  28
ENDBRANCH   3  27
TORSDOF 6
ENDMDL
MODEL 7
REMARK VINA RESULT:      -8.1      1.832      2.502
REMARK  Name = 
REMARK  7 active torsions:
REMARK  status: ('A' for Active; 'I' for Inactive)
REMARK    1  A    between atoms: C_1  and  S_2
REMARK    2  A    between atoms: S_2  and  C_5
REMARK    3  A    between atoms: C_8  and  O_9
REMARK    4  A    between atoms: O_9  and  C_10
REMARK    5  A    between atoms: C_12  and  O_13
REMARK    6  A    between atoms: O_13  and  C_14
REMARK    7  A    between atoms: C_20  and  C_21
REMARK                            x       y       z     vdW  Elec       q    Type
REMARK                         _______ _______ _______ _____ _____    ______ ____
ROOT
ATOM      1  C   UNL     1       2.360   7.746  18.052  0.00  0.00    +0.000 A 
ATOM      2  C   UNL     1       2.221   6.886  19.153  0.00  0.00    +0.000 A 
ATOM      3  C   UNL     1       3.177   5.902  19.406  0.00  0.00    +0.000 A 
ATOM      4  C   UNL     1       4.233   5.736  18.513  0.00  0.00    +0.000 A 
ATOM      5  C   UNL     1       4.397   6.614  17.438  0.00  0.00    +0.000 A 
ATOM      6  C   UNL     1       3.494   7.657  17.236  0.00  0.00    +0.000 A 
ENDROOT
BRANCH   5   7
ATOM      7  C   UNL     1       5.507   6.320  16.497  0.00  0.00    +0.000 C 
ATOM      8  O   UNL     1       6.472   7.075  16.530  0.00  0.00    +0.000 OA
ATOM      9  N   UNL     1       5.302   5.267  15.639  0.00  0.00    +0.000 N 
ATOM     10  C   UNL     1       6.212   4.997  14.652  0.00  0.00    +0.000 A 
ATOM     11  N   UNL     1       7.421   5.468  14.495  0.00  0.00    +0.000 NA
ATOM     12  C   UNL     1       7.948   5.005  13.311  0.00  0.00    +0.000 A 
ATOM     13  C   UNL     1       7.121   4.176  12.582  0.00  0.00    +0.000 A 
ATOM     14  S   UNL     1       5.655   3.926  13.444  0.00  0.00    +0.000 S 
ATOM     15  H   UNL     1       4.418   4.787  15.587  0.00  0.00    +0.000 HD
ENDBRANCH   5   7
BRANCH   1  16
ATOM     16  O   UNL     1       1.349   8.663  17.842  0.00  0.00    +0.000 OA
BRANCH  16  20
ATOM     17  C   UNL     1      -0.080  11.018  20.972  0.00  0.00    +0.000 A 
ATOM     18  C   UNL     1       0.768   9.951  21.270  0.00  0.00    +0.000 A 
ATOM     19  C   UNL     1       1.305   9.189  20.234  0.00  0.00    +0.000 A 
ATOM     20  C   UNL     1       0.931   9.441  18.906  0.00  0.00    +0.000 A 
ATOM     21  C   UNL     1       0.111  10.534  18.612  0.00  0.00    +0.000 A 
ATOM     22  C   UNL     1      -0.401  11.327  19.644  0.00  0.00    +0.000 A 
BRANCH  17  24
ATOM     23  C   UNL     1      -2.383  12.406  21.674  0.00  0.00    +0.000 C 
ATOM     24  S   UNL     1      -0.789  11.952  22.305  0.00  0.00    +0.000 S 
ATOM     25  O   UNL     1       0.004  13.157  22.458  0.00  0.00    +0.000 OA
ATOM     26  O   UNL     1      -0.984  11.044  23.422  0.00  0.00    +0.000 OA
ENDBRANCH  17  24
ENDBRANCH  16  20
ENDBRANCH   1  16
BRANCH   3  27
ATOM     27  O   UNL     1       2.997   5.119  20.518  0.00  0.00    +0.000 OA
BRANCH  27  28
ATOM     28  C   UNL     1       2.328   3.867  20.314  0.00  0.00    +0.000 C 
ATOM     29  C   UNL     1       1.315   3.935  19.172  0.00  0.00    +0.000 C 
ATOM     30  C   UNL     1       1.210   2.515  18.648  0.00  0.00    +0.000 C 
ATOM     31  C   UNL     1       2.548   1.853  18.950  0.00  0.00    +0.000 C 
ATOM     32  C   UNL     1       3.331   2.815  19.839  0.00  0.00    +0.000 C 
ENDBRANCH  27  28
ENDBRANCH   3  27
TORSDOF 6
ENDMDL
MODEL 8
REMARK VINA RESULT:      -8.1      3.535      5.869
REMARK  Name = 
REMARK  7 active torsions:
REMARK  status: ('A' for Active; 'I' for Inactive)
REMARK    1  A    between atoms: C_1  and  S_2
REMARK    2  A    between atoms: S_2  and  C_5
REMARK    3  A    between atoms: C_8  and  O_9
REMARK    4  A    between atoms: O_9  and  C_10
REMARK    5  A    between atoms: C_12  and  O_13
REMARK    6  A    between atoms: O_13  and  C_14
REMARK    7  A    between atoms: C_20  and  C_21
REMARK                            x       y       z     vdW  Elec       q    Type
REMARK                         _______ _______ _______ _____ _____    ______ ____
ROOT
ATOM      1  C   UNL     1       4.447   5.649  17.530  0.00  0.00    +0.000 A 
ATOM      2  C   UNL     1       4.849   4.785  16.500  0.00  0.00    +0.000 A 
ATOM      3  C   UNL     1       6.178   4.756  16.080  0.00  0.00    +0.000 A 
ATOM      4  C   UNL     1       7.087   5.647  16.645  0.00  0.00    +0.000 A 
ATOM      5  C   UNL     1       6.702   6.482  17.697  0.00  0.00    +0.000 A 
ATOM      6  C   UNL     1       5.395   6.446  18.182  0.00  0.00    +0.000 A 
ENDROOT
BRANCH   5   7
ATOM      7  C   UNL     1       7.715   7.449  18.190  0.00  0.00    +0.000 C 
ATOM      8  O   UNL     1       8.475   7.051  19.065  0.00  0.00    +0.000 OA
ATOM      9  N   UNL     1       7.645   8.713  17.658  0.00  0.00    +0.000 N 
ATOM     10  C   UNL     1       8.454   9.708  18.139  0.00  0.00    +0.000 A 
ATOM     11  N   UNL     1       9.490   9.616  18.931  0.00  0.00    +0.000 NA
ATOM     12  C   UNL     1       9.946  10.876  19.242  0.00  0.00    +0.000 A 
ATOM     13  C   UNL     1       9.243  11.917  18.672  0.00  0.00    +0.000 A 
ATOM     14  S   UNL     1       8.002  11.285  17.664  0.00  0.00    +0.000 S 
ATOM     15  H   UNL     1       6.896   8.992  17.044  0.00  0.00    +0.000 HD
ENDBRANCH   5   7
BRANCH   1  16
ATOM     16  O   UNL     1       3.105   5.652  17.858  0.00  0.00    +0.000 OA
BRANCH  16  20
ATOM     17  C   UNL     1       1.413   9.050  19.584  0.00  0.00    +0.000 A 
ATOM     18  C   UNL     1       1.643   7.934  20.390  0.00  0.00    +0.000 A 
ATOM     19  C   UNL     1       2.264   6.811  19.847  0.00  0.00    +0.000 A 
ATOM     20  C   UNL     1       2.579   6.769  18.481  0.00  0.00    +0.000 A 
ATOM     21  C   UNL     1       2.379   7.903  17.689  0.00  0.00    +0.000 A 
ATOM     22  C   UNL     1       1.791   9.049  18.236  0.00  0.00    +0.000 A 
BRANCH  17  24
ATOM     23  C   UNL     1       1.144  11.797  19.265  0.00  0.00    +0.000 C 
ATOM     24  S   UNL     1       0.583  10.456  20.281  0.00  0.00    +0.000 S 
ATOM     25  O   UNL     1       1.106  10.646  21.621  0.00  0.00    +0.000 OA
ATOM     26  O   UNL     1      -0.841  10.282  20.057  0.00  0.00    +0.000 OA
ENDBRANCH  17  24
ENDBRANCH  16  20
ENDBRANCH   1  16
BRANCH   3  27
ATOM     27  O   UNL     1       6.509   3.863  15.092  0.00  0.00    +0.000 OA
BRANCH  27  28
ATOM     28  C   UNL     1       6.330   4.312  13.741  0.00  0.00    +0.000 C 
ATOM     29  C   UNL     1       7.562   5.042  13.209  0.00  0.00    +0.000 C 
ATOM     30  C   UNL     1       7.518   4.853  11.704  0.00  0.00    +0.000 C 
ATOM     31  C   UNL     1       6.771   3.547  11.464  0.00  0.00    +0.000 C 
ATOM     32  C   UNL     1       6.198   3.108  12.809  0.00  0.00    +0.000 C 
ENDBRANCH  27  28
ENDBRANCH   3  27
TORSDOF 6
ENDMDL
MODEL 9
REMARK VINA RESULT:      -8.1      1.833      2.468
REMARK  Name = 
REMARK  7 active torsions:
REMARK  status: ('A' for Active; 'I' for Inactive)
REMARK    1  A    between atoms: C_1  and  S_2
REMARK    2  A    between atoms: S_2  and  C_5
REMARK    3  A    between atoms: C_8  and  O_9
REMARK    4  A    between atoms: O_9  and  C_10
REMARK    5  A    between atoms: C_12  and  O_13
REMARK    6  A    between atoms: O_13  and  C_14
REMARK    7  A    between atoms: C_20  and  C_21
REMARK                            x       y       z     vdW  Elec       q    Type
REMARK                         _______ _______ _______ _____ _____    ______ ____
ROOT
ATOM      1  C   UNL     1       2.187   8.363  17.963  0.00  0.00    +0.000 A 
ATOM      2  C   UNL     1       1.897   7.557  19.075  0.00  0.00    +0.000 A 
ATOM      3  C   UNL     1       2.735   6.493  19.414  0.00  0.00    +0.000 A 
ATOM      4  C   UNL     1       3.820   6.197  18.593  0.00  0.00    +0.000 A 
ATOM      5  C   UNL     1       4.135   7.018  17.508  0.00  0.00    +0.000 A 
ATOM      6  C   UNL     1       3.353   8.137  17.222  0.00  0.00    +0.000 A 
ENDROOT
BRANCH   5   7
ATOM      7  C   UNL     1       5.264   6.588  16.647  0.00  0.00    +0.000 C 
ATOM      8  O   UNL     1       6.274   7.282  16.674  0.00  0.00    +0.000 OA
ATOM      9  N   UNL     1       5.029   5.490  15.855  0.00  0.00    +0.000 N 
ATOM     10  C   UNL     1       5.963   5.091  14.937  0.00  0.00    +0.000 A 
ATOM     11  N   UNL     1       7.206   5.473  14.807  0.00  0.00    +0.000 NA
ATOM     12  C   UNL     1       7.754   4.892  13.686  0.00  0.00    +0.000 A 
ATOM     13  C   UNL     1       6.908   4.065  12.977  0.00  0.00    +0.000 A 
ATOM     14  S   UNL     1       5.391   3.971  13.781  0.00  0.00    +0.000 S 
ATOM     15  H   UNL     1       4.119   5.063  15.793  0.00  0.00    +0.000 HD
ENDBRANCH   5   7
BRANCH   1  16
ATOM     16  O   UNL     1       1.286   9.367  17.665  0.00  0.00    +0.000 OA
BRANCH  16  20
ATOM     17  C   UNL     1      -0.539  11.400  20.815  0.00  0.00    +0.000 A 
ATOM     18  C   UNL     1       0.850  11.267  20.820  0.00  0.00    +0.000 A 
ATOM     19  C   UNL     1       1.484  10.645  19.747  0.00  0.00    +0.000 A 
ATOM     20  C   UNL     1       0.727  10.083  18.708  0.00  0.00    +0.000 A 
ATOM     21  C   UNL     1      -0.660  10.252  18.692  0.00  0.00    +0.000 A 
ATOM     22  C   UNL     1      -1.301  10.909  19.748  0.00  0.00    +0.000 A 
BRANCH  17  24
ATOM     23  C   UNL     1      -0.517  13.726  22.337  0.00  0.00    +0.000 C 
ATOM     24  S   UNL     1      -1.335  12.157  22.211  0.00  0.00    +0.000 S 
ATOM     25  O   UNL     1      -0.996  11.368  23.380  0.00  0.00    +0.000 OA
ATOM     26  O   UNL     1      -2.721  12.395  21.850  0.00  0.00    +0.000 OA
ENDBRANCH  17  24
ENDBRANCH  16  20
ENDBRANCH   1  16
BRANCH   3  27
ATOM     27  O   UNL     1       2.412   5.768  20.533  0.00  0.00    +0.000 OA
BRANCH  27  28
ATOM     28  C   UNL     1       1.455   4.714  20.354  0.00  0.00    +0.000 C 
ATOM     29  C   UNL     1       1.503   4.125  18.946  0.00  0.00    +0.000 C 
ATOM     30  C   UNL     1       0.999   2.701  19.092  0.00  0.00    +0.000 C 
ATOM     31  C   UNL     1       1.332   2.280  20.518  0.00  0.00    +0.000 C 
ATOM     32  C   UNL     1       1.818   3.529  21.249  0.00  0.00    +0.000 C 
ENDBRANCH  27  28
ENDBRANCH   3  27
TORSDOF 6
ENDMDL
