MODEL 1
REMARK VINA RESULT:      -8.3      0.000      0.000
REMARK  Name = 
REMARK  7 active torsions:
REMARK  status: ('A' for Active; 'I' for Inactive)
REMARK    1  A    between atoms: C_1  and  C_2
REMARK    2  A    between atoms: C_2  and  N_3
REMARK    3  A    between atoms: C_2  and  C_20
REMARK    4  A    between atoms: C_2  and  C_23
REMARK    5  A    between atoms: N_3  and  C_4
REMARK    6  A    between atoms: C_6  and  C_7
REMARK    7  A    between atoms: C_20  and  O_22
REMARK                            x       y       z     vdW  Elec       q    Type
REMARK                         _______ _______ _______ _____ _____    ______ ____
ROOT
ATOM      1  C   UNL     1       3.730   5.428  19.075  0.00  0.00    +0.000 A 
ATOM      2  N   UNL     1       2.888   6.404  19.427  0.00  0.00    +0.000 NA
ATOM      3  C   UNL     1       2.769   7.461  18.609  0.00  0.00    +0.000 A 
ATOM      4  N   UNL     1       3.466   7.627  17.478  0.00  0.00    +0.000 NA
ATOM      5  C   UNL     1       4.305   6.641  17.132  0.00  0.00    +0.000 A 
ATOM      6  C   UNL     1       5.063   6.736  15.971  0.00  0.00    +0.000 A 
ATOM      7  N   UNL     1       5.945   5.807  15.522  0.00  0.00    +0.000 NA
ATOM      8  C   UNL     1       6.084   4.702  16.270  0.00  0.00    +0.000 A 
ATOM      9  C   UNL     1       5.379   4.486  17.441  0.00  0.00    +0.000 A 
ATOM     10  C   UNL     1       4.473   5.479  17.884  0.00  0.00    +0.000 A 
ENDROOT
BRANCH   3  11
ATOM     11  C   UNL     1       1.789   8.490  18.973  0.00  0.00    +0.000 A 
ATOM     12  C   UNL     1       1.338   8.634  20.292  0.00  0.00    +0.000 A 
ATOM     13  C   UNL     1       0.400   9.608  20.583  0.00  0.00    +0.000 A 
ATOM     14  N   UNL     1      -0.113  10.456  19.665  0.00  0.00    +0.000 NA
ATOM     15  C   UNL     1       0.334  10.321  18.401  0.00  0.00    +0.000 A 
ATOM     16  C   UNL     1       1.267   9.373  18.015  0.00  0.00    +0.000 A 
ENDBRANCH   3  11
BRANCH   1  17
ATOM     17  N   UNL     1       3.767   4.270  19.897  0.00  0.00    +0.000 N 
ATOM     18  H   UNL     1       4.643   3.807  19.617  0.00  0.00    +0.000 HD
BRANCH  17  20
ATOM     19  C   UNL     1       1.392   4.051  19.081  0.00  0.00    +0.000 C 
ATOM     20  C   UNL     1       2.594   3.282  19.667  0.00  0.00    +0.000 C 
BRANCH  20  21
ATOM     21  C   UNL     1       2.929   1.982  18.880  0.00  0.00    +0.000 C 
ATOM     22  F   UNL     1       4.125   1.460  19.244  0.00  0.00    +0.000 F 
ATOM     23  F   UNL     1       1.989   1.021  19.089  0.00  0.00    +0.000 F 
ATOM     24  F   UNL     1       2.970   2.129  17.538  0.00  0.00    +0.000 F 
ENDBRANCH  20  21
BRANCH  20  25
ATOM     25  C   UNL     1       2.108   2.851  21.065  0.00  0.00    +0.000 C 
ATOM     26  O   UNL     1       2.792   2.422  21.977  0.00  0.00    +0.000 OA
BRANCH  25  27
ATOM     27  O   UNL     1       0.744   2.882  21.151  0.00  0.00    +0.000 OA
ATOM     28  H   UNL     1       0.422   1.966  21.317  0.00  0.00    +0.000 HD
ENDBRANCH  25  27
ENDBRANCH  20  25
ENDBRANCH  17  20
ENDBRANCH   1  17
TORSDOF 6
ENDMDL
MODEL 2
REMARK VINA RESULT:      -8.3      0.703      1.446
REMARK  Name = 
REMARK  7 active torsions:
REMARK  status: ('A' for Active; 'I' for Inactive)
REMARK    1  A    between atoms: C_1  and  C_2
REMARK    2  A    between atoms: C_2  and  N_3
REMARK    3  A    between atoms: C_2  and  C_20
REMARK    4  A    between atoms: C_2  and  C_23
REMARK    5  A    between atoms: N_3  and  C_4
REMARK    6  A    between atoms: C_6  and  C_7
REMARK    7  A    between atoms: C_20  and  O_22
REMARK                            x       y       z     vdW  Elec       q    Type
REMARK                         _______ _______ _______ _____ _____    ______ ____
ROOT
ATOM      1  C   UNL     1       3.611   5.550  19.250  0.00  0.00    +0.000 A 
ATOM      2  N   UNL     1       2.759   6.533  19.558  0.00  0.00    +0.000 NA
ATOM      3  C   UNL     1       2.647   7.561  18.704  0.00  0.00    +0.000 A 
ATOM      4  N   UNL     1       3.359   7.693  17.576  0.00  0.00    +0.000 NA
ATOM      5  C   UNL     1       4.206   6.700  17.275  0.00  0.00    +0.000 A 
ATOM      6  C   UNL     1       4.979   6.760  16.122  0.00  0.00    +0.000 A 
ATOM      7  N   UNL     1       5.871   5.821  15.716  0.00  0.00    +0.000 NA
ATOM      8  C   UNL     1       6.005   4.742  16.502  0.00  0.00    +0.000 A 
ATOM      9  C   UNL     1       5.285   4.562  17.671  0.00  0.00    +0.000 A 
ATOM     10  C   UNL     1       4.369   5.565  18.069  0.00  0.00    +0.000 A 
ENDROOT
BRANCH   3  11
ATOM     11  C   UNL     1       1.657   8.598  19.019  0.00  0.00    +0.000 A 
ATOM     12  C   UNL     1       1.150   9.448  18.027  0.00  0.00    +0.000 A 
ATOM     13  C   UNL     1       0.231  10.421  18.376  0.00  0.00    +0.000 A 
ATOM     14  N   UNL     1      -0.229  10.605  19.633  0.00  0.00    +0.000 NA
ATOM     15  C   UNL     1       0.253   9.776  20.580  0.00  0.00    +0.000 A 
ATOM     16  C   UNL     1       1.178   8.777  20.326  0.00  0.00    +0.000 A 
ENDBRANCH   3  11
BRANCH   1  17
ATOM     17  N   UNL     1       3.642   4.421  20.111  0.00  0.00    +0.000 N 
ATOM     18  H   UNL     1       4.400   3.844  19.720  0.00  0.00    +0.000 HD
BRANCH  17  20
ATOM     19  C   UNL     1       1.146   4.501  20.455  0.00  0.00    +0.000 C 
ATOM     20  C   UNL     1       2.338   3.581  20.116  0.00  0.00    +0.000 C 
BRANCH  20  21
ATOM     21  C   UNL     1       2.084   2.690  18.867  0.00  0.00    +0.000 C 
ATOM     22  F   UNL     1       1.210   1.687  19.126  0.00  0.00    +0.000 F 
ATOM     23  F   UNL     1       1.571   3.416  17.837  0.00  0.00    +0.000 F 
ATOM     24  F   UNL     1       3.190   2.109  18.354  0.00  0.00    +0.000 F 
ENDBRANCH  20  21
BRANCH  20  25
ATOM     25  C   UNL     1       2.432   2.639  21.333  0.00  0.00    +0.000 C 
ATOM     26  O   UNL     1       1.563   2.421  22.158  0.00  0.00    +0.000 OA
BRANCH  25  27
ATOM     27  O   UNL     1       3.695   2.138  21.478  0.00  0.00    +0.000 OA
ATOM     28  H   UNL     1       3.628   1.232  21.860  0.00  0.00    +0.000 HD
ENDBRANCH  25  27
ENDBRANCH  20  25
ENDBRANCH  17  20
ENDBRANCH   1  17
TORSDOF 6
ENDMDL
MODEL 3
REMARK VINA RESULT:      -8.2      3.557      4.924
REMARK  Name = 
REMARK  7 active torsions:
REMARK  status: ('A' for Active; 'I' for Inactive)
REMARK    1  A    between atoms: C_1  and  C_2
REMARK    2  A    between atoms: C_2  and  N_3
REMARK    3  A    between atoms: C_2  and  C_20
REMARK    4  A    between atoms: C_2  and  C_23
REMARK    5  A    between atoms: N_3  and  C_4
REMARK    6  A    between atoms: C_6  and  C_7
REMARK    7  A    between atoms: C_20  and  O_22
REMARK                            x       y       z     vdW  Elec       q    Type
REMARK                         _______ _______ _______ _____ _____    ______ ____
ROOT
ATOM      1  C   UNL     1       4.482   5.293  18.903  0.00  0.00    +0.000 A 
ATOM      2  N   UNL     1       3.893   6.480  19.081  0.00  0.00    +0.000 NA
ATOM      3  C   UNL     1       2.563   6.504  19.254  0.00  0.00    +0.000 A 
ATOM      4  N   UNL     1       1.773   5.423  19.224  0.00  0.00    +0.000 NA
ATOM      5  C   UNL     1       2.375   4.238  19.050  0.00  0.00    +0.000 A 
ATOM      6  C   UNL     1       1.626   3.068  19.009  0.00  0.00    +0.000 A 
ATOM      7  N   UNL     1       2.121   1.816  18.834  0.00  0.00    +0.000 NA
ATOM      8  C   UNL     1       3.452   1.711  18.695  0.00  0.00    +0.000 A 
ATOM      9  C   UNL     1       4.304   2.801  18.728  0.00  0.00    +0.000 A 
ATOM     10  C   UNL     1       3.754   4.093  18.904  0.00  0.00    +0.000 A 
ENDROOT
BRANCH   3  11
ATOM     11  C   UNL     1       1.939   7.806  19.518  0.00  0.00    +0.000 A 
ATOM     12  C   UNL     1       1.803   8.767  18.508  0.00  0.00    +0.000 A 
ATOM     13  C   UNL     1       1.224   9.987  18.809  0.00  0.00    +0.000 A 
ATOM     14  N   UNL     1       0.759  10.316  20.034  0.00  0.00    +0.000 NA
ATOM     15  C   UNL     1       0.882   9.383  20.998  0.00  0.00    +0.000 A 
ATOM     16  C   UNL     1       1.451   8.138  20.792  0.00  0.00    +0.000 A 
ENDBRANCH   3  11
BRANCH   1  17
ATOM     17  N   UNL     1       5.900   5.275  18.825  0.00  0.00    +0.000 N 
ATOM     18  H   UNL     1       6.189   5.886  19.603  0.00  0.00    +0.000 HD
BRANCH  17  20
ATOM     19  C   UNL     1       5.344   5.972  16.467  0.00  0.00    +0.000 C 
ATOM     20  C   UNL     1       6.478   5.852  17.506  0.00  0.00    +0.000 C 
BRANCH  20  21
ATOM     21  C   UNL     1       7.329   7.148  17.632  0.00  0.00    +0.000 C 
ATOM     22  F   UNL     1       6.557   8.251  17.785  0.00  0.00    +0.000 F 
ATOM     23  F   UNL     1       8.164   7.089  18.705  0.00  0.00    +0.000 F 
ATOM     24  F   UNL     1       8.142   7.395  16.583  0.00  0.00    +0.000 F 
ENDBRANCH  20  21
BRANCH  20  25
ATOM     25  C   UNL     1       7.397   4.762  16.921  0.00  0.00    +0.000 C 
ATOM     26  O   UNL     1       7.519   4.459  15.748  0.00  0.00    +0.000 OA
BRANCH  25  27
ATOM     27  O   UNL     1       8.008   4.041  17.909  0.00  0.00    +0.000 OA
ATOM     28  H   UNL     1       7.458   3.246  18.099  0.00  0.00    +0.000 HD
ENDBRANCH  25  27
ENDBRANCH  20  25
ENDBRANCH  17  20
ENDBRANCH   1  17
TORSDOF 6
ENDMDL
MODEL 4
REMARK VINA RESULT:      -8.2      3.175      4.788
REMARK  Name = 
REMARK  7 active torsions:
REMARK  status: ('A' for Active; 'I' for Inactive)
REMARK    1  A    between atoms: C_1  and  C_2
REMARK    2  A    between atoms: C_2  and  N_3
REMARK    3  A    between atoms: C_2  and  C_20
REMARK    4  A    between atoms: C_2  and  C_23
REMARK    5  A    between atoms: N_3  and  C_4
REMARK    6  A    between atoms: C_6  and  C_7
REMARK    7  A    between atoms: C_20  and  O_22
REMARK                            x       y       z     vdW  Elec       q    Type
REMARK                         _______ _______ _______ _____ _____    ______ ____
ROOT
ATOM      1  C   UNL     1       3.870   4.886  18.447  0.00  0.00    +0.000 A 
ATOM      2  N   UNL     1       3.372   6.117  18.295  0.00  0.00    +0.000 NA
ATOM      3  C   UNL     1       2.546   6.586  19.243  0.00  0.00    +0.000 A 
ATOM      4  N   UNL     1       2.152   5.891  20.318  0.00  0.00    +0.000 NA
ATOM      5  C   UNL     1       2.661   4.659  20.463  0.00  0.00    +0.000 A 
ATOM      6  C   UNL     1       2.303   3.874  21.552  0.00  0.00    +0.000 A 
ATOM      7  N   UNL     1       2.747   2.616  21.802  0.00  0.00    +0.000 NA
ATOM      8  C   UNL     1       3.611   2.098  20.916  0.00  0.00    +0.000 A 
ATOM      9  C   UNL     1       4.050   2.784  19.796  0.00  0.00    +0.000 A 
ATOM     10  C   UNL     1       3.560   4.091  19.562  0.00  0.00    +0.000 A 
ENDROOT
BRANCH   3  11
ATOM     11  C   UNL     1       2.064   7.965  19.099  0.00  0.00    +0.000 A 
ATOM     12  C   UNL     1       1.331   8.590  20.116  0.00  0.00    +0.000 A 
ATOM     13  C   UNL     1       0.883   9.885  19.928  0.00  0.00    +0.000 A 
ATOM     14  N   UNL     1       1.119  10.607  18.811  0.00  0.00    +0.000 NA
ATOM     15  C   UNL     1       1.836  10.004  17.842  0.00  0.00    +0.000 A 
ATOM     16  C   UNL     1       2.322   8.711  17.939  0.00  0.00    +0.000 A 
ENDBRANCH   3  11
BRANCH   1  17
ATOM     17  N   UNL     1       4.822   4.445  17.490  0.00  0.00    +0.000 N 
ATOM     18  H   UNL     1       5.195   3.581  17.907  0.00  0.00    +0.000 HD
BRANCH  17  20
ATOM     19  C   UNL     1       5.441   6.779  16.766  0.00  0.00    +0.000 C 
ATOM     20  C   UNL     1       5.999   5.427  17.256  0.00  0.00    +0.000 C 
BRANCH  20  21
ATOM     21  C   UNL     1       7.018   5.575  18.423  0.00  0.00    +0.000 C 
ATOM     22  F   UNL     1       7.933   4.575  18.429  0.00  0.00    +0.000 F 
ATOM     23  F   UNL     1       7.703   6.748  18.336  0.00  0.00    +0.000 F 
ATOM     24  F   UNL     1       6.467   5.595  19.655  0.00  0.00    +0.000 F 
ENDBRANCH  20  21
BRANCH  20  25
ATOM     25  C   UNL     1       6.779   4.890  16.040  0.00  0.00    +0.000 C 
ATOM     26  O   UNL     1       7.533   5.517  15.319  0.00  0.00    +0.000 OA
BRANCH  25  27
ATOM     27  O   UNL     1       6.430   3.599  15.754  0.00  0.00    +0.000 OA
ATOM     28  H   UNL     1       6.614   3.044  16.547  0.00  0.00    +0.000 HD
ENDBRANCH  25  27
ENDBRANCH  20  25
ENDBRANCH  17  20
ENDBRANCH   1  17
TORSDOF 6
ENDMDL
MODEL 5
REMARK VINA RESULT:      -8.2      3.563      4.900
REMARK  Name = 
REMARK  7 active torsions:
REMARK  status: ('A' for Active; 'I' for Inactive)
REMARK    1  A    between atoms: C_1  and  C_2
REMARK    2  A    between atoms: C_2  and  N_3
REMARK    3  A    between atoms: C_2  and  C_20
REMARK    4  A    between atoms: C_2  and  C_23
REMARK    5  A    between atoms: N_3  and  C_4
REMARK    6  A    between atoms: C_6  and  C_7
REMARK    7  A    between atoms: C_20  and  O_22
REMARK                            x       y       z     vdW  Elec       q    Type
REMARK                         _______ _______ _______ _____ _____    ______ ____
ROOT
ATOM      1  C   UNL     1       4.426   5.157  18.525  0.00  0.00    +0.000 A 
ATOM      2  N   UNL     1       3.912   6.384  18.653  0.00  0.00    +0.000 NA
ATOM      3  C   UNL     1       2.593   6.497  18.868  0.00  0.00    +0.000 A 
ATOM      4  N   UNL     1       1.742   5.464  18.926  0.00  0.00    +0.000 NA
ATOM      5  C   UNL     1       2.268   4.238  18.801  0.00  0.00    +0.000 A 
ATOM      6  C   UNL     1       1.453   3.113  18.852  0.00  0.00    +0.000 A 
ATOM      7  N   UNL     1       1.869   1.827  18.734  0.00  0.00    +0.000 NA
ATOM      8  C   UNL     1       3.185   1.636  18.559  0.00  0.00    +0.000 A 
ATOM      9  C   UNL     1       4.100   2.674  18.500  0.00  0.00    +0.000 A 
ATOM     10  C   UNL     1       3.630   4.004  18.619  0.00  0.00    +0.000 A 
ENDROOT
BRANCH   3  11
ATOM     11  C   UNL     1       2.054   7.846  19.077  0.00  0.00    +0.000 A 
ATOM     12  C   UNL     1       1.500   8.227  20.306  0.00  0.00    +0.000 A 
ATOM     13  C   UNL     1       0.990   9.505  20.450  0.00  0.00    +0.000 A 
ATOM     14  N   UNL     1       1.000  10.433  19.469  0.00  0.00    +0.000 NA
ATOM     15  C   UNL     1       1.545  10.064  18.293  0.00  0.00    +0.000 A 
ATOM     16  C   UNL     1       2.076   8.807  18.055  0.00  0.00    +0.000 A 
ENDBRANCH   3  11
BRANCH   1  17
ATOM     17  N   UNL     1       5.837   5.050  18.402  0.00  0.00    +0.000 N 
ATOM     18  H   UNL     1       6.185   5.480  19.271  0.00  0.00    +0.000 HD
BRANCH  17  20
ATOM     19  C   UNL     1       5.329   6.064  16.151  0.00  0.00    +0.000 C 
ATOM     20  C   UNL     1       6.436   5.822  17.198  0.00  0.00    +0.000 C 
BRANCH  20  21
ATOM     21  C   UNL     1       7.248   7.106  17.534  0.00  0.00    +0.000 C 
ATOM     22  F   UNL     1       7.966   6.970  18.675  0.00  0.00    +0.000 F 
ATOM     23  F   UNL     1       8.125   7.412  16.539  0.00  0.00    +0.000 F 
ATOM     24  F   UNL     1       6.503   8.223  17.684  0.00  0.00    +0.000 F 
ENDBRANCH  20  21
BRANCH  20  25
ATOM     25  C   UNL     1       7.401   4.848  16.494  0.00  0.00    +0.000 C 
ATOM     26  O   UNL     1       7.492   4.646  15.296  0.00  0.00    +0.000 OA
BRANCH  25  27
ATOM     27  O   UNL     1       8.100   4.098  17.397  0.00  0.00    +0.000 OA
ATOM     28  H   UNL     1       7.949   4.472  18.296  0.00  0.00    +0.000 HD
ENDBRANCH  25  27
ENDBRANCH  20  25
ENDBRANCH  17  20
ENDBRANCH   1  17
TORSDOF 6
ENDMDL
MODEL 6
REMARK VINA RESULT:      -8.2      3.173      4.849
REMARK  Name = 
REMARK  7 active torsions:
REMARK  status: ('A' for Active; 'I' for Inactive)
REMARK    1  A    between atoms: C_1  and  C_2
REMARK    2  A    between atoms: C_2  and  N_3
REMARK    3  A    between atoms: C_2  and  C_20
REMARK    4  A    between atoms: C_2  and  C_23
REMARK    5  A    between atoms: N_3  and  C_4
REMARK    6  A    between atoms: C_6  and  C_7
REMARK    7  A    between atoms: C_20  and  O_22
REMARK                            x       y       z     vdW  Elec       q    Type
REMARK                         _______ _______ _______ _____ _____    ______ ____
ROOT
ATOM      1  C   UNL     1       3.872   4.875  18.456  0.00  0.00    +0.000 A 
ATOM      2  N   UNL     1       3.375   6.106  18.301  0.00  0.00    +0.000 NA
ATOM      3  C   UNL     1       2.547   6.575  19.247  0.00  0.00    +0.000 A 
ATOM      4  N   UNL     1       2.150   5.881  20.321  0.00  0.00    +0.000 NA
ATOM      5  C   UNL     1       2.659   4.650  20.469  0.00  0.00    +0.000 A 
ATOM      6  C   UNL     1       2.299   3.866  21.558  0.00  0.00    +0.000 A 
ATOM      7  N   UNL     1       2.742   2.609  21.811  0.00  0.00    +0.000 NA
ATOM      8  C   UNL     1       3.608   2.089  20.927  0.00  0.00    +0.000 A 
ATOM      9  C   UNL     1       4.050   2.774  19.808  0.00  0.00    +0.000 A 
ATOM     10  C   UNL     1       3.560   4.081  19.571  0.00  0.00    +0.000 A 
ENDROOT
BRANCH   3  11
ATOM     11  C   UNL     1       2.065   7.954  19.100  0.00  0.00    +0.000 A 
ATOM     12  C   UNL     1       2.317   8.693  17.937  0.00  0.00    +0.000 A 
ATOM     13  C   UNL     1       1.857   9.995  17.851  0.00  0.00    +0.000 A 
ATOM     14  N   UNL     1       1.156  10.611  18.828  0.00  0.00    +0.000 NA
ATOM     15  C   UNL     1       0.906   9.889  19.939  0.00  0.00    +0.000 A 
ATOM     16  C   UNL     1       1.330   8.583  20.116  0.00  0.00    +0.000 A 
ENDBRANCH   3  11
BRANCH   1  17
ATOM     17  N   UNL     1       4.827   4.433  17.501  0.00  0.00    +0.000 N 
ATOM     18  H   UNL     1       5.208   3.575  17.925  0.00  0.00    +0.000 HD
BRANCH  17  20
ATOM     19  C   UNL     1       5.426   6.771  16.773  0.00  0.00    +0.000 C 
ATOM     20  C   UNL     1       5.997   5.422  17.258  0.00  0.00    +0.000 C 
BRANCH  20  21
ATOM     21  C   UNL     1       7.025   5.575  18.415  0.00  0.00    +0.000 C 
ATOM     22  F   UNL     1       6.427   5.566  19.632  0.00  0.00    +0.000 F 
ATOM     23  F   UNL     1       7.935   4.564  18.406  0.00  0.00    +0.000 F 
ATOM     24  F   UNL     1       7.769   6.701  18.365  0.00  0.00    +0.000 F 
ENDBRANCH  20  21
BRANCH  20  25
ATOM     25  C   UNL     1       6.768   4.889  16.034  0.00  0.00    +0.000 C 
ATOM     26  O   UNL     1       7.524   5.518  15.316  0.00  0.00    +0.000 OA
BRANCH  25  27
ATOM     27  O   UNL     1       6.409   3.604  15.739  0.00  0.00    +0.000 OA
ATOM     28  H   UNL     1       7.205   3.031  15.828  0.00  0.00    +0.000 HD
ENDBRANCH  25  27
ENDBRANCH  20  25
ENDBRANCH  17  20
ENDBRANCH   1  17
TORSDOF 6
ENDMDL
MODEL 7
REMARK VINA RESULT:      -8.1      1.585      1.912
REMARK  Name = 
REMARK  7 active torsions:
REMARK  status: ('A' for Active; 'I' for Inactive)
REMARK    1  A    between atoms: C_1  and  C_2
REMARK    2  A    between atoms: C_2  and  N_3
REMARK    3  A    between atoms: C_2  and  C_20
REMARK    4  A    between atoms: C_2  and  C_23
REMARK    5  A    between atoms: N_3  and  C_4
REMARK    6  A    between atoms: C_6  and  C_7
REMARK    7  A    between atoms: C_20  and  O_22
REMARK                            x       y       z     vdW  Elec       q    Type
REMARK                         _______ _______ _______ _____ _____    ______ ____
ROOT
ATOM      1  C   UNL     1       3.264   4.845  17.831  0.00  0.00    +0.000 A 
ATOM      2  N   UNL     1       2.585   5.866  18.364  0.00  0.00    +0.000 NA
ATOM      3  C   UNL     1       2.978   7.112  18.060  0.00  0.00    +0.000 A 
ATOM      4  N   UNL     1       4.031   7.408  17.287  0.00  0.00    +0.000 NA
ATOM      5  C   UNL     1       4.701   6.378  16.754  0.00  0.00    +0.000 A 
ATOM      6  C   UNL     1       5.804   6.601  15.939  0.00  0.00    +0.000 A 
ATOM      7  N   UNL     1       6.561   5.641  15.349  0.00  0.00    +0.000 NA
ATOM      8  C   UNL     1       6.200   4.369  15.575  0.00  0.00    +0.000 A 
ATOM      9  C   UNL     1       5.116   4.019  16.361  0.00  0.00    +0.000 A 
ATOM     10  C   UNL     1       4.353   5.045  16.968  0.00  0.00    +0.000 A 
ENDROOT
BRANCH   3  11
ATOM     11  C   UNL     1       2.181   8.222  18.595  0.00  0.00    +0.000 A 
ATOM     12  C   UNL     1       1.686   8.197  19.905  0.00  0.00    +0.000 A 
ATOM     13  C   UNL     1       0.925   9.259  20.360  0.00  0.00    +0.000 A 
ATOM     14  N   UNL     1       0.631  10.347  19.614  0.00  0.00    +0.000 NA
ATOM     15  C   UNL     1       1.121  10.370  18.359  0.00  0.00    +0.000 A 
ATOM     16  C   UNL     1       1.887   9.352  17.816  0.00  0.00    +0.000 A 
ENDBRANCH   3  11
BRANCH   1  17
ATOM     17  N   UNL     1       2.772   3.535  18.079  0.00  0.00    +0.000 N 
ATOM     18  H   UNL     1       1.773   3.607  17.839  0.00  0.00    +0.000 HD
BRANCH  17  20
ATOM     19  C   UNL     1       3.467   4.229  20.400  0.00  0.00    +0.000 C 
ATOM     20  C   UNL     1       2.892   3.074  19.555  0.00  0.00    +0.000 C 
BRANCH  20  21
ATOM     21  C   UNL     1       1.622   2.430  20.183  0.00  0.00    +0.000 C 
ATOM     22  F   UNL     1       0.579   3.295  20.219  0.00  0.00    +0.000 F 
ATOM     23  F   UNL     1       1.219   1.340  19.477  0.00  0.00    +0.000 F 
ATOM     24  F   UNL     1       1.784   1.976  21.444  0.00  0.00    +0.000 F 
ENDBRANCH  20  21
BRANCH  20  25
ATOM     25  C   UNL     1       4.003   2.006  19.587  0.00  0.00    +0.000 C 
ATOM     26  O   UNL     1       4.861   1.869  20.441  0.00  0.00    +0.000 OA
BRANCH  25  27
ATOM     27  O   UNL     1       4.014   1.262  18.441  0.00  0.00    +0.000 OA
ATOM     28  H   UNL     1       4.296   1.841  17.696  0.00  0.00    +0.000 HD
ENDBRANCH  25  27
ENDBRANCH  20  25
ENDBRANCH  17  20
ENDBRANCH   1  17
TORSDOF 6
ENDMDL
MODEL 8
REMARK VINA RESULT:      -8.1      1.585      2.072
REMARK  Name = 
REMARK  7 active torsions:
REMARK  status: ('A' for Active; 'I' for Inactive)
REMARK    1  A    between atoms: C_1  and  C_2
REMARK    2  A    between atoms: C_2  and  N_3
REMARK    3  A    between atoms: C_2  and  C_20
REMARK    4  A    between atoms: C_2  and  C_23
REMARK    5  A    between atoms: N_3  and  C_4
REMARK    6  A    between atoms: C_6  and  C_7
REMARK    7  A    between atoms: C_20  and  O_22
REMARK                            x       y       z     vdW  Elec       q    Type
REMARK                         _______ _______ _______ _____ _____    ______ ____
ROOT
ATOM      1  C   UNL     1       3.285   4.835  17.841  0.00  0.00    +0.000 A 
ATOM      2  N   UNL     1       2.596   5.852  18.367  0.00  0.00    +0.000 NA
ATOM      3  C   UNL     1       2.983   7.100  18.065  0.00  0.00    +0.000 A 
ATOM      4  N   UNL     1       4.040   7.403  17.301  0.00  0.00    +0.000 NA
ATOM      5  C   UNL     1       4.722   6.377  16.775  0.00  0.00    +0.000 A 
ATOM      6  C   UNL     1       5.830   6.607  15.969  0.00  0.00    +0.000 A 
ATOM      7  N   UNL     1       6.599   5.652  15.387  0.00  0.00    +0.000 NA
ATOM      8  C   UNL     1       6.245   4.377  15.611  0.00  0.00    +0.000 A 
ATOM      9  C   UNL     1       5.156   4.020  16.388  0.00  0.00    +0.000 A 
ATOM     10  C   UNL     1       4.381   5.042  16.987  0.00  0.00    +0.000 A 
ENDROOT
BRANCH   3  11
ATOM     11  C   UNL     1       2.173   8.205  18.592  0.00  0.00    +0.000 A 
ATOM     12  C   UNL     1       1.870   9.325  17.806  0.00  0.00    +0.000 A 
ATOM     13  C   UNL     1       1.118  10.350  18.352  0.00  0.00    +0.000 A 
ATOM     14  N   UNL     1       0.637  10.338  19.615  0.00  0.00    +0.000 NA
ATOM     15  C   UNL     1       0.922   9.253  20.361  0.00  0.00    +0.000 A 
ATOM     16  C   UNL     1       1.670   8.182  19.902  0.00  0.00    +0.000 A 
ENDBRANCH   3  11
BRANCH   1  17
ATOM     17  N   UNL     1       2.801   3.522  18.086  0.00  0.00    +0.000 N 
ATOM     18  H   UNL     1       1.804   3.585  17.831  0.00  0.00    +0.000 HD
BRANCH  17  20
ATOM     19  C   UNL     1       3.480   4.220  20.411  0.00  0.00    +0.000 C 
ATOM     20  C   UNL     1       2.902   3.066  19.564  0.00  0.00    +0.000 C 
BRANCH  20  21
ATOM     21  C   UNL     1       1.621   2.437  20.184  0.00  0.00    +0.000 C 
ATOM     22  F   UNL     1       1.206   1.346  19.496  0.00  0.00    +0.000 F 
ATOM     23  F   UNL     1       1.834   2.046  21.470  0.00  0.00    +0.000 F 
ATOM     24  F   UNL     1       0.561   3.269  20.254  0.00  0.00    +0.000 F 
ENDBRANCH  20  21
BRANCH  20  25
ATOM     25  C   UNL     1       4.004   1.989  19.612  0.00  0.00    +0.000 C 
ATOM     26  O   UNL     1       4.855   1.851  20.472  0.00  0.00    +0.000 OA
BRANCH  25  27
ATOM     27  O   UNL     1       4.015   1.236  18.471  0.00  0.00    +0.000 OA
ATOM     28  H   UNL     1       3.452   0.442  18.618  0.00  0.00    +0.000 HD
ENDBRANCH  25  27
ENDBRANCH  20  25
ENDBRANCH  17  20
ENDBRANCH   1  17
TORSDOF 6
ENDMDL
MODEL 9
REMARK VINA RESULT:      -8.1      1.627      1.896
REMARK  Name = 
REMARK  7 active torsions:
REMARK  status: ('A' for Active; 'I' for Inactive)
REMARK    1  A    between atoms: C_1  and  C_2
REMARK    2  A    between atoms: C_2  and  N_3
REMARK    3  A    between atoms: C_2  and  C_20
REMARK    4  A    between atoms: C_2  and  C_23
REMARK    5  A    between atoms: N_3  and  C_4
REMARK    6  A    between atoms: C_6  and  C_7
REMARK    7  A    between atoms: C_20  and  O_22
REMARK                            x       y       z     vdW  Elec       q    Type
REMARK                         _______ _______ _______ _____ _____    ______ ____
ROOT
ATOM      1  C   UNL     1       3.318   5.070  17.731  0.00  0.00    +0.000 A 
ATOM      2  N   UNL     1       2.566   6.061  18.218  0.00  0.00    +0.000 NA
ATOM      3  C   UNL     1       3.035   7.315  18.122  0.00  0.00    +0.000 A 
ATOM      4  N   UNL     1       4.227   7.642  17.605  0.00  0.00    +0.000 NA
ATOM      5  C   UNL     1       4.971   6.641  17.116  0.00  0.00    +0.000 A 
ATOM      6  C   UNL     1       6.219   6.897  16.561  0.00  0.00    +0.000 A 
ATOM      7  N   UNL     1       7.060   5.968  16.041  0.00  0.00    +0.000 NA
ATOM      8  C   UNL     1       6.638   4.695  16.064  0.00  0.00    +0.000 A 
ATOM      9  C   UNL     1       5.411   4.314  16.582  0.00  0.00    +0.000 A 
ATOM     10  C   UNL     1       4.562   5.308  17.124  0.00  0.00    +0.000 A 
ENDROOT
BRANCH   3  11
ATOM     11  C   UNL     1       2.168   8.400  18.596  0.00  0.00    +0.000 A 
ATOM     12  C   UNL     1       1.585   8.362  19.870  0.00  0.00    +0.000 A 
ATOM     13  C   UNL     1       0.761   9.400  20.267  0.00  0.00    +0.000 A 
ATOM     14  N   UNL     1       0.484  10.476  19.497  0.00  0.00    +0.000 NA
ATOM     15  C   UNL     1       1.058  10.511  18.279  0.00  0.00    +0.000 A 
ATOM     16  C   UNL     1       1.892   9.518  17.794  0.00  0.00    +0.000 A 
ENDBRANCH   3  11
BRANCH   1  17
ATOM     17  N   UNL     1       2.763   3.762  17.747  0.00  0.00    +0.000 N 
ATOM     18  H   UNL     1       1.783   3.917  17.468  0.00  0.00    +0.000 HD
BRANCH  17  20
ATOM     19  C   UNL     1       3.418   4.030  20.166  0.00  0.00    +0.000 C 
ATOM     20  C   UNL     1       2.775   3.076  19.138  0.00  0.00    +0.000 C 
BRANCH  20  21
ATOM     21  C   UNL     1       1.425   2.475  19.624  0.00  0.00    +0.000 C 
ATOM     22  F   UNL     1       1.575   1.728  20.745  0.00  0.00    +0.000 F 
ATOM     23  F   UNL     1       0.522   3.452  19.908  0.00  0.00    +0.000 F 
ATOM     24  F   UNL     1       0.800   1.687  18.723  0.00  0.00    +0.000 F 
ENDBRANCH  20  21
BRANCH  20  25
ATOM     25  C   UNL     1       3.780   1.912  19.038  0.00  0.00    +0.000 C 
ATOM     26  O   UNL     1       3.667   0.904  18.365  0.00  0.00    +0.000 OA
BRANCH  25  27
ATOM     27  O   UNL     1       4.812   2.067  19.922  0.00  0.00    +0.000 OA
ATOM     28  H   UNL     1       4.792   2.989  20.265  0.00  0.00    +0.000 HD
ENDBRANCH  25  27
ENDBRANCH  20  25
ENDBRANCH  17  20
ENDBRANCH   1  17
TORSDOF 6
ENDMDL
