MODEL 1
REMARK VINA RESULT:      -7.0      0.000      0.000
REMARK  Name = 
REMARK  1 active torsions:
REMARK  status: ('A' for Active; 'I' for Inactive)
REMARK    1  A    between atoms: C_5  and  N_6
REMARK                            x       y       z     vdW  Elec       q    Type
REMARK                         _______ _______ _______ _____ _____    ______ ____
ROOT
ATOM      1  N   UNL     1       6.290   4.443  18.595  0.00  0.00    +0.000 N 
ATOM      2  C   UNL     1       5.031   4.245  19.029  0.00  0.00    +0.000 A 
ATOM      3  N   UNL     1       3.973   5.029  19.008  0.00  0.00    +0.000 NA
ATOM      4  C   UNL     1       3.013   4.318  19.671  0.00  0.00    +0.000 A 
ATOM      5  C   UNL     1       1.686   4.635  19.985  0.00  0.00    +0.000 A 
ATOM      6  C   UNL     1       0.940   3.697  20.713  0.00  0.00    +0.000 A 
ATOM      7  C   UNL     1       1.502   2.478  21.112  0.00  0.00    +0.000 A 
ATOM      8  C   UNL     1       2.827   2.144  20.797  0.00  0.00    +0.000 A 
ATOM      9  C   UNL     1       3.530   3.100  20.075  0.00  0.00    +0.000 A 
ATOM     10  O   UNL     1       4.825   3.037  19.644  0.00  0.00    +0.000 OA
ATOM     11  H   UNL     1       6.936   3.690  18.786  0.00  0.00    +0.000 HD
ENDROOT
BRANCH   1  16
ATOM     12 CL   UNL     1       8.804   9.769  17.796  0.00  0.00    +0.000 Cl
ATOM     13  C   UNL     1       8.103   8.211  17.986  0.00  0.00    +0.000 A 
ATOM     14  C   UNL     1       8.508   7.389  19.032  0.00  0.00    +0.000 A 
ATOM     15  C   UNL     1       7.915   6.133  19.198  0.00  0.00    +0.000 A 
ATOM     16  C   UNL     1       6.897   5.688  18.338  0.00  0.00    +0.000 A 
ATOM     17  C   UNL     1       6.539   6.522  17.269  0.00  0.00    +0.000 A 
ATOM     18  C   UNL     1       7.128   7.778  17.096  0.00  0.00    +0.000 A 
ENDBRANCH   1  16
TORSDOF 1
ENDMDL
MODEL 2
REMARK VINA RESULT:      -6.9      1.141      1.150
REMARK  Name = 
REMARK  1 active torsions:
REMARK  status: ('A' for Active; 'I' for Inactive)
REMARK    1  A    between atoms: C_5  and  N_6
REMARK                            x       y       z     vdW  Elec       q    Type
REMARK                         _______ _______ _______ _____ _____    ______ ____
ROOT
ATOM      1  N   UNL     1       5.721   4.780  17.300  0.00  0.00    +0.000 N 
ATOM      2  C   UNL     1       4.557   4.473  17.901  0.00  0.00    +0.000 A 
ATOM      3  N   UNL     1       3.736   5.203  18.629  0.00  0.00    +0.000 NA
ATOM      4  C   UNL     1       2.775   4.323  19.037  0.00  0.00    +0.000 A 
ATOM      5  C   UNL     1       1.648   4.504  19.849  0.00  0.00    +0.000 A 
ATOM      6  C   UNL     1       0.845   3.387  20.119  0.00  0.00    +0.000 A 
ATOM      7  C   UNL     1       1.158   2.127  19.592  0.00  0.00    +0.000 A 
ATOM      8  C   UNL     1       2.278   1.934  18.771  0.00  0.00    +0.000 A 
ATOM      9  C   UNL     1       3.045   3.066  18.527  0.00  0.00    +0.000 A 
ATOM     10  O   UNL     1       4.181   3.160  17.775  0.00  0.00    +0.000 OA
ATOM     11  H   UNL     1       6.188   4.010  16.843  0.00  0.00    +0.000 HD
ENDROOT
BRANCH   1  16
ATOM     12 CL   UNL     1       9.161   9.362  18.882  0.00  0.00    +0.000 Cl
ATOM     13  C   UNL     1       8.194   8.031  18.382  0.00  0.00    +0.000 A 
ATOM     14  C   UNL     1       8.303   6.808  19.035  0.00  0.00    +0.000 A 
ATOM     15  C   UNL     1       7.496   5.736  18.641  0.00  0.00    +0.000 A 
ATOM     16  C   UNL     1       6.555   5.874  17.607  0.00  0.00    +0.000 A 
ATOM     17  C   UNL     1       6.496   7.107  16.942  0.00  0.00    +0.000 A 
ATOM     18  C   UNL     1       7.302   8.182  17.328  0.00  0.00    +0.000 A 
ENDBRANCH   1  16
TORSDOF 1
ENDMDL
MODEL 3
REMARK VINA RESULT:      -6.9      4.131      6.715
REMARK  Name = 
REMARK  1 active torsions:
REMARK  status: ('A' for Active; 'I' for Inactive)
REMARK    1  A    between atoms: C_5  and  N_6
REMARK                            x       y       z     vdW  Elec       q    Type
REMARK                         _______ _______ _______ _____ _____    ______ ____
ROOT
ATOM      1  N   UNL     1       5.427   5.656  17.560  0.00  0.00    +0.000 N 
ATOM      2  C   UNL     1       5.604   5.232  16.294  0.00  0.00    +0.000 A 
ATOM      3  N   UNL     1       4.891   4.416  15.545  0.00  0.00    +0.000 NA
ATOM      4  C   UNL     1       5.615   4.299  14.392  0.00  0.00    +0.000 A 
ATOM      5  C   UNL     1       5.379   3.553  13.231  0.00  0.00    +0.000 A 
ATOM      6  C   UNL     1       6.334   3.614  12.205  0.00  0.00    +0.000 A 
ATOM      7  C   UNL     1       7.487   4.398  12.336  0.00  0.00    +0.000 A 
ATOM      8  C   UNL     1       7.731   5.156  13.489  0.00  0.00    +0.000 A 
ATOM      9  C   UNL     1       6.761   5.069  14.480  0.00  0.00    +0.000 A 
ATOM     10  O   UNL     1       6.749   5.691  15.695  0.00  0.00    +0.000 OA
ATOM     11  H   UNL     1       6.161   6.245  17.924  0.00  0.00    +0.000 HD
ENDROOT
BRANCH   1  16
ATOM     12 CL   UNL     1       2.006   2.827  21.513  0.00  0.00    +0.000 Cl
ATOM     13  C   UNL     1       3.017   3.672  20.408  0.00  0.00    +0.000 A 
ATOM     14  C   UNL     1       4.081   3.017  19.798  0.00  0.00    +0.000 A 
ATOM     15  C   UNL     1       4.885   3.701  18.880  0.00  0.00    +0.000 A 
ATOM     16  C   UNL     1       4.626   5.039  18.541  0.00  0.00    +0.000 A 
ATOM     17  C   UNL     1       3.572   5.685  19.202  0.00  0.00    +0.000 A 
ATOM     18  C   UNL     1       2.765   5.008  20.123  0.00  0.00    +0.000 A 
ENDBRANCH   1  16
TORSDOF 1
ENDMDL
MODEL 4
REMARK VINA RESULT:      -6.9      4.162      6.839
REMARK  Name = 
REMARK  1 active torsions:
REMARK  status: ('A' for Active; 'I' for Inactive)
REMARK    1  A    between atoms: C_5  and  N_6
REMARK                            x       y       z     vdW  Elec       q    Type
REMARK                         _______ _______ _______ _____ _____    ______ ____
ROOT
ATOM      1  N   UNL     1       5.332   5.496  17.496  0.00  0.00    +0.000 N 
ATOM      2  C   UNL     1       5.554   5.117  16.223  0.00  0.00    +0.000 A 
ATOM      3  N   UNL     1       4.885   4.304  15.431  0.00  0.00    +0.000 NA
ATOM      4  C   UNL     1       5.641   4.243  14.295  0.00  0.00    +0.000 A 
ATOM      5  C   UNL     1       5.457   3.527  13.106  0.00  0.00    +0.000 A 
ATOM      6  C   UNL     1       6.435   3.646  12.108  0.00  0.00    +0.000 A 
ATOM      7  C   UNL     1       7.561   4.459  12.292  0.00  0.00    +0.000 A 
ATOM      8  C   UNL     1       7.753   5.188  13.474  0.00  0.00    +0.000 A 
ATOM      9  C   UNL     1       6.761   5.043  14.436  0.00  0.00    +0.000 A 
ATOM     10  O   UNL     1       6.699   5.627  15.669  0.00  0.00    +0.000 OA
ATOM     11  H   UNL     1       6.039   6.095  17.897  0.00  0.00    +0.000 HD
ENDROOT
BRANCH   1  16
ATOM     12 CL   UNL     1       1.933   2.920  21.636  0.00  0.00    +0.000 Cl
ATOM     13  C   UNL     1       2.899   3.631  20.404  0.00  0.00    +0.000 A 
ATOM     14  C   UNL     1       2.551   4.870  19.875  0.00  0.00    +0.000 A 
ATOM     15  C   UNL     1       3.354   5.456  18.891  0.00  0.00    +0.000 A 
ATOM     16  C   UNL     1       4.526   4.827  18.437  0.00  0.00    +0.000 A 
ATOM     17  C   UNL     1       4.829   3.562  18.960  0.00  0.00    +0.000 A 
ATOM     18  C   UNL     1       4.029   2.968  19.942  0.00  0.00    +0.000 A 
ENDBRANCH   1  16
TORSDOF 1
ENDMDL
MODEL 5
REMARK VINA RESULT:      -6.9      3.030      3.523
REMARK  Name = 
REMARK  1 active torsions:
REMARK  status: ('A' for Active; 'I' for Inactive)
REMARK    1  A    between atoms: C_5  and  N_6
REMARK                            x       y       z     vdW  Elec       q    Type
REMARK                         _______ _______ _______ _____ _____    ______ ____
ROOT
ATOM      1  N   UNL     1       5.893   4.278  17.620  0.00  0.00    +0.000 N 
ATOM      2  C   UNL     1       4.706   3.895  18.128  0.00  0.00    +0.000 A 
ATOM      3  N   UNL     1       3.732   3.174  17.611  0.00  0.00    +0.000 NA
ATOM      4  C   UNL     1       2.752   3.201  18.562  0.00  0.00    +0.000 A 
ATOM      5  C   UNL     1       1.473   2.633  18.578  0.00  0.00    +0.000 A 
ATOM      6  C   UNL     1       0.668   2.858  19.705  0.00  0.00    +0.000 A 
ATOM      7  C   UNL     1       1.129   3.626  20.782  0.00  0.00    +0.000 A 
ATOM      8  C   UNL     1       2.410   4.193  20.781  0.00  0.00    +0.000 A 
ATOM      9  C   UNL     1       3.175   3.945  19.649  0.00  0.00    +0.000 A 
ATOM     10  O   UNL     1       4.444   4.377  19.385  0.00  0.00    +0.000 OA
ATOM     11  H   UNL     1       6.441   4.885  18.212  0.00  0.00    +0.000 HD
ENDROOT
BRANCH   1  16
ATOM     12 CL   UNL     1       7.338   4.741  11.873  0.00  0.00    +0.000 Cl
ATOM     13  C   UNL     1       6.943   4.561  13.537  0.00  0.00    +0.000 A 
ATOM     14  C   UNL     1       7.606   5.321  14.495  0.00  0.00    +0.000 A 
ATOM     15  C   UNL     1       7.263   5.190  15.845  0.00  0.00    +0.000 A 
ATOM     16  C   UNL     1       6.242   4.317  16.256  0.00  0.00    +0.000 A 
ATOM     17  C   UNL     1       5.620   3.535  15.271  0.00  0.00    +0.000 A 
ATOM     18  C   UNL     1       5.959   3.659  13.920  0.00  0.00    +0.000 A 
ENDBRANCH   1  16
TORSDOF 1
ENDMDL
MODEL 6
REMARK VINA RESULT:      -6.9      2.915      3.456
REMARK  Name = 
REMARK  1 active torsions:
REMARK  status: ('A' for Active; 'I' for Inactive)
REMARK    1  A    between atoms: C_5  and  N_6
REMARK                            x       y       z     vdW  Elec       q    Type
REMARK                         _______ _______ _______ _____ _____    ______ ____
ROOT
ATOM      1  N   UNL     1       5.955   4.013  17.750  0.00  0.00    +0.000 N 
ATOM      2  C   UNL     1       4.726   3.712  18.212  0.00  0.00    +0.000 A 
ATOM      3  N   UNL     1       3.649   3.277  17.592  0.00  0.00    +0.000 NA
ATOM      4  C   UNL     1       2.691   3.244  18.565  0.00  0.00    +0.000 A 
ATOM      5  C   UNL     1       1.338   2.886  18.511  0.00  0.00    +0.000 A 
ATOM      6  C   UNL     1       0.585   2.981  19.690  0.00  0.00    +0.000 A 
ATOM      7  C   UNL     1       1.167   3.418  20.887  0.00  0.00    +0.000 A 
ATOM      8  C   UNL     1       2.522   3.772  20.957  0.00  0.00    +0.000 A 
ATOM      9  C   UNL     1       3.231   3.662  19.768  0.00  0.00    +0.000 A 
ATOM     10  O   UNL     1       4.550   3.944  19.552  0.00  0.00    +0.000 OA
ATOM     11  H   UNL     1       6.595   4.387  18.437  0.00  0.00    +0.000 HD
ENDROOT
BRANCH   1  16
ATOM     12 CL   UNL     1       7.461   4.907  12.071  0.00  0.00    +0.000 Cl
ATOM     13  C   UNL     1       6.998   4.692  13.712  0.00  0.00    +0.000 A 
ATOM     14  C   UNL     1       6.075   3.709  14.052  0.00  0.00    +0.000 A 
ATOM     15  C   UNL     1       5.721   3.520  15.392  0.00  0.00    +0.000 A 
ATOM     16  C   UNL     1       6.298   4.293  16.413  0.00  0.00    +0.000 A 
ATOM     17  C   UNL     1       7.195   5.303  16.036  0.00  0.00    +0.000 A 
ATOM     18  C   UNL     1       7.552   5.499  14.698  0.00  0.00    +0.000 A 
ENDBRANCH   1  16
TORSDOF 1
ENDMDL
MODEL 7
REMARK VINA RESULT:      -6.7      2.866      3.457
REMARK  Name = 
REMARK  1 active torsions:
REMARK  status: ('A' for Active; 'I' for Inactive)
REMARK    1  A    between atoms: C_5  and  N_6
REMARK                            x       y       z     vdW  Elec       q    Type
REMARK                         _______ _______ _______ _____ _____    ______ ____
ROOT
ATOM      1  N   UNL     1       5.042   2.928  16.683  0.00  0.00    +0.000 N 
ATOM      2  C   UNL     1       4.225   3.431  17.628  0.00  0.00    +0.000 A 
ATOM      3  N   UNL     1       3.659   4.615  17.744  0.00  0.00    +0.000 NA
ATOM      4  C   UNL     1       3.019   4.565  18.950  0.00  0.00    +0.000 A 
ATOM      5  C   UNL     1       2.262   5.527  19.629  0.00  0.00    +0.000 A 
ATOM      6  C   UNL     1       1.744   5.188  20.888  0.00  0.00    +0.000 A 
ATOM      7  C   UNL     1       1.974   3.925  21.449  0.00  0.00    +0.000 A 
ATOM      8  C   UNL     1       2.723   2.951  20.776  0.00  0.00    +0.000 A 
ATOM      9  C   UNL     1       3.216   3.326  19.533  0.00  0.00    +0.000 A 
ATOM     10  O   UNL     1       3.974   2.582  18.674  0.00  0.00    +0.000 OA
ATOM     11  H   UNL     1       5.387   1.996  16.863  0.00  0.00    +0.000 HD
ENDROOT
BRANCH   1  16
ATOM     12 CL   UNL     1       8.322   5.801  12.644  0.00  0.00    +0.000 Cl
ATOM     13  C   UNL     1       7.349   5.014  13.823  0.00  0.00    +0.000 A 
ATOM     14  C   UNL     1       6.330   4.157  13.424  0.00  0.00    +0.000 A 
ATOM     15  C   UNL     1       5.558   3.498  14.388  0.00  0.00    +0.000 A 
ATOM     16  C   UNL     1       5.805   3.669  15.760  0.00  0.00    +0.000 A 
ATOM     17  C   UNL     1       6.813   4.571  16.132  0.00  0.00    +0.000 A 
ATOM     18  C   UNL     1       7.588   5.234  15.174  0.00  0.00    +0.000 A 
ENDBRANCH   1  16
TORSDOF 1
ENDMDL
MODEL 8
REMARK VINA RESULT:      -6.7      4.793      6.401
REMARK  Name = 
REMARK  1 active torsions:
REMARK  status: ('A' for Active; 'I' for Inactive)
REMARK    1  A    between atoms: C_5  and  N_6
REMARK                            x       y       z     vdW  Elec       q    Type
REMARK                         _______ _______ _______ _____ _____    ______ ____
ROOT
ATOM      1  N   UNL     1       2.671   7.229  18.126  0.00  0.00    +0.000 N 
ATOM      2  C   UNL     1       2.062   7.926  19.103  0.00  0.00    +0.000 A 
ATOM      3  N   UNL     1       1.878   7.652  20.378  0.00  0.00    +0.000 NA
ATOM      4  C   UNL     1       1.117   8.689  20.839  0.00  0.00    +0.000 A 
ATOM      5  C   UNL     1       0.587   8.946  22.109  0.00  0.00    +0.000 A 
ATOM      6  C   UNL     1      -0.191  10.101  22.275  0.00  0.00    +0.000 A 
ATOM      7  C   UNL     1      -0.431  10.972  21.205  0.00  0.00    +0.000 A 
ATOM      8  C   UNL     1       0.101  10.730  19.931  0.00  0.00    +0.000 A 
ATOM      9  C   UNL     1       0.867   9.578  19.809  0.00  0.00    +0.000 A 
ATOM     10  O   UNL     1       1.492   9.103  18.692  0.00  0.00    +0.000 OA
ATOM     11  H   UNL     1       2.624   7.644  17.206  0.00  0.00    +0.000 HD
ENDROOT
BRANCH   1  16
ATOM     12 CL   UNL     1       3.604   1.363  18.345  0.00  0.00    +0.000 Cl
ATOM     13  C   UNL     1       3.360   3.061  18.237  0.00  0.00    +0.000 A 
ATOM     14  C   UNL     1       2.100   3.565  17.932  0.00  0.00    +0.000 A 
ATOM     15  C   UNL     1       1.900   4.949  17.872  0.00  0.00    +0.000 A 
ATOM     16  C   UNL     1       2.947   5.848  18.134  0.00  0.00    +0.000 A 
ATOM     17  C   UNL     1       4.215   5.310  18.398  0.00  0.00    +0.000 A 
ATOM     18  C   UNL     1       4.422   3.928  18.459  0.00  0.00    +0.000 A 
ENDBRANCH   1  16
TORSDOF 1
ENDMDL
MODEL 9
REMARK VINA RESULT:      -6.7      4.857      6.428
REMARK  Name = 
REMARK  1 active torsions:
REMARK  status: ('A' for Active; 'I' for Inactive)
REMARK    1  A    between atoms: C_5  and  N_6
REMARK                            x       y       z     vdW  Elec       q    Type
REMARK                         _______ _______ _______ _____ _____    ______ ____
ROOT
ATOM      1  N   UNL     1       2.612   7.214  18.594  0.00  0.00    +0.000 N 
ATOM      2  C   UNL     1       1.944   7.925  19.522  0.00  0.00    +0.000 A 
ATOM      3  N   UNL     1       1.588   7.626  20.754  0.00  0.00    +0.000 NA
ATOM      4  C   UNL     1       0.859   8.705  21.166  0.00  0.00    +0.000 A 
ATOM      5  C   UNL     1       0.202   8.963  22.375  0.00  0.00    +0.000 A 
ATOM      6  C   UNL     1      -0.500  10.170  22.497  0.00  0.00    +0.000 A 
ATOM      7  C   UNL     1      -0.543  11.093  21.444  0.00  0.00    +0.000 A 
ATOM      8  C   UNL     1       0.118  10.851  20.231  0.00  0.00    +0.000 A 
ATOM      9  C   UNL     1       0.803   9.645  20.152  0.00  0.00    +0.000 A 
ATOM     10  O   UNL     1       1.520   9.158  19.097  0.00  0.00    +0.000 OA
ATOM     11  H   UNL     1       2.707   7.661  17.693  0.00  0.00    +0.000 HD
ENDROOT
BRANCH   1  16
ATOM     12 CL   UNL     1       3.599   1.355  18.435  0.00  0.00    +0.000 Cl
ATOM     13  C   UNL     1       3.273   3.041  18.512  0.00  0.00    +0.000 A 
ATOM     14  C   UNL     1       4.121   3.881  19.227  0.00  0.00    +0.000 A 
ATOM     15  C   UNL     1       3.867   5.256  19.266  0.00  0.00    +0.000 A 
ATOM     16  C   UNL     1       2.778   5.815  18.576  0.00  0.00    +0.000 A 
ATOM     17  C   UNL     1       1.919   4.939  17.897  0.00  0.00    +0.000 A 
ATOM     18  C   UNL     1       2.166   3.563  17.856  0.00  0.00    +0.000 A 
ENDBRANCH   1  16
TORSDOF 1
ENDMDL
