MODEL 1
REMARK VINA RESULT:      -7.5      0.000      0.000
REMARK  Name = 
REMARK  5 active torsions:
REMARK  status: ('A' for Active; 'I' for Inactive)
REMARK    1  A    between atoms: C_1  and  C_2
REMARK    2  A    between atoms: N_4  and  C_5
REMARK    3  A    between atoms: C_5  and  C_6
REMARK    4  A    between atoms: N_8  and  C_9
REMARK    5  A    between atoms: C_12  and  N_13
REMARK                            x       y       z     vdW  Elec       q    Type
REMARK                         _______ _______ _______ _____ _____    ______ ____
ROOT
ATOM      1  C   UNL     1       6.623   5.325  15.381  0.00  0.00    +0.000 C 
ATOM      2  C   UNL     1       5.377   4.592  15.857  0.00  0.00    +0.000 C 
ATOM      3  N   UNL     1       5.622   4.402  17.260  0.00  0.00    +0.000 N 
ATOM      4  C   UNL     1       6.956   4.651  17.541  0.00  0.00    +0.000 C 
ATOM      5  O   UNL     1       7.561   4.485  18.588  0.00  0.00    +0.000 OA
ATOM      6  O   UNL     1       7.584   5.132  16.431  0.00  0.00    +0.000 OA
ENDROOT
BRANCH   3   7
ATOM      7  C   UNL     1       4.607   4.117  18.208  0.00  0.00    +0.000 A 
ATOM      8  C   UNL     1       3.993   2.849  18.265  0.00  0.00    +0.000 A 
ATOM      9  C   UNL     1       3.065   2.530  19.255  0.00  0.00    +0.000 A 
ATOM     10  C   UNL     1       2.722   3.487  20.208  0.00  0.00    +0.000 A 
ATOM     11  C   UNL     1       3.301   4.762  20.167  0.00  0.00    +0.000 A 
ATOM     12  C   UNL     1       4.237   5.067  19.174  0.00  0.00    +0.000 A 
BRANCH  10  13
ATOM     13  N   UNL     1       1.757   3.148  21.264  0.00  0.00    +0.000 N 
ATOM     14  O   UNL     1       0.615   2.828  20.923  0.00  0.00    +0.000 OA
ATOM     15  O   UNL     1       2.157   3.202  22.438  0.00  0.00    +0.000 OA
ENDBRANCH  10  13
ENDBRANCH   3   7
BRANCH   1  16
ATOM     16  C   UNL     1       7.234   4.773  14.092  0.00  0.00    +0.000 C 
BRANCH  16  20
ATOM     17  C   UNL     1       5.589   2.340  11.679  0.00  0.00    +0.000 C 
ATOM     18  C   UNL     1       6.493   3.456  12.134  0.00  0.00    +0.000 C 
ATOM     19  O   UNL     1       7.239   4.060  11.369  0.00  0.00    +0.000 OA
ATOM     20  N   UNL     1       6.409   3.741  13.476  0.00  0.00    +0.000 N 
ATOM     21  H   UNL     1       5.762   3.220  14.057  0.00  0.00    +0.000 HD
ENDBRANCH  16  20
ENDBRANCH   1  16
TORSDOF 4
ENDMDL
MODEL 2
REMARK VINA RESULT:      -7.4      0.463      1.215
REMARK  Name = 
REMARK  5 active torsions:
REMARK  status: ('A' for Active; 'I' for Inactive)
REMARK    1  A    between atoms: C_1  and  C_2
REMARK    2  A    between atoms: N_4  and  C_5
REMARK    3  A    between atoms: C_5  and  C_6
REMARK    4  A    between atoms: N_8  and  C_9
REMARK    5  A    between atoms: C_12  and  N_13
REMARK                            x       y       z     vdW  Elec       q    Type
REMARK                         _______ _______ _______ _____ _____    ______ ____
ROOT
ATOM      1  C   UNL     1       6.630   5.281  15.429  0.00  0.00    +0.000 C 
ATOM      2  C   UNL     1       5.417   4.539  15.972  0.00  0.00    +0.000 C 
ATOM      3  N   UNL     1       5.715   4.399  17.370  0.00  0.00    +0.000 N 
ATOM      4  C   UNL     1       7.052   4.681  17.596  0.00  0.00    +0.000 C 
ATOM      5  O   UNL     1       7.696   4.561  18.626  0.00  0.00    +0.000 OA
ATOM      6  O   UNL     1       7.631   5.140  16.450  0.00  0.00    +0.000 OA
ENDROOT
BRANCH   3   7
ATOM      7  C   UNL     1       4.740   4.124  18.363  0.00  0.00    +0.000 A 
ATOM      8  C   UNL     1       3.673   5.012  18.607  0.00  0.00    +0.000 A 
ATOM      9  C   UNL     1       2.658   4.704  19.512  0.00  0.00    +0.000 A 
ATOM     10  C   UNL     1       2.699   3.495  20.204  0.00  0.00    +0.000 A 
ATOM     11  C   UNL     1       3.756   2.600  19.998  0.00  0.00    +0.000 A 
ATOM     12  C   UNL     1       4.764   2.917  19.081  0.00  0.00    +0.000 A 
BRANCH  10  13
ATOM     13  N   UNL     1       1.621   3.159  21.145  0.00  0.00    +0.000 N 
ATOM     14  O   UNL     1       1.924   2.969  22.327  0.00  0.00    +0.000 OA
ATOM     15  O   UNL     1       0.469   3.093  20.690  0.00  0.00    +0.000 OA
ENDBRANCH  10  13
ENDBRANCH   3   7
BRANCH   1  16
ATOM     16  C   UNL     1       7.207   4.700  14.138  0.00  0.00    +0.000 C 
BRANCH  16  20
ATOM     17  C   UNL     1       5.433   2.377  11.707  0.00  0.00    +0.000 C 
ATOM     18  C   UNL     1       6.414   3.421  12.175  0.00  0.00    +0.000 C 
ATOM     19  O   UNL     1       7.229   3.950  11.424  0.00  0.00    +0.000 OA
ATOM     20  N   UNL     1       6.316   3.731  13.510  0.00  0.00    +0.000 N 
ATOM     21  H   UNL     1       5.612   3.274  14.078  0.00  0.00    +0.000 HD
ENDBRANCH  16  20
ENDBRANCH   1  16
TORSDOF 4
ENDMDL
MODEL 3
REMARK VINA RESULT:      -7.0      3.941      4.636
REMARK  Name = 
REMARK  5 active torsions:
REMARK  status: ('A' for Active; 'I' for Inactive)
REMARK    1  A    between atoms: C_1  and  C_2
REMARK    2  A    between atoms: N_4  and  C_5
REMARK    3  A    between atoms: C_5  and  C_6
REMARK    4  A    between atoms: N_8  and  C_9
REMARK    5  A    between atoms: C_12  and  N_13
REMARK                            x       y       z     vdW  Elec       q    Type
REMARK                         _______ _______ _______ _____ _____    ______ ____
ROOT
ATOM      1  C   UNL     1       5.800   4.694  17.926  0.00  0.00    +0.000 C 
ATOM      2  C   UNL     1       5.346   6.143  18.010  0.00  0.00    +0.000 C 
ATOM      3  N   UNL     1       3.913   6.039  18.038  0.00  0.00    +0.000 N 
ATOM      4  C   UNL     1       3.528   4.761  17.667  0.00  0.00    +0.000 C 
ATOM      5  O   UNL     1       2.405   4.329  17.464  0.00  0.00    +0.000 OA
ATOM      6  O   UNL     1       4.627   3.965  17.529  0.00  0.00    +0.000 OA
ENDROOT
BRANCH   3   7
ATOM      7  C   UNL     1       3.054   7.071  18.493  0.00  0.00    +0.000 A 
ATOM      8  C   UNL     1       2.684   8.141  17.652  0.00  0.00    +0.000 A 
ATOM      9  C   UNL     1       1.765   9.106  18.058  0.00  0.00    +0.000 A 
ATOM     10  C   UNL     1       1.203   9.026  19.331  0.00  0.00    +0.000 A 
ATOM     11  C   UNL     1       1.564   7.987  20.197  0.00  0.00    +0.000 A 
ATOM     12  C   UNL     1       2.482   7.019  19.774  0.00  0.00    +0.000 A 
BRANCH  10  13
ATOM     13  N   UNL     1       0.220  10.033  19.757  0.00  0.00    +0.000 N 
ATOM     14  O   UNL     1       0.196  10.349  20.949  0.00  0.00    +0.000 OA
ATOM     15  O   UNL     1      -0.524  10.506  18.883  0.00  0.00    +0.000 OA
ENDBRANCH  10  13
ENDBRANCH   3   7
BRANCH   1  16
ATOM     16  C   UNL     1       6.883   4.423  16.881  0.00  0.00    +0.000 C 
BRANCH  16  20
ATOM     17  C   UNL     1       6.091   3.781  13.219  0.00  0.00    +0.000 C 
ATOM     18  C   UNL     1       6.736   4.437  14.411  0.00  0.00    +0.000 C 
ATOM     19  O   UNL     1       7.547   5.353  14.308  0.00  0.00    +0.000 OA
ATOM     20  N   UNL     1       6.338   3.925  15.623  0.00  0.00    +0.000 N 
ATOM     21  H   UNL     1       5.652   3.179  15.649  0.00  0.00    +0.000 HD
ENDBRANCH  16  20
ENDBRANCH   1  16
TORSDOF 4
ENDMDL
MODEL 4
REMARK VINA RESULT:      -6.9      4.560      8.698
REMARK  Name = 
REMARK  5 active torsions:
REMARK  status: ('A' for Active; 'I' for Inactive)
REMARK    1  A    between atoms: C_1  and  C_2
REMARK    2  A    between atoms: N_4  and  C_5
REMARK    3  A    between atoms: C_5  and  C_6
REMARK    4  A    between atoms: N_8  and  C_9
REMARK    5  A    between atoms: C_12  and  N_13
REMARK                            x       y       z     vdW  Elec       q    Type
REMARK                         _______ _______ _______ _____ _____    ______ ____
ROOT
ATOM      1  C   UNL     1       1.577   8.305  20.623  0.00  0.00    +0.000 C 
ATOM      2  C   UNL     1       2.153   7.016  20.056  0.00  0.00    +0.000 C 
ATOM      3  N   UNL     1       2.531   7.383  18.719  0.00  0.00    +0.000 N 
ATOM      4  C   UNL     1       1.955   8.598  18.386  0.00  0.00    +0.000 C 
ATOM      5  O   UNL     1       1.951   9.173  17.309  0.00  0.00    +0.000 OA
ATOM      6  O   UNL     1       1.329   9.130  19.474  0.00  0.00    +0.000 OA
ENDROOT
BRANCH   3   7
ATOM      7  C   UNL     1       3.450   6.649  17.928  0.00  0.00    +0.000 A 
ATOM      8  C   UNL     1       4.580   7.266  17.355  0.00  0.00    +0.000 A 
ATOM      9  C   UNL     1       5.539   6.533  16.657  0.00  0.00    +0.000 A 
ATOM     10  C   UNL     1       5.376   5.157  16.507  0.00  0.00    +0.000 A 
ATOM     11  C   UNL     1       4.254   4.517  17.049  0.00  0.00    +0.000 A 
ATOM     12  C   UNL     1       3.303   5.262  17.754  0.00  0.00    +0.000 A 
BRANCH  10  13
ATOM     13  N   UNL     1       6.393   4.378  15.788  0.00  0.00    +0.000 N 
ATOM     14  O   UNL     1       7.563   4.771  15.836  0.00  0.00    +0.000 OA
ATOM     15  O   UNL     1       6.010   3.367  15.178  0.00  0.00    +0.000 OA
ENDBRANCH  10  13
ENDBRANCH   3   7
BRANCH   1  16
ATOM     16  C   UNL     1       0.249   8.139  21.363  0.00  0.00    +0.000 C 
BRANCH  16  20
ATOM     17  C   UNL     1      -1.025  11.396  22.852  0.00  0.00    +0.000 C 
ATOM     18  C   UNL     1      -0.285  10.086  22.793  0.00  0.00    +0.000 C 
ATOM     19  O   UNL     1       0.383   9.657  23.730  0.00  0.00    +0.000 OA
ATOM     20  N   UNL     1      -0.423   9.411  21.604  0.00  0.00    +0.000 N 
ATOM     21  H   UNL     1      -1.001   9.805  20.871  0.00  0.00    +0.000 HD
ENDBRANCH  16  20
ENDBRANCH   1  16
TORSDOF 4
ENDMDL
MODEL 5
REMARK VINA RESULT:      -6.9      4.301      5.249
REMARK  Name = 
REMARK  5 active torsions:
REMARK  status: ('A' for Active; 'I' for Inactive)
REMARK    1  A    between atoms: C_1  and  C_2
REMARK    2  A    between atoms: N_4  and  C_5
REMARK    3  A    between atoms: C_5  and  C_6
REMARK    4  A    between atoms: N_8  and  C_9
REMARK    5  A    between atoms: C_12  and  N_13
REMARK                            x       y       z     vdW  Elec       q    Type
REMARK                         _______ _______ _______ _____ _____    ______ ____
ROOT
ATOM      1  C   UNL     1       5.012   4.568  18.635  0.00  0.00    +0.000 C 
ATOM      2  C   UNL     1       4.709   6.059  18.630  0.00  0.00    +0.000 C 
ATOM      3  N   UNL     1       3.288   6.106  18.424  0.00  0.00    +0.000 N 
ATOM      4  C   UNL     1       2.833   4.866  18.006  0.00  0.00    +0.000 C 
ATOM      5  O   UNL     1       1.717   4.548  17.627  0.00  0.00    +0.000 OA
ATOM      6  O   UNL     1       3.847   3.956  18.058  0.00  0.00    +0.000 OA
ENDROOT
BRANCH   3   7
ATOM      7  C   UNL     1       2.482   7.234  18.723  0.00  0.00    +0.000 A 
ATOM      8  C   UNL     1       2.017   7.476  20.031  0.00  0.00    +0.000 A 
ATOM      9  C   UNL     1       1.307   8.632  20.352  0.00  0.00    +0.000 A 
ATOM     10  C   UNL     1       1.036   9.570  19.358  0.00  0.00    +0.000 A 
ATOM     11  C   UNL     1       1.468   9.349  18.044  0.00  0.00    +0.000 A 
ATOM     12  C   UNL     1       2.187   8.189  17.736  0.00  0.00    +0.000 A 
BRANCH  10  13
ATOM     13  N   UNL     1       0.303  10.798  19.697  0.00  0.00    +0.000 N 
ATOM     14  O   UNL     1      -0.535  10.740  20.600  0.00  0.00    +0.000 OA
ATOM     15  O   UNL     1       0.580  11.822  19.052  0.00  0.00    +0.000 OA
ENDBRANCH  10  13
ENDBRANCH   3   7
BRANCH   1  16
ATOM     16  C   UNL     1       6.214   4.158  17.783  0.00  0.00    +0.000 C 
BRANCH  16  20
ATOM     17  C   UNL     1       6.089   3.962  13.989  0.00  0.00    +0.000 C 
ATOM     18  C   UNL     1       6.592   4.374  15.348  0.00  0.00    +0.000 C 
ATOM     19  O   UNL     1       7.576   5.091  15.503  0.00  0.00    +0.000 OA
ATOM     20  N   UNL     1       5.854   3.882  16.397  0.00  0.00    +0.000 N 
ATOM     21  H   UNL     1       5.039   3.308  16.209  0.00  0.00    +0.000 HD
ENDBRANCH  16  20
ENDBRANCH   1  16
TORSDOF 4
ENDMDL
MODEL 6
REMARK VINA RESULT:      -6.8      1.394      1.828
REMARK  Name = 
REMARK  5 active torsions:
REMARK  status: ('A' for Active; 'I' for Inactive)
REMARK    1  A    between atoms: C_1  and  C_2
REMARK    2  A    between atoms: N_4  and  C_5
REMARK    3  A    between atoms: C_5  and  C_6
REMARK    4  A    between atoms: N_8  and  C_9
REMARK    5  A    between atoms: C_12  and  N_13
REMARK                            x       y       z     vdW  Elec       q    Type
REMARK                         _______ _______ _______ _____ _____    ______ ____
ROOT
ATOM      1  C   UNL     1       6.679   4.904  14.029  0.00  0.00    +0.000 C 
ATOM      2  C   UNL     1       5.411   4.321  14.636  0.00  0.00    +0.000 C 
ATOM      3  N   UNL     1       5.694   4.312  16.045  0.00  0.00    +0.000 N 
ATOM      4  C   UNL     1       7.048   4.515  16.253  0.00  0.00    +0.000 C 
ATOM      5  O   UNL     1       7.679   4.459  17.296  0.00  0.00    +0.000 OA
ATOM      6  O   UNL     1       7.663   4.800  15.069  0.00  0.00    +0.000 OA
ENDROOT
BRANCH   3   7
ATOM      7  C   UNL     1       4.698   4.222  17.050  0.00  0.00    +0.000 A 
ATOM      8  C   UNL     1       4.296   5.355  17.786  0.00  0.00    +0.000 A 
ATOM      9  C   UNL     1       3.251   5.295  18.707  0.00  0.00    +0.000 A 
ATOM     10  C   UNL     1       2.593   4.085  18.921  0.00  0.00    +0.000 A 
ATOM     11  C   UNL     1       2.982   2.938  18.220  0.00  0.00    +0.000 A 
ATOM     12  C   UNL     1       4.026   3.013  17.291  0.00  0.00    +0.000 A 
BRANCH  10  13
ATOM     13  N   UNL     1       1.480   4.023  19.879  0.00  0.00    +0.000 N 
ATOM     14  O   UNL     1       0.810   2.987  19.920  0.00  0.00    +0.000 OA
ATOM     15  O   UNL     1       1.287   5.020  20.592  0.00  0.00    +0.000 OA
ENDBRANCH  10  13
ENDBRANCH   3   7
BRANCH   1  16
ATOM     16  C   UNL     1       7.213   4.144  12.814  0.00  0.00    +0.000 C 
BRANCH  16  20
ATOM     17  C   UNL     1       5.735   1.019  11.232  0.00  0.00    +0.000 C 
ATOM     18  C   UNL     1       6.749   2.100  11.499  0.00  0.00    +0.000 C 
ATOM     19  O   UNL     1       7.843   2.138  10.942  0.00  0.00    +0.000 OA
ATOM     20  N   UNL     1       6.345   3.041  12.415  0.00  0.00    +0.000 N 
ATOM     21  H   UNL     1       5.424   2.970  12.831  0.00  0.00    +0.000 HD
ENDBRANCH  16  20
ENDBRANCH   1  16
TORSDOF 4
ENDMDL
MODEL 7
REMARK VINA RESULT:      -6.8      3.239      4.984
REMARK  Name = 
REMARK  5 active torsions:
REMARK  status: ('A' for Active; 'I' for Inactive)
REMARK    1  A    between atoms: C_1  and  C_2
REMARK    2  A    between atoms: N_4  and  C_5
REMARK    3  A    between atoms: C_5  and  C_6
REMARK    4  A    between atoms: N_8  and  C_9
REMARK    5  A    between atoms: C_12  and  N_13
REMARK                            x       y       z     vdW  Elec       q    Type
REMARK                         _______ _______ _______ _____ _____    ______ ____
ROOT
ATOM      1  C   UNL     1       7.569   6.849  17.677  0.00  0.00    +0.000 C 
ATOM      2  C   UNL     1       6.211   6.653  18.332  0.00  0.00    +0.000 C 
ATOM      3  N   UNL     1       5.571   5.688  17.481  0.00  0.00    +0.000 N 
ATOM      4  C   UNL     1       6.271   5.573  16.292  0.00  0.00    +0.000 C 
ATOM      5  O   UNL     1       5.975   4.946  15.287  0.00  0.00    +0.000 OA
ATOM      6  O   UNL     1       7.421   6.303  16.356  0.00  0.00    +0.000 OA
ENDROOT
BRANCH   3   7
ATOM      7  C   UNL     1       4.458   4.902  17.875  0.00  0.00    +0.000 A 
ATOM      8  C   UNL     1       4.628   3.677  18.551  0.00  0.00    +0.000 A 
ATOM      9  C   UNL     1       3.539   2.947  19.026  0.00  0.00    +0.000 A 
ATOM     10  C   UNL     1       2.247   3.428  18.820  0.00  0.00    +0.000 A 
ATOM     11  C   UNL     1       2.045   4.632  18.135  0.00  0.00    +0.000 A 
ATOM     12  C   UNL     1       3.145   5.360  17.671  0.00  0.00    +0.000 A 
BRANCH  10  13
ATOM     13  N   UNL     1       1.099   2.670  19.335  0.00  0.00    +0.000 N 
ATOM     14  O   UNL     1       0.309   2.190  18.517  0.00  0.00    +0.000 OA
ATOM     15  O   UNL     1       0.999   2.555  20.567  0.00  0.00    +0.000 OA
ENDBRANCH  10  13
ENDBRANCH   3   7
BRANCH   1  16
ATOM     16  C   UNL     1       7.999   8.309  17.523  0.00  0.00    +0.000 C 
BRANCH  16  20
ATOM     17  C   UNL     1       9.573  10.543  20.165  0.00  0.00    +0.000 C 
ATOM     18  C   UNL     1       8.969  10.167  18.837  0.00  0.00    +0.000 C 
ATOM     19  O   UNL     1       8.802  10.976  17.929  0.00  0.00    +0.000 OA
ATOM     20  N   UNL     1       8.623   8.841  18.729  0.00  0.00    +0.000 N 
ATOM     21  H   UNL     1       8.799   8.214  19.505  0.00  0.00    +0.000 HD
ENDBRANCH  16  20
ENDBRANCH   1  16
TORSDOF 4
ENDMDL
MODEL 8
REMARK VINA RESULT:      -6.8      4.401      5.415
REMARK  Name = 
REMARK  5 active torsions:
REMARK  status: ('A' for Active; 'I' for Inactive)
REMARK    1  A    between atoms: C_1  and  C_2
REMARK    2  A    between atoms: N_4  and  C_5
REMARK    3  A    between atoms: C_5  and  C_6
REMARK    4  A    between atoms: N_8  and  C_9
REMARK    5  A    between atoms: C_12  and  N_13
REMARK                            x       y       z     vdW  Elec       q    Type
REMARK                         _______ _______ _______ _____ _____    ______ ____
ROOT
ATOM      1  C   UNL     1       4.688   4.495  18.862  0.00  0.00    +0.000 C 
ATOM      2  C   UNL     1       4.527   6.008  18.871  0.00  0.00    +0.000 C 
ATOM      3  N   UNL     1       3.133   6.192  18.574  0.00  0.00    +0.000 N 
ATOM      4  C   UNL     1       2.593   5.008  18.100  0.00  0.00    +0.000 C 
ATOM      5  O   UNL     1       1.481   4.804  17.641  0.00  0.00    +0.000 OA
ATOM      6  O   UNL     1       3.513   4.006  18.197  0.00  0.00    +0.000 OA
ENDROOT
BRANCH   3   7
ATOM      7  C   UNL     1       2.418   7.387  18.845  0.00  0.00    +0.000 A 
ATOM      8  C   UNL     1       2.118   8.309  17.822  0.00  0.00    +0.000 A 
ATOM      9  C   UNL     1       1.334   9.437  18.061  0.00  0.00    +0.000 A 
ATOM     10  C   UNL     1       0.841   9.670  19.344  0.00  0.00    +0.000 A 
ATOM     11  C   UNL     1       1.136   8.782  20.385  0.00  0.00    +0.000 A 
ATOM     12  C   UNL     1       1.918   7.650  20.131  0.00  0.00    +0.000 A 
BRANCH  10  13
ATOM     13  N   UNL     1      -0.002  10.848  19.595  0.00  0.00    +0.000 N 
ATOM     14  O   UNL     1      -0.867  11.129  18.761  0.00  0.00    +0.000 OA
ATOM     15  O   UNL     1       0.209  11.486  20.639  0.00  0.00    +0.000 OA
ENDBRANCH  10  13
ENDBRANCH   3   7
BRANCH   1  16
ATOM     16  C   UNL     1       5.901   3.987  18.082  0.00  0.00    +0.000 C 
BRANCH  16  20
ATOM     17  C   UNL     1       6.101   3.982  14.286  0.00  0.00    +0.000 C 
ATOM     18  C   UNL     1       6.536   4.241  15.704  0.00  0.00    +0.000 C 
ATOM     19  O   UNL     1       7.609   4.769  15.985  0.00  0.00    +0.000 OA
ATOM     20  N   UNL     1       5.631   3.839  16.656  0.00  0.00    +0.000 N 
ATOM     21  H   UNL     1       4.753   3.423  16.366  0.00  0.00    +0.000 HD
ENDBRANCH  16  20
ENDBRANCH   1  16
TORSDOF 4
ENDMDL
MODEL 9
REMARK VINA RESULT:      -6.8      3.156      3.479
REMARK  Name = 
REMARK  5 active torsions:
REMARK  status: ('A' for Active; 'I' for Inactive)
REMARK    1  A    between atoms: C_1  and  C_2
REMARK    2  A    between atoms: N_4  and  C_5
REMARK    3  A    between atoms: C_5  and  C_6
REMARK    4  A    between atoms: N_8  and  C_9
REMARK    5  A    between atoms: C_12  and  N_13
REMARK                            x       y       z     vdW  Elec       q    Type
REMARK                         _______ _______ _______ _____ _____    ______ ____
ROOT
ATOM      1  C   UNL     1       6.249   4.747  16.181  0.00  0.00    +0.000 C 
ATOM      2  C   UNL     1       5.462   6.010  16.498  0.00  0.00    +0.000 C 
ATOM      3  N   UNL     1       4.280   5.509  17.144  0.00  0.00    +0.000 N 
ATOM      4  C   UNL     1       4.177   4.142  16.939  0.00  0.00    +0.000 C 
ATOM      5  O   UNL     1       3.261   3.392  17.233  0.00  0.00    +0.000 OA
ATOM      6  O   UNL     1       5.297   3.680  16.313  0.00  0.00    +0.000 OA
ENDROOT
BRANCH   3   7
ATOM      7  C   UNL     1       3.429   6.298  17.958  0.00  0.00    +0.000 A 
ATOM      8  C   UNL     1       3.034   5.866  19.240  0.00  0.00    +0.000 A 
ATOM      9  C   UNL     1       2.278   6.677  20.085  0.00  0.00    +0.000 A 
ATOM     10  C   UNL     1       1.889   7.943  19.653  0.00  0.00    +0.000 A 
ATOM     11  C   UNL     1       2.249   8.394  18.377  0.00  0.00    +0.000 A 
ATOM     12  C   UNL     1       3.015   7.574  17.542  0.00  0.00    +0.000 A 
BRANCH  10  13
ATOM     13  N   UNL     1       1.107   8.808  20.547  0.00  0.00    +0.000 N 
ATOM     14  O   UNL     1       0.556   9.799  20.058  0.00  0.00    +0.000 OA
ATOM     15  O   UNL     1       1.046   8.482  21.744  0.00  0.00    +0.000 OA
ENDBRANCH  10  13
ENDBRANCH   3   7
BRANCH   1  16
ATOM     16  C   UNL     1       6.813   4.686  14.761  0.00  0.00    +0.000 C 
BRANCH  16  20
ATOM     17  C   UNL     1       5.404   2.779  11.789  0.00  0.00    +0.000 C 
ATOM     18  C   UNL     1       6.329   3.697  12.546  0.00  0.00    +0.000 C 
ATOM     19  O   UNL     1       7.286   4.258  12.019  0.00  0.00    +0.000 OA
ATOM     20  N   UNL     1       6.008   3.855  13.872  0.00  0.00    +0.000 N 
ATOM     21  H   UNL     1       5.196   3.380  14.250  0.00  0.00    +0.000 HD
ENDBRANCH  16  20
ENDBRANCH   1  16
TORSDOF 4
ENDMDL
