MODEL 1
REMARK VINA RESULT:      -7.6      0.000      0.000
REMARK  Name = 
REMARK  7 active torsions:
REMARK  status: ('A' for Active; 'I' for Inactive)
REMARK    1  A    between atoms: C_1  and  O_2
REMARK    2  A    between atoms: O_2  and  C_3
REMARK    3  A    between atoms: C_7  and  C_8
REMARK    4  A    between atoms: N_13  and  C_14
REMARK    5  A    between atoms: C_17  and  C_18
REMARK    6  A    between atoms: C_21  and  O_22
REMARK    7  A    between atoms: O_22  and  C_23
REMARK                            x       y       z     vdW  Elec       q    Type
REMARK                         _______ _______ _______ _____ _____    ______ ____
ROOT
ATOM      1  C   UNL     1       4.190   4.187  19.209  0.00  0.00    +0.000 C 
ATOM      2  S   UNL     1       4.243   2.374  19.439  0.00  0.00    +0.000 S 
ATOM      3  C   UNL     1       2.495   2.247  19.802  0.00  0.00    +0.000 C 
ATOM      4  C   UNL     1       1.877   3.617  19.660  0.00  0.00    +0.000 C 
ATOM      5  O   UNL     1       0.688   3.794  19.911  0.00  0.00    +0.000 OA
ATOM      6  N   UNL     1       2.795   4.593  19.281  0.00  0.00    +0.000 N 
ENDROOT
BRANCH   6   7
ATOM      7  C   UNL     1       2.429   5.969  19.230  0.00  0.00    +0.000 A 
ATOM      8  C   UNL     1       2.054   6.667  20.384  0.00  0.00    +0.000 A 
ATOM      9  C   UNL     1       1.679   8.015  20.311  0.00  0.00    +0.000 A 
ATOM     10  C   UNL     1       1.695   8.695  19.093  0.00  0.00    +0.000 A 
ATOM     11  C   UNL     1       1.310  10.143  19.010  0.00  0.00    +0.000 C 
ATOM     12  C   UNL     1       2.082   8.004  17.942  0.00  0.00    +0.000 A 
ATOM     13  C   UNL     1       2.430   6.651  18.010  0.00  0.00    +0.000 A 
ENDBRANCH   6   7
BRANCH   1  18
ATOM     14  C   UNL     1       6.739   5.686  16.743  0.00  0.00    +0.000 A 
ATOM     15  C   UNL     1       6.322   5.093  15.544  0.00  0.00    +0.000 A 
ATOM     16  C   UNL     1       5.165   4.319  15.501  0.00  0.00    +0.000 A 
ATOM     17  C   UNL     1       4.446   4.081  16.670  0.00  0.00    +0.000 A 
ATOM     18  C   UNL     1       4.899   4.570  17.911  0.00  0.00    +0.000 A 
ATOM     19  C   UNL     1       6.051   5.391  17.938  0.00  0.00    +0.000 A 
BRANCH  14  21
ATOM     20  C   UNL     1       7.535   7.874  17.226  0.00  0.00    +0.000 C 
ATOM     21  O   UNL     1       7.806   6.542  16.792  0.00  0.00    +0.000 OA
ENDBRANCH  14  21
BRANCH  19  22
ATOM     22  O   UNL     1       6.349   5.908  19.176  0.00  0.00    +0.000 OA
ATOM     23  C   UNL     1       7.544   5.481  19.811  0.00  0.00    +0.000 C 
ENDBRANCH  19  22
ENDBRANCH   1  18
TORSDOF 4
ENDMDL
MODEL 2
REMARK VINA RESULT:      -7.6      0.081      1.005
REMARK  Name = 
REMARK  7 active torsions:
REMARK  status: ('A' for Active; 'I' for Inactive)
REMARK    1  A    between atoms: C_1  and  O_2
REMARK    2  A    between atoms: O_2  and  C_3
REMARK    3  A    between atoms: C_7  and  C_8
REMARK    4  A    between atoms: N_13  and  C_14
REMARK    5  A    between atoms: C_17  and  C_18
REMARK    6  A    between atoms: C_21  and  O_22
REMARK    7  A    between atoms: O_22  and  C_23
REMARK                            x       y       z     vdW  Elec       q    Type
REMARK                         _______ _______ _______ _____ _____    ______ ____
ROOT
ATOM      1  C   UNL     1       4.192   4.150  19.143  0.00  0.00    +0.000 C 
ATOM      2  S   UNL     1       4.250   2.332  19.339  0.00  0.00    +0.000 S 
ATOM      3  C   UNL     1       2.497   2.192  19.680  0.00  0.00    +0.000 C 
ATOM      4  C   UNL     1       1.877   3.563  19.557  0.00  0.00    +0.000 C 
ATOM      5  O   UNL     1       0.684   3.731  19.798  0.00  0.00    +0.000 OA
ATOM      6  N   UNL     1       2.795   4.549  19.206  0.00  0.00    +0.000 N 
ENDROOT
BRANCH   6   7
ATOM      7  C   UNL     1       2.425   5.924  19.177  0.00  0.00    +0.000 A 
ATOM      8  C   UNL     1       2.435   6.657  17.984  0.00  0.00    +0.000 A 
ATOM      9  C   UNL     1       2.087   8.014  17.979  0.00  0.00    +0.000 A 
ATOM     10  C   UNL     1       1.700   8.657  19.156  0.00  0.00    +0.000 A 
ATOM     11  C   UNL     1       1.311  10.106  19.154  0.00  0.00    +0.000 C 
ATOM     12  C   UNL     1       1.676   7.924  20.345  0.00  0.00    +0.000 A 
ATOM     13  C   UNL     1       2.050   6.575  20.356  0.00  0.00    +0.000 A 
ENDBRANCH   6   7
BRANCH   1  18
ATOM     14  C   UNL     1       6.756   5.713  16.733  0.00  0.00    +0.000 A 
ATOM     15  C   UNL     1       6.363   5.132  15.520  0.00  0.00    +0.000 A 
ATOM     16  C   UNL     1       5.216   4.345  15.451  0.00  0.00    +0.000 A 
ATOM     17  C   UNL     1       4.484   4.082  16.606  0.00  0.00    +0.000 A 
ATOM     18  C   UNL     1       4.914   4.559  17.860  0.00  0.00    +0.000 A 
ATOM     19  C   UNL     1       6.056   5.393  17.915  0.00  0.00    +0.000 A 
BRANCH  14  21
ATOM     20  C   UNL     1       7.515   7.909  17.236  0.00  0.00    +0.000 C 
ATOM     21  O   UNL     1       7.813   6.581  16.809  0.00  0.00    +0.000 OA
ENDBRANCH  14  21
BRANCH  19  22
ATOM     22  O   UNL     1       6.330   5.896  19.163  0.00  0.00    +0.000 OA
ATOM     23  C   UNL     1       7.528   5.485  19.804  0.00  0.00    +0.000 C 
ENDBRANCH  19  22
ENDBRANCH   1  18
TORSDOF 4
ENDMDL
MODEL 3
REMARK VINA RESULT:      -6.9      1.427      2.319
REMARK  Name = 
REMARK  7 active torsions:
REMARK  status: ('A' for Active; 'I' for Inactive)
REMARK    1  A    between atoms: C_1  and  O_2
REMARK    2  A    between atoms: O_2  and  C_3
REMARK    3  A    between atoms: C_7  and  C_8
REMARK    4  A    between atoms: N_13  and  C_14
REMARK    5  A    between atoms: C_17  and  C_18
REMARK    6  A    between atoms: C_21  and  O_22
REMARK    7  A    between atoms: O_22  and  C_23
REMARK                            x       y       z     vdW  Elec       q    Type
REMARK                         _______ _______ _______ _____ _____    ______ ____
ROOT
ATOM      1  C   UNL     1       4.168   4.328  20.007  0.00  0.00    +0.000 C 
ATOM      2  S   UNL     1       4.163   2.541  20.397  0.00  0.00    +0.000 S 
ATOM      3  C   UNL     1       2.379   2.405  20.316  0.00  0.00    +0.000 C 
ATOM      4  C   UNL     1       1.817   3.745  19.906  0.00  0.00    +0.000 C 
ATOM      5  O   UNL     1       0.602   3.915  19.833  0.00  0.00    +0.000 OA
ATOM      6  N   UNL     1       2.800   4.707  19.689  0.00  0.00    +0.000 N 
ENDROOT
BRANCH   6   7
ATOM      7  C   UNL     1       2.458   6.065  19.430  0.00  0.00    +0.000 A 
ATOM      8  C   UNL     1       1.998   6.909  20.449  0.00  0.00    +0.000 A 
ATOM      9  C   UNL     1       1.648   8.236  20.172  0.00  0.00    +0.000 A 
ATOM     10  C   UNL     1       1.774   8.753  18.881  0.00  0.00    +0.000 A 
ATOM     11  C   UNL     1       1.416  10.178  18.580  0.00  0.00    +0.000 C 
ATOM     12  C   UNL     1       2.246   7.917  17.866  0.00  0.00    +0.000 A 
ATOM     13  C   UNL     1       2.569   6.583  18.137  0.00  0.00    +0.000 A 
ENDBRANCH   6   7
BRANCH   1  18
ATOM     14  C   UNL     1       5.975   4.302  16.607  0.00  0.00    +0.000 A 
ATOM     15  C   UNL     1       6.921   5.317  16.806  0.00  0.00    +0.000 A 
ATOM     16  C   UNL     1       7.060   5.920  18.053  0.00  0.00    +0.000 A 
ATOM     17  C   UNL     1       6.216   5.556  19.099  0.00  0.00    +0.000 A 
ATOM     18  C   UNL     1       5.182   4.619  18.902  0.00  0.00    +0.000 A 
ATOM     19  C   UNL     1       5.075   3.980  17.644  0.00  0.00    +0.000 A 
BRANCH  14  21
ATOM     20  C   UNL     1       6.333   4.301  14.257  0.00  0.00    +0.000 C 
ATOM     21  O   UNL     1       5.892   3.614  15.426  0.00  0.00    +0.000 OA
ENDBRANCH  14  21
BRANCH  19  22
ATOM     22  O   UNL     1       4.109   3.005  17.585  0.00  0.00    +0.000 OA
ATOM     23  C   UNL     1       3.009   3.203  16.710  0.00  0.00    +0.000 C 
ENDBRANCH  19  22
ENDBRANCH   1  18
TORSDOF 4
ENDMDL
MODEL 4
REMARK VINA RESULT:      -6.9      1.426      2.525
REMARK  Name = 
REMARK  7 active torsions:
REMARK  status: ('A' for Active; 'I' for Inactive)
REMARK    1  A    between atoms: C_1  and  O_2
REMARK    2  A    between atoms: O_2  and  C_3
REMARK    3  A    between atoms: C_7  and  C_8
REMARK    4  A    between atoms: N_13  and  C_14
REMARK    5  A    between atoms: C_17  and  C_18
REMARK    6  A    between atoms: C_21  and  O_22
REMARK    7  A    between atoms: O_22  and  C_23
REMARK                            x       y       z     vdW  Elec       q    Type
REMARK                         _______ _______ _______ _____ _____    ______ ____
ROOT
ATOM      1  C   UNL     1       4.164   4.346  19.991  0.00  0.00    +0.000 C 
ATOM      2  S   UNL     1       4.161   2.563  20.400  0.00  0.00    +0.000 S 
ATOM      3  C   UNL     1       2.379   2.421  20.307  0.00  0.00    +0.000 C 
ATOM      4  C   UNL     1       1.816   3.755  19.878  0.00  0.00    +0.000 C 
ATOM      5  O   UNL     1       0.601   3.921  19.794  0.00  0.00    +0.000 OA
ATOM      6  N   UNL     1       2.798   4.717  19.659  0.00  0.00    +0.000 N 
ENDROOT
BRANCH   6   7
ATOM      7  C   UNL     1       2.454   6.071  19.383  0.00  0.00    +0.000 A 
ATOM      8  C   UNL     1       2.571   6.606  18.093  0.00  0.00    +0.000 A 
ATOM      9  C   UNL     1       2.247   7.945  17.845  0.00  0.00    +0.000 A 
ATOM     10  C   UNL     1       1.779   8.769  18.871  0.00  0.00    +0.000 A 
ATOM     11  C   UNL     1       1.415  10.200  18.608  0.00  0.00    +0.000 C 
ATOM     12  C   UNL     1       1.648   8.234  20.155  0.00  0.00    +0.000 A 
ATOM     13  C   UNL     1       1.998   6.903  20.409  0.00  0.00    +0.000 A 
ENDBRANCH   6   7
BRANCH   1  18
ATOM     14  C   UNL     1       5.994   4.294  16.604  0.00  0.00    +0.000 A 
ATOM     15  C   UNL     1       6.940   5.308  16.802  0.00  0.00    +0.000 A 
ATOM     16  C   UNL     1       7.073   5.918  18.047  0.00  0.00    +0.000 A 
ATOM     17  C   UNL     1       6.221   5.563  19.089  0.00  0.00    +0.000 A 
ATOM     18  C   UNL     1       5.187   4.627  18.891  0.00  0.00    +0.000 A 
ATOM     19  C   UNL     1       5.086   3.980  17.636  0.00  0.00    +0.000 A 
BRANCH  14  21
ATOM     20  C   UNL     1       6.187   4.334  14.234  0.00  0.00    +0.000 C 
ATOM     21  O   UNL     1       5.916   3.599  15.426  0.00  0.00    +0.000 OA
ENDBRANCH  14  21
BRANCH  19  22
ATOM     22  O   UNL     1       4.118   3.008  17.577  0.00  0.00    +0.000 OA
ATOM     23  C   UNL     1       3.019   3.207  16.702  0.00  0.00    +0.000 C 
ENDBRANCH  19  22
ENDBRANCH   1  18
TORSDOF 4
ENDMDL
MODEL 5
REMARK VINA RESULT:      -6.6      1.149      2.376
REMARK  Name = 
REMARK  7 active torsions:
REMARK  status: ('A' for Active; 'I' for Inactive)
REMARK    1  A    between atoms: C_1  and  O_2
REMARK    2  A    between atoms: O_2  and  C_3
REMARK    3  A    between atoms: C_7  and  C_8
REMARK    4  A    between atoms: N_13  and  C_14
REMARK    5  A    between atoms: C_17  and  C_18
REMARK    6  A    between atoms: C_21  and  O_22
REMARK    7  A    between atoms: O_22  and  C_23
REMARK                            x       y       z     vdW  Elec       q    Type
REMARK                         _______ _______ _______ _____ _____    ______ ____
ROOT
ATOM      1  C   UNL     1       4.323   4.436  19.575  0.00  0.00    +0.000 C 
ATOM      2  S   UNL     1       4.470   2.613  19.545  0.00  0.00    +0.000 S 
ATOM      3  C   UNL     1       2.743   2.360  19.146  0.00  0.00    +0.000 C 
ATOM      4  C   UNL     1       2.093   3.711  18.963  0.00  0.00    +0.000 C 
ATOM      5  O   UNL     1       0.889   3.796  18.733  0.00  0.00    +0.000 OA
ATOM      6  N   UNL     1       2.979   4.770  19.131  0.00  0.00    +0.000 N 
ENDROOT
BRANCH   6   7
ATOM      7  C   UNL     1       2.522   6.120  19.134  0.00  0.00    +0.000 A 
ATOM      8  C   UNL     1       2.484   6.879  17.957  0.00  0.00    +0.000 A 
ATOM      9  C   UNL     1       2.051   8.210  17.983  0.00  0.00    +0.000 A 
ATOM     10  C   UNL     1       1.625   8.801  19.174  0.00  0.00    +0.000 A 
ATOM     11  C   UNL     1       1.145  10.221  19.205  0.00  0.00    +0.000 C 
ATOM     12  C   UNL     1       1.649   8.041  20.346  0.00  0.00    +0.000 A 
ATOM     13  C   UNL     1       2.108   6.719  20.327  0.00  0.00    +0.000 A 
ENDBRANCH   6   7
BRANCH   1  18
ATOM     14  C   UNL     1       6.339   5.778  16.581  0.00  0.00    +0.000 A 
ATOM     15  C   UNL     1       7.402   6.408  17.243  0.00  0.00    +0.000 A 
ATOM     16  C   UNL     1       7.538   6.301  18.625  0.00  0.00    +0.000 A 
ATOM     17  C   UNL     1       6.581   5.613  19.365  0.00  0.00    +0.000 A 
ATOM     18  C   UNL     1       5.442   5.063  18.744  0.00  0.00    +0.000 A 
ATOM     19  C   UNL     1       5.333   5.139  17.335  0.00  0.00    +0.000 A 
BRANCH  14  21
ATOM     20  C   UNL     1       7.147   4.919  14.517  0.00  0.00    +0.000 C 
ATOM     21  O   UNL     1       6.242   5.771  15.215  0.00  0.00    +0.000 OA
ENDBRANCH  14  21
BRANCH  19  22
ATOM     22  O   UNL     1       4.246   4.480  16.815  0.00  0.00    +0.000 OA
ATOM     23  C   UNL     1       4.474   3.291  16.074  0.00  0.00    +0.000 C 
ENDBRANCH  19  22
ENDBRANCH   1  18
TORSDOF 4
ENDMDL
MODEL 6
REMARK VINA RESULT:      -6.6      1.148      2.151
REMARK  Name = 
REMARK  7 active torsions:
REMARK  status: ('A' for Active; 'I' for Inactive)
REMARK    1  A    between atoms: C_1  and  O_2
REMARK    2  A    between atoms: O_2  and  C_3
REMARK    3  A    between atoms: C_7  and  C_8
REMARK    4  A    between atoms: N_13  and  C_14
REMARK    5  A    between atoms: C_17  and  C_18
REMARK    6  A    between atoms: C_21  and  O_22
REMARK    7  A    between atoms: O_22  and  C_23
REMARK                            x       y       z     vdW  Elec       q    Type
REMARK                         _______ _______ _______ _____ _____    ______ ____
ROOT
ATOM      1  C   UNL     1       4.332   4.392  19.586  0.00  0.00    +0.000 C 
ATOM      2  S   UNL     1       4.472   2.569  19.527  0.00  0.00    +0.000 S 
ATOM      3  C   UNL     1       2.741   2.328  19.140  0.00  0.00    +0.000 C 
ATOM      4  C   UNL     1       2.094   3.683  18.984  0.00  0.00    +0.000 C 
ATOM      5  O   UNL     1       0.888   3.776  18.767  0.00  0.00    +0.000 OA
ATOM      6  N   UNL     1       2.985   4.737  19.161  0.00  0.00    +0.000 N 
ENDROOT
BRANCH   6   7
ATOM      7  C   UNL     1       2.533   6.088  19.189  0.00  0.00    +0.000 A 
ATOM      8  C   UNL     1       2.115   6.693  20.381  0.00  0.00    +0.000 A 
ATOM      9  C   UNL     1       1.655   8.016  20.385  0.00  0.00    +0.000 A 
ATOM     10  C   UNL     1       1.627   8.766  19.208  0.00  0.00    +0.000 A 
ATOM     11  C   UNL     1       1.151  10.189  19.208  0.00  0.00    +0.000 C 
ATOM     12  C   UNL     1       2.057   8.169  18.020  0.00  0.00    +0.000 A 
ATOM     13  C   UNL     1       2.491   6.839  18.011  0.00  0.00    +0.000 A 
ENDBRANCH   6   7
BRANCH   1  18
ATOM     14  C   UNL     1       6.336   5.749  16.592  0.00  0.00    +0.000 A 
ATOM     15  C   UNL     1       7.392   6.390  17.253  0.00  0.00    +0.000 A 
ATOM     16  C   UNL     1       7.529   6.287  18.635  0.00  0.00    +0.000 A 
ATOM     17  C   UNL     1       6.579   5.590  19.377  0.00  0.00    +0.000 A 
ATOM     18  C   UNL     1       5.445   5.028  18.755  0.00  0.00    +0.000 A 
ATOM     19  C   UNL     1       5.336   5.102  17.346  0.00  0.00    +0.000 A 
BRANCH  14  21
ATOM     20  C   UNL     1       7.181   4.926  14.527  0.00  0.00    +0.000 C 
ATOM     21  O   UNL     1       6.239   5.739  15.226  0.00  0.00    +0.000 OA
ENDBRANCH  14  21
BRANCH  19  22
ATOM     22  O   UNL     1       4.256   4.430  16.827  0.00  0.00    +0.000 OA
ATOM     23  C   UNL     1       4.498   3.253  16.071  0.00  0.00    +0.000 C 
ENDBRANCH  19  22
ENDBRANCH   1  18
TORSDOF 4
ENDMDL
MODEL 7
REMARK VINA RESULT:      -6.5      0.915      1.438
REMARK  Name = 
REMARK  7 active torsions:
REMARK  status: ('A' for Active; 'I' for Inactive)
REMARK    1  A    between atoms: C_1  and  O_2
REMARK    2  A    between atoms: O_2  and  C_3
REMARK    3  A    between atoms: C_7  and  C_8
REMARK    4  A    between atoms: N_13  and  C_14
REMARK    5  A    between atoms: C_17  and  C_18
REMARK    6  A    between atoms: C_21  and  O_22
REMARK    7  A    between atoms: O_22  and  C_23
REMARK                            x       y       z     vdW  Elec       q    Type
REMARK                         _______ _______ _______ _____ _____    ______ ____
ROOT
ATOM      1  C   UNL     1       4.250   4.321  19.429  0.00  0.00    +0.000 C 
ATOM      2  S   UNL     1       4.341   2.627  20.113  0.00  0.00    +0.000 S 
ATOM      3  C   UNL     1       2.692   2.689  20.808  0.00  0.00    +0.000 C 
ATOM      4  C   UNL     1       2.063   4.007  20.425  0.00  0.00    +0.000 C 
ATOM      5  O   UNL     1       0.942   4.304  20.833  0.00  0.00    +0.000 OA
ATOM      6  N   UNL     1       2.894   4.803  19.643  0.00  0.00    +0.000 N 
ENDROOT
BRANCH   6   7
ATOM      7  C   UNL     1       2.530   6.136  19.300  0.00  0.00    +0.000 A 
ATOM      8  C   UNL     1       2.579   6.588  17.976  0.00  0.00    +0.000 A 
ATOM      9  C   UNL     1       2.236   7.909  17.660  0.00  0.00    +0.000 A 
ATOM     10  C   UNL     1       1.813   8.794  18.654  0.00  0.00    +0.000 A 
ATOM     11  C   UNL     1       1.429  10.205  18.321  0.00  0.00    +0.000 C 
ATOM     12  C   UNL     1       1.749   8.341  19.974  0.00  0.00    +0.000 A 
ATOM     13  C   UNL     1       2.119   7.030  20.294  0.00  0.00    +0.000 A 
ENDBRANCH   6   7
BRANCH   1  18
ATOM     14  C   UNL     1       6.285   5.008  16.233  0.00  0.00    +0.000 A 
ATOM     15  C   UNL     1       5.655   4.140  15.331  0.00  0.00    +0.000 A 
ATOM     16  C   UNL     1       4.515   3.434  15.706  0.00  0.00    +0.000 A 
ATOM     17  C   UNL     1       4.028   3.542  17.006  0.00  0.00    +0.000 A 
ATOM     18  C   UNL     1       4.702   4.319  17.969  0.00  0.00    +0.000 A 
ATOM     19  C   UNL     1       5.834   5.067  17.568  0.00  0.00    +0.000 A 
BRANCH  14  21
ATOM     20  C   UNL     1       7.830   5.618  14.533  0.00  0.00    +0.000 C 
ATOM     21  O   UNL     1       7.338   5.800  15.859  0.00  0.00    +0.000 OA
ENDBRANCH  14  21
BRANCH  19  22
ATOM     22  O   UNL     1       6.354   5.876  18.549  0.00  0.00    +0.000 OA
ATOM     23  C   UNL     1       7.641   5.567  19.062  0.00  0.00    +0.000 C 
ENDBRANCH  19  22
ENDBRANCH   1  18
TORSDOF 4
ENDMDL
MODEL 8
REMARK VINA RESULT:      -6.4      0.919      1.035
REMARK  Name = 
REMARK  7 active torsions:
REMARK  status: ('A' for Active; 'I' for Inactive)
REMARK    1  A    between atoms: C_1  and  O_2
REMARK    2  A    between atoms: O_2  and  C_3
REMARK    3  A    between atoms: C_7  and  C_8
REMARK    4  A    between atoms: N_13  and  C_14
REMARK    5  A    between atoms: C_17  and  C_18
REMARK    6  A    between atoms: C_21  and  O_22
REMARK    7  A    between atoms: O_22  and  C_23
REMARK                            x       y       z     vdW  Elec       q    Type
REMARK                         _______ _______ _______ _____ _____    ______ ____
ROOT
ATOM      1  C   UNL     1       4.250   4.286  19.457  0.00  0.00    +0.000 C 
ATOM      2  S   UNL     1       4.325   2.588  20.133  0.00  0.00    +0.000 S 
ATOM      3  C   UNL     1       2.673   2.660  20.820  0.00  0.00    +0.000 C 
ATOM      4  C   UNL     1       2.056   3.985  20.441  0.00  0.00    +0.000 C 
ATOM      5  O   UNL     1       0.936   4.289  20.845  0.00  0.00    +0.000 OA
ATOM      6  N   UNL     1       2.898   4.778  19.667  0.00  0.00    +0.000 N 
ENDROOT
BRANCH   6   7
ATOM      7  C   UNL     1       2.545   6.116  19.329  0.00  0.00    +0.000 A 
ATOM      8  C   UNL     1       2.125   7.029  20.305  0.00  0.00    +0.000 A 
ATOM      9  C   UNL     1       1.764   8.335  19.951  0.00  0.00    +0.000 A 
ATOM     10  C   UNL     1       1.839   8.761  18.624  0.00  0.00    +0.000 A 
ATOM     11  C   UNL     1       1.468  10.163  18.240  0.00  0.00    +0.000 C 
ATOM     12  C   UNL     1       2.272   7.857  17.651  0.00  0.00    +0.000 A 
ATOM     13  C   UNL     1       2.606   6.544  18.000  0.00  0.00    +0.000 A 
ENDBRANCH   6   7
BRANCH   1  18
ATOM     14  C   UNL     1       6.292   4.995  16.270  0.00  0.00    +0.000 A 
ATOM     15  C   UNL     1       5.678   4.119  15.366  0.00  0.00    +0.000 A 
ATOM     16  C   UNL     1       4.545   3.399  15.736  0.00  0.00    +0.000 A 
ATOM     17  C   UNL     1       4.050   3.503  17.033  0.00  0.00    +0.000 A 
ATOM     18  C   UNL     1       4.710   4.288  17.999  0.00  0.00    +0.000 A 
ATOM     19  C   UNL     1       5.835   5.050  17.603  0.00  0.00    +0.000 A 
BRANCH  14  21
ATOM     20  C   UNL     1       7.813   5.650  14.564  0.00  0.00    +0.000 C 
ATOM     21  O   UNL     1       7.337   5.799  15.900  0.00  0.00    +0.000 OA
ENDBRANCH  14  21
BRANCH  19  22
ATOM     22  O   UNL     1       6.340   5.866  18.585  0.00  0.00    +0.000 OA
ATOM     23  C   UNL     1       7.638   5.588  19.087  0.00  0.00    +0.000 C 
ENDBRANCH  19  22
ENDBRANCH   1  18
TORSDOF 4
ENDMDL
MODEL 9
REMARK VINA RESULT:      -6.4      9.666     12.809
REMARK  Name = 
REMARK  7 active torsions:
REMARK  status: ('A' for Active; 'I' for Inactive)
REMARK    1  A    between atoms: C_1  and  O_2
REMARK    2  A    between atoms: O_2  and  C_3
REMARK    3  A    between atoms: C_7  and  C_8
REMARK    4  A    between atoms: N_13  and  C_14
REMARK    5  A    between atoms: C_17  and  C_18
REMARK    6  A    between atoms: C_21  and  O_22
REMARK    7  A    between atoms: O_22  and  C_23
REMARK                            x       y       z     vdW  Elec       q    Type
REMARK                         _______ _______ _______ _____ _____    ______ ____
ROOT
ATOM      1  C   UNL     1      -5.291  14.050  21.139  0.00  0.00    +0.000 C 
ATOM      2  S   UNL     1      -6.040  15.611  20.550  0.00  0.00    +0.000 S 
ATOM      3  C   UNL     1      -4.472  16.469  20.455  0.00  0.00    +0.000 C 
ATOM      4  C   UNL     1      -3.373  15.496  20.810  0.00  0.00    +0.000 C 
ATOM      5  O   UNL     1      -2.204  15.869  20.865  0.00  0.00    +0.000 OA
ATOM      6  N   UNL     1      -3.847  14.219  21.096  0.00  0.00    +0.000 N 
ENDROOT
BRANCH   6   7
ATOM      7  C   UNL     1      -2.977  13.202  21.584  0.00  0.00    +0.000 A 
ATOM      8  C   UNL     1      -1.992  12.631  20.768  0.00  0.00    +0.000 A 
ATOM      9  C   UNL     1      -1.159  11.618  21.260  0.00  0.00    +0.000 A 
ATOM     10  C   UNL     1      -1.276  11.174  22.578  0.00  0.00    +0.000 A 
ATOM     11  C   UNL     1      -0.376  10.101  23.116  0.00  0.00    +0.000 C 
ATOM     12  C   UNL     1      -2.248  11.753  23.398  0.00  0.00    +0.000 A 
ATOM     13  C   UNL     1      -3.099  12.745  22.899  0.00  0.00    +0.000 A 
ENDBRANCH   6   7
BRANCH   1  18
ATOM     14  C   UNL     1      -7.056  10.767  20.174  0.00  0.00    +0.000 A 
ATOM     15  C   UNL     1      -6.976  10.828  18.776  0.00  0.00    +0.000 A 
ATOM     16  C   UNL     1      -6.260  11.846  18.152  0.00  0.00    +0.000 A 
ATOM     17  C   UNL     1      -5.665  12.846  18.917  0.00  0.00    +0.000 A 
ATOM     18  C   UNL     1      -5.820  12.875  20.317  0.00  0.00    +0.000 A 
ATOM     19  C   UNL     1      -6.513  11.814  20.947  0.00  0.00    +0.000 A 
BRANCH  14  21
ATOM     20  C   UNL     1      -7.397   8.417  20.295  0.00  0.00    +0.000 C 
ATOM     21  O   UNL     1      -7.657   9.718  20.818  0.00  0.00    +0.000 OA
ENDBRANCH  14  21
BRANCH  19  22
ATOM     22  O   UNL     1      -6.515  11.875  22.319  0.00  0.00    +0.000 OA
ATOM     23  C   UNL     1      -7.727  12.219  22.973  0.00  0.00    +0.000 C 
ENDBRANCH  19  22
ENDBRANCH   1  18
TORSDOF 4
ENDMDL
