MODEL 1
REMARK VINA RESULT:      -7.1      0.000      0.000
REMARK  Name = 
REMARK  8 active torsions:
REMARK  status: ('A' for Active; 'I' for Inactive)
REMARK    1  A    between atoms: C_1  and  C_2
REMARK    2  A    between atoms: C_2  and  C_3
REMARK    3  A    between atoms: C_2  and  C_4
REMARK    4  A    between atoms: C_4  and  O_5
REMARK    5  A    between atoms: O_5  and  C_6
REMARK    6  A    between atoms: C_12  and  C_13
REMARK    7  A    between atoms: C_13  and  C_14
REMARK    8  A    between atoms: C_16  and  C_17
REMARK                            x       y       z     vdW  Elec       q    Type
REMARK                         _______ _______ _______ _____ _____    ______ ____
ROOT
ATOM      1  C   UNK     1       4.393   4.952  19.075  0.00  0.00    +0.000 A 
ATOM      2  C   UNK     1       4.423   3.574  19.396  0.00  0.00    +0.000 A 
ATOM      3  C   UNK     1       3.307   2.745  19.251  0.00  0.00    +0.000 A 
ATOM      4  C   UNK     1       2.129   3.292  18.793  0.00  0.00    +0.000 A 
ATOM      5 CL   UNK     1       0.735   2.300  18.642  0.00  0.00    +0.000 Cl
ATOM      6  C   UNK     1       2.073   4.642  18.460  0.00  0.00    +0.000 A 
ATOM      7  C   UNK     1       3.199   5.509  18.584  0.00  0.00    +0.000 A 
ENDROOT
BRANCH   1   8
ATOM      8  O   UNK     1       5.494   5.753  19.261  0.00  0.00    +0.000 OA
BRANCH   8   9
ATOM      9  C   UNK     1       6.762   5.106  19.118  0.00  0.00    +0.000 C 
BRANCH   9  11
ATOM     10  C   UNK     1       7.145   4.586  16.671  0.00  0.00    +0.000 C 
ATOM     11  C   UNK     1       7.513   5.493  17.842  0.00  0.00    +0.000 C 
ATOM     12  C   UNK     1       7.196   6.954  17.506  0.00  0.00    +0.000 C 
ENDBRANCH   9  11
ENDBRANCH   8   9
ENDBRANCH   1   8
BRANCH   7  13
ATOM     13  C   UNK     1       2.886   6.944  18.165  0.00  0.00    +0.000 C 
BRANCH  13  14
ATOM     14  C   UNK     1       2.085   7.925  18.975  0.00  0.00    +0.000 A 
ATOM     15  N   UNK     1       1.822   7.902  20.263  0.00  0.00    +0.000 NA
ATOM     16  C   UNK     1       0.986   8.973  20.611  0.00  0.00    +0.000 A 
ATOM     17  C   UNK     1       0.791   9.901  19.608  0.00  0.00    +0.000 A 
ATOM     18  S   UNK     1       1.580   9.388  18.180  0.00  0.00    +0.000 S 
BRANCH  16  19
ATOM     19  C   UNK     1       0.309   9.064  21.925  0.00  0.00    +0.000 C 
ATOM     20  O   UNK     1      -0.754   8.401  22.175  0.00  0.00    +0.000 OA
ATOM     21  O   UNK     1       0.858   9.690  22.898  0.00  0.00    +0.000 OA
ENDBRANCH  16  19
ENDBRANCH  13  14
ENDBRANCH   7  13
TORSDOF 6
ENDMDL
MODEL 2
REMARK VINA RESULT:      -7.0      0.460      1.096
REMARK  Name = 
REMARK  8 active torsions:
REMARK  status: ('A' for Active; 'I' for Inactive)
REMARK    1  A    between atoms: C_1  and  C_2
REMARK    2  A    between atoms: C_2  and  C_3
REMARK    3  A    between atoms: C_2  and  C_4
REMARK    4  A    between atoms: C_4  and  O_5
REMARK    5  A    between atoms: O_5  and  C_6
REMARK    6  A    between atoms: C_12  and  C_13
REMARK    7  A    between atoms: C_13  and  C_14
REMARK    8  A    between atoms: C_16  and  C_17
REMARK                            x       y       z     vdW  Elec       q    Type
REMARK                         _______ _______ _______ _____ _____    ______ ____
ROOT
ATOM      1  C   UNK     1       4.337   4.735  19.280  0.00  0.00    +0.000 A 
ATOM      2  C   UNK     1       4.283   3.361  19.616  0.00  0.00    +0.000 A 
ATOM      3  C   UNK     1       3.142   2.581  19.405  0.00  0.00    +0.000 A 
ATOM      4  C   UNK     1       2.025   3.175  18.863  0.00  0.00    +0.000 A 
ATOM      5 CL   UNK     1       0.600   2.244  18.629  0.00  0.00    +0.000 Cl
ATOM      6  C   UNK     1       2.052   4.521  18.513  0.00  0.00    +0.000 A 
ATOM      7  C   UNK     1       3.206   5.339  18.704  0.00  0.00    +0.000 A 
ENDROOT
BRANCH   1   8
ATOM      8  O   UNK     1       5.459   5.488  19.532  0.00  0.00    +0.000 OA
BRANCH   8   9
ATOM      9  C   UNK     1       6.553   5.291  18.630  0.00  0.00    +0.000 C 
BRANCH   9  11
ATOM     10  C   UNK     1       7.596   7.368  17.629  0.00  0.00    +0.000 C 
ATOM     11  C   UNK     1       6.561   6.262  17.447  0.00  0.00    +0.000 C 
ATOM     12  C   UNK     1       6.842   5.474  16.163  0.00  0.00    +0.000 C 
ENDBRANCH   9  11
ENDBRANCH   8   9
ENDBRANCH   1   8
BRANCH   7  13
ATOM     13  C   UNK     1       2.987   6.780  18.250  0.00  0.00    +0.000 C 
BRANCH  13  14
ATOM     14  C   UNK     1       2.175   7.805  18.991  0.00  0.00    +0.000 A 
ATOM     15  N   UNK     1       1.840   7.823  20.262  0.00  0.00    +0.000 NA
ATOM     16  C   UNK     1       1.021   8.927  20.538  0.00  0.00    +0.000 A 
ATOM     17  C   UNK     1       0.913   9.835  19.504  0.00  0.00    +0.000 A 
ATOM     18  S   UNK     1       1.762   9.263  18.135  0.00  0.00    +0.000 S 
BRANCH  16  19
ATOM     19  C   UNK     1       0.276   9.071  21.809  0.00  0.00    +0.000 C 
ATOM     20  O   UNK     1       0.512  10.035  22.614  0.00  0.00    +0.000 OA
ATOM     21  O   UNK     1      -0.731   8.320  22.063  0.00  0.00    +0.000 OA
ENDBRANCH  16  19
ENDBRANCH  13  14
ENDBRANCH   7  13
TORSDOF 6
ENDMDL
MODEL 3
REMARK VINA RESULT:      -6.8      3.026      6.628
REMARK  Name = 
REMARK  8 active torsions:
REMARK  status: ('A' for Active; 'I' for Inactive)
REMARK    1  A    between atoms: C_1  and  C_2
REMARK    2  A    between atoms: C_2  and  C_3
REMARK    3  A    between atoms: C_2  and  C_4
REMARK    4  A    between atoms: C_4  and  O_5
REMARK    5  A    between atoms: O_5  and  C_6
REMARK    6  A    between atoms: C_12  and  C_13
REMARK    7  A    between atoms: C_13  and  C_14
REMARK    8  A    between atoms: C_16  and  C_17
REMARK                            x       y       z     vdW  Elec       q    Type
REMARK                         _______ _______ _______ _____ _____    ______ ____
ROOT
ATOM      1  C   UNK     1       2.166   6.364  19.815  0.00  0.00    +0.000 A 
ATOM      2  C   UNK     1       1.384   5.558  20.676  0.00  0.00    +0.000 A 
ATOM      3  C   UNK     1       1.034   4.242  20.361  0.00  0.00    +0.000 A 
ATOM      4  C   UNK     1       1.455   3.713  19.161  0.00  0.00    +0.000 A 
ATOM      5 CL   UNK     1       1.007   2.110  18.737  0.00  0.00    +0.000 Cl
ATOM      6  C   UNK     1       2.234   4.479  18.299  0.00  0.00    +0.000 A 
ATOM      7  C   UNK     1       2.618   5.820  18.599  0.00  0.00    +0.000 A 
ENDROOT
BRANCH   1   8
ATOM      8  O   UNK     1       2.465   7.667  20.132  0.00  0.00    +0.000 OA
BRANCH   8   9
ATOM      9  C   UNK     1       1.340   8.529  20.333  0.00  0.00    +0.000 C 
BRANCH   9  11
ATOM     10  C   UNK     1      -0.274  10.189  19.313  0.00  0.00    +0.000 C 
ATOM     11  C   UNK     1       0.769   9.111  19.038  0.00  0.00    +0.000 C 
ATOM     12  C   UNK     1       1.920   9.683  18.203  0.00  0.00    +0.000 C 
ENDBRANCH   9  11
ENDBRANCH   8   9
ENDBRANCH   1   8
BRANCH   7  13
ATOM     13  C   UNK     1       3.463   6.452  17.496  0.00  0.00    +0.000 C 
BRANCH  13  14
ATOM     14  C   UNK     1       4.745   5.882  16.957  0.00  0.00    +0.000 A 
ATOM     15  N   UNK     1       5.195   5.900  15.722  0.00  0.00    +0.000 NA
ATOM     16  C   UNK     1       6.407   5.200  15.631  0.00  0.00    +0.000 A 
ATOM     17  C   UNK     1       6.950   4.831  16.845  0.00  0.00    +0.000 A 
ATOM     18  S   UNK     1       5.894   5.274  18.114  0.00  0.00    +0.000 S 
BRANCH  16  19
ATOM     19  C   UNK     1       7.017   4.826  14.336  0.00  0.00    +0.000 C 
ATOM     20  O   UNK     1       6.520   3.902  13.606  0.00  0.00    +0.000 OA
ATOM     21  O   UNK     1       7.972   5.521  13.840  0.00  0.00    +0.000 OA
ENDBRANCH  16  19
ENDBRANCH  13  14
ENDBRANCH   7  13
TORSDOF 6
ENDMDL
MODEL 4
REMARK VINA RESULT:      -6.8      2.294      3.991
REMARK  Name = 
REMARK  8 active torsions:
REMARK  status: ('A' for Active; 'I' for Inactive)
REMARK    1  A    between atoms: C_1  and  C_2
REMARK    2  A    between atoms: C_2  and  C_3
REMARK    3  A    between atoms: C_2  and  C_4
REMARK    4  A    between atoms: C_4  and  O_5
REMARK    5  A    between atoms: O_5  and  C_6
REMARK    6  A    between atoms: C_12  and  C_13
REMARK    7  A    between atoms: C_13  and  C_14
REMARK    8  A    between atoms: C_16  and  C_17
REMARK                            x       y       z     vdW  Elec       q    Type
REMARK                         _______ _______ _______ _____ _____    ______ ____
ROOT
ATOM      1  C   UNK     1       3.350   5.318  18.373  0.00  0.00    +0.000 A 
ATOM      2  C   UNK     1       4.496   4.499  18.508  0.00  0.00    +0.000 A 
ATOM      3  C   UNK     1       5.779   4.943  18.175  0.00  0.00    +0.000 A 
ATOM      4  C   UNK     1       5.933   6.220  17.686  0.00  0.00    +0.000 A 
ATOM      5 CL   UNK     1       7.495   6.775  17.238  0.00  0.00    +0.000 Cl
ATOM      6  C   UNK     1       4.825   7.052  17.553  0.00  0.00    +0.000 A 
ATOM      7  C   UNK     1       3.506   6.632  17.896  0.00  0.00    +0.000 A 
ENDROOT
BRANCH   1   8
ATOM      8  O   UNK     1       2.094   4.845  18.672  0.00  0.00    +0.000 OA
BRANCH   8   9
ATOM      9  C   UNK     1       1.795   4.719  20.065  0.00  0.00    +0.000 C 
BRANCH   9  11
ATOM     10  C   UNK     1       0.831   2.539  19.215  0.00  0.00    +0.000 C 
ATOM     11  C   UNK     1       0.970   3.477  20.410  0.00  0.00    +0.000 C 
ATOM     12  C   UNK     1       1.637   2.751  21.583  0.00  0.00    +0.000 C 
ENDBRANCH   9  11
ENDBRANCH   8   9
ENDBRANCH   1   8
BRANCH   7  13
ATOM     13  C   UNK     1       2.460   7.718  17.655  0.00  0.00    +0.000 C 
BRANCH  13  14
ATOM     14  C   UNK     1       1.835   8.568  18.726  0.00  0.00    +0.000 A 
ATOM     15  N   UNK     1       1.712   8.310  20.009  0.00  0.00    +0.000 NA
ATOM     16  C   UNK     1       1.009   9.339  20.651  0.00  0.00    +0.000 A 
ATOM     17  C   UNK     1       0.783  10.455  19.870  0.00  0.00    +0.000 A 
ATOM     18  S   UNK     1       1.367  10.185  18.286  0.00  0.00    +0.000 S 
BRANCH  16  19
ATOM     19  C   UNK     1       0.489   9.212  22.031  0.00  0.00    +0.000 C 
ATOM     20  O   UNK     1      -0.650   8.684  22.269  0.00  0.00    +0.000 OA
ATOM     21  O   UNK     1       1.234   9.489  23.036  0.00  0.00    +0.000 OA
ENDBRANCH  16  19
ENDBRANCH  13  14
ENDBRANCH   7  13
TORSDOF 6
ENDMDL
MODEL 5
REMARK VINA RESULT:      -6.8      3.623      6.933
REMARK  Name = 
REMARK  8 active torsions:
REMARK  status: ('A' for Active; 'I' for Inactive)
REMARK    1  A    between atoms: C_1  and  C_2
REMARK    2  A    between atoms: C_2  and  C_3
REMARK    3  A    between atoms: C_2  and  C_4
REMARK    4  A    between atoms: C_4  and  O_5
REMARK    5  A    between atoms: O_5  and  C_6
REMARK    6  A    between atoms: C_12  and  C_13
REMARK    7  A    between atoms: C_13  and  C_14
REMARK    8  A    between atoms: C_16  and  C_17
REMARK                            x       y       z     vdW  Elec       q    Type
REMARK                         _______ _______ _______ _____ _____    ______ ____
ROOT
ATOM      1  C   UNK     1       2.820   5.234  19.836  0.00  0.00    +0.000 A 
ATOM      2  C   UNK     1       2.301   6.228  20.699  0.00  0.00    +0.000 A 
ATOM      3  C   UNK     1       1.933   7.498  20.244  0.00  0.00    +0.000 A 
ATOM      4  C   UNK     1       2.094   7.797  18.910  0.00  0.00    +0.000 A 
ATOM      5 CL   UNK     1       1.682   9.363  18.337  0.00  0.00    +0.000 Cl
ATOM      6  C   UNK     1       2.592   6.836  18.037  0.00  0.00    +0.000 A 
ATOM      7  C   UNK     1       2.964   5.528  18.468  0.00  0.00    +0.000 A 
ENDROOT
BRANCH   1   8
ATOM      8  O   UNK     1       3.209   4.005  20.314  0.00  0.00    +0.000 OA
BRANCH   8   9
ATOM      9  C   UNK     1       2.150   3.141  20.738  0.00  0.00    +0.000 C 
BRANCH   9  11
ATOM     10  C   UNK     1       0.731   2.484  18.748  0.00  0.00    +0.000 C 
ATOM     11  C   UNK     1       1.810   2.040  19.730  0.00  0.00    +0.000 C 
ATOM     12  C   UNK     1       3.087   1.648  18.979  0.00  0.00    +0.000 C 
ENDBRANCH   9  11
ENDBRANCH   8   9
ENDBRANCH   1   8
BRANCH   7  13
ATOM     13  C   UNK     1       3.489   4.658  17.328  0.00  0.00    +0.000 C 
BRANCH  13  14
ATOM     14  C   UNK     1       4.868   4.750  16.737  0.00  0.00    +0.000 A 
ATOM     15  N   UNK     1       5.212   4.982  15.490  0.00  0.00    +0.000 NA
ATOM     16  C   UNK     1       6.605   4.923  15.346  0.00  0.00    +0.000 A 
ATOM     17  C   UNK     1       7.303   4.839  16.534  0.00  0.00    +0.000 A 
ATOM     18  S   UNK     1       6.210   4.735  17.844  0.00  0.00    +0.000 S 
BRANCH  16  19
ATOM     19  C   UNK     1       7.270   4.882  14.024  0.00  0.00    +0.000 C 
ATOM     20  O   UNK     1       6.839   4.133  13.083  0.00  0.00    +0.000 OA
ATOM     21  O   UNK     1       8.205   5.711  13.739  0.00  0.00    +0.000 OA
ENDBRANCH  16  19
ENDBRANCH  13  14
ENDBRANCH   7  13
TORSDOF 6
ENDMDL
MODEL 6
REMARK VINA RESULT:      -6.8      3.215      6.582
REMARK  Name = 
REMARK  8 active torsions:
REMARK  status: ('A' for Active; 'I' for Inactive)
REMARK    1  A    between atoms: C_1  and  C_2
REMARK    2  A    between atoms: C_2  and  C_3
REMARK    3  A    between atoms: C_2  and  C_4
REMARK    4  A    between atoms: C_4  and  O_5
REMARK    5  A    between atoms: O_5  and  C_6
REMARK    6  A    between atoms: C_12  and  C_13
REMARK    7  A    between atoms: C_13  and  C_14
REMARK    8  A    between atoms: C_16  and  C_17
REMARK                            x       y       z     vdW  Elec       q    Type
REMARK                         _______ _______ _______ _____ _____    ______ ____
ROOT
ATOM      1  C   UNK     1       2.002   7.224  19.966  0.00  0.00    +0.000 A 
ATOM      2  C   UNK     1       1.298   7.997  20.921  0.00  0.00    +0.000 A 
ATOM      3  C   UNK     1       0.855   9.296  20.655  0.00  0.00    +0.000 A 
ATOM      4  C   UNK     1       1.125   9.850  19.424  0.00  0.00    +0.000 A 
ATOM      5 CL   UNK     1       0.621  11.457  19.089  0.00  0.00    +0.000 Cl
ATOM      6  C   UNK     1       1.806   9.110  18.463  0.00  0.00    +0.000 A 
ATOM      7  C   UNK     1       2.259   7.778  18.700  0.00  0.00    +0.000 A 
ENDROOT
BRANCH   1   8
ATOM      8  O   UNK     1       2.460   5.963  20.266  0.00  0.00    +0.000 OA
BRANCH   8   9
ATOM      9  C   UNK     1       1.464   5.028  20.692  0.00  0.00    +0.000 C 
BRANCH   9  11
ATOM     10  C   UNK     1       1.990   2.807  21.784  0.00  0.00    +0.000 C 
ATOM     11  C   UNK     1       1.853   3.565  20.468  0.00  0.00    +0.000 C 
ATOM     12  C   UNK     1       0.796   2.904  19.578  0.00  0.00    +0.000 C 
ENDBRANCH   9  11
ENDBRANCH   8   9
ENDBRANCH   1   8
BRANCH   7  13
ATOM     13  C   UNK     1       2.985   7.180  17.497  0.00  0.00    +0.000 C 
BRANCH  13  14
ATOM     14  C   UNK     1       4.004   6.077  17.565  0.00  0.00    +0.000 A 
ATOM     15  N   UNK     1       5.261   6.145  17.944  0.00  0.00    +0.000 NA
ATOM     16  C   UNK     1       5.886   4.898  17.798  0.00  0.00    +0.000 A 
ATOM     17  C   UNK     1       5.030   3.859  17.493  0.00  0.00    +0.000 A 
ATOM     18  S   UNK     1       3.440   4.455  17.289  0.00  0.00    +0.000 S 
BRANCH  16  19
ATOM     19  C   UNK     1       7.352   4.723  17.894  0.00  0.00    +0.000 C 
ATOM     20  O   UNK     1       8.052   4.391  16.877  0.00  0.00    +0.000 OA
ATOM     21  O   UNK     1       7.979   5.049  18.962  0.00  0.00    +0.000 OA
ENDBRANCH  16  19
ENDBRANCH  13  14
ENDBRANCH   7  13
TORSDOF 6
ENDMDL
MODEL 7
REMARK VINA RESULT:      -6.8      2.977      6.767
REMARK  Name = 
REMARK  8 active torsions:
REMARK  status: ('A' for Active; 'I' for Inactive)
REMARK    1  A    between atoms: C_1  and  C_2
REMARK    2  A    between atoms: C_2  and  C_3
REMARK    3  A    between atoms: C_2  and  C_4
REMARK    4  A    between atoms: C_4  and  O_5
REMARK    5  A    between atoms: O_5  and  C_6
REMARK    6  A    between atoms: C_12  and  C_13
REMARK    7  A    between atoms: C_13  and  C_14
REMARK    8  A    between atoms: C_16  and  C_17
REMARK                            x       y       z     vdW  Elec       q    Type
REMARK                         _______ _______ _______ _____ _____    ______ ____
ROOT
ATOM      1  C   UNK     1       2.145   6.299  20.010  0.00  0.00    +0.000 A 
ATOM      2  C   UNK     1       1.328   5.416  20.756  0.00  0.00    +0.000 A 
ATOM      3  C   UNK     1       1.051   4.112  20.334  0.00  0.00    +0.000 A 
ATOM      4  C   UNK     1       1.582   3.675  19.141  0.00  0.00    +0.000 A 
ATOM      5 CL   UNK     1       1.226   2.089  18.586  0.00  0.00    +0.000 Cl
ATOM      6  C   UNK     1       2.397   4.517  18.392  0.00  0.00    +0.000 A 
ATOM      7  C   UNK     1       2.709   5.847  18.804  0.00  0.00    +0.000 A 
ENDROOT
BRANCH   1   8
ATOM      8  O   UNK     1       2.372   7.588  20.429  0.00  0.00    +0.000 OA
BRANCH   8   9
ATOM      9  C   UNK     1       1.389   8.550  20.033  0.00  0.00    +0.000 C 
BRANCH   9  11
ATOM     10  C   UNK     1      -0.633   8.476  21.552  0.00  0.00    +0.000 C 
ATOM     11  C   UNK     1       0.660   9.208  21.206  0.00  0.00    +0.000 C 
ATOM     12  C   UNK     1       1.597   9.235  22.418  0.00  0.00    +0.000 C 
ENDBRANCH   9  11
ENDBRANCH   8   9
ENDBRANCH   1   8
BRANCH   7  13
ATOM     13  C   UNK     1       3.614   6.574  17.812  0.00  0.00    +0.000 C 
BRANCH  13  14
ATOM     14  C   UNK     1       4.843   5.989  17.175  0.00  0.00    +0.000 A 
ATOM     15  N   UNK     1       5.202   6.013  15.910  0.00  0.00    +0.000 NA
ATOM     16  C   UNK     1       6.390   5.293  15.724  0.00  0.00    +0.000 A 
ATOM     17  C   UNK     1       7.014   4.901  16.891  0.00  0.00    +0.000 A 
ATOM     18  S   UNK     1       6.062   5.348  18.239  0.00  0.00    +0.000 S 
BRANCH  16  19
ATOM     19  C   UNK     1       6.898   4.922  14.384  0.00  0.00    +0.000 C 
ATOM     20  O   UNK     1       7.853   5.566  13.831  0.00  0.00    +0.000 OA
ATOM     21  O   UNK     1       6.496   3.850  13.808  0.00  0.00    +0.000 OA
ENDBRANCH  16  19
ENDBRANCH  13  14
ENDBRANCH   7  13
TORSDOF 6
ENDMDL
MODEL 8
REMARK VINA RESULT:      -6.7      3.886      7.349
REMARK  Name = 
REMARK  8 active torsions:
REMARK  status: ('A' for Active; 'I' for Inactive)
REMARK    1  A    between atoms: C_1  and  C_2
REMARK    2  A    between atoms: C_2  and  C_3
REMARK    3  A    between atoms: C_2  and  C_4
REMARK    4  A    between atoms: C_4  and  O_5
REMARK    5  A    between atoms: O_5  and  C_6
REMARK    6  A    between atoms: C_12  and  C_13
REMARK    7  A    between atoms: C_13  and  C_14
REMARK    8  A    between atoms: C_16  and  C_17
REMARK                            x       y       z     vdW  Elec       q    Type
REMARK                         _______ _______ _______ _____ _____    ______ ____
ROOT
ATOM      1  C   UNK     1       3.666   5.386  19.077  0.00  0.00    +0.000 A 
ATOM      2  C   UNK     1       2.390   5.890  19.422  0.00  0.00    +0.000 A 
ATOM      3  C   UNK     1       1.916   7.119  18.952  0.00  0.00    +0.000 A 
ATOM      4  C   UNK     1       2.727   7.873  18.134  0.00  0.00    +0.000 A 
ATOM      5 CL   UNK     1       2.180   9.402  17.575  0.00  0.00    +0.000 Cl
ATOM      6  C   UNK     1       3.983   7.398  17.770  0.00  0.00    +0.000 A 
ATOM      7  C   UNK     1       4.488   6.142  18.222  0.00  0.00    +0.000 A 
ENDROOT
BRANCH   1   8
ATOM      8  O   UNK     1       4.123   4.192  19.582  0.00  0.00    +0.000 OA
BRANCH   8   9
ATOM      9  C   UNK     1       3.581   3.015  18.975  0.00  0.00    +0.000 C 
BRANCH   9  11
ATOM     10  C   UNK     1       2.606   2.765  21.297  0.00  0.00    +0.000 C 
ATOM     11  C   UNK     1       2.561   2.283  19.851  0.00  0.00    +0.000 C 
ATOM     12  C   UNK     1       1.162   2.494  19.261  0.00  0.00    +0.000 C 
ENDBRANCH   9  11
ENDBRANCH   8   9
ENDBRANCH   1   8
BRANCH   7  13
ATOM     13  C   UNK     1       5.889   5.846  17.693  0.00  0.00    +0.000 C 
BRANCH  13  14
ATOM     14  C   UNK     1       6.199   5.293  16.331  0.00  0.00    +0.000 A 
ATOM     15  N   UNK     1       7.165   5.635  15.507  0.00  0.00    +0.000 NA
ATOM     16  C   UNK     1       7.063   4.918  14.307  0.00  0.00    +0.000 A 
ATOM     17  C   UNK     1       6.132   3.899  14.323  0.00  0.00    +0.000 A 
ATOM     18  S   UNK     1       5.301   3.894  15.817  0.00  0.00    +0.000 S 
BRANCH  16  19
ATOM     19  C   UNK     1       7.842   5.269  13.098  0.00  0.00    +0.000 C 
ATOM     20  O   UNK     1       8.883   6.006  13.166  0.00  0.00    +0.000 OA
ATOM     21  O   UNK     1       7.581   4.716  11.971  0.00  0.00    +0.000 OA
ENDBRANCH  16  19
ENDBRANCH  13  14
ENDBRANCH   7  13
TORSDOF 6
ENDMDL
MODEL 9
REMARK VINA RESULT:      -6.7      2.305      4.020
REMARK  Name = 
REMARK  8 active torsions:
REMARK  status: ('A' for Active; 'I' for Inactive)
REMARK    1  A    between atoms: C_1  and  C_2
REMARK    2  A    between atoms: C_2  and  C_3
REMARK    3  A    between atoms: C_2  and  C_4
REMARK    4  A    between atoms: C_4  and  O_5
REMARK    5  A    between atoms: O_5  and  C_6
REMARK    6  A    between atoms: C_12  and  C_13
REMARK    7  A    between atoms: C_13  and  C_14
REMARK    8  A    between atoms: C_16  and  C_17
REMARK                            x       y       z     vdW  Elec       q    Type
REMARK                         _______ _______ _______ _____ _____    ______ ____
ROOT
ATOM      1  C   UNK     1       4.749   4.448  18.119  0.00  0.00    +0.000 A 
ATOM      2  C   UNK     1       6.151   4.251  18.139  0.00  0.00    +0.000 A 
ATOM      3  C   UNK     1       7.058   5.292  17.920  0.00  0.00    +0.000 A 
ATOM      4  C   UNK     1       6.570   6.554  17.663  0.00  0.00    +0.000 A 
ATOM      5 CL   UNK     1       7.665   7.841  17.356  0.00  0.00    +0.000 Cl
ATOM      6  C   UNK     1       5.197   6.778  17.647  0.00  0.00    +0.000 A 
ATOM      7  C   UNK     1       4.248   5.739  17.880  0.00  0.00    +0.000 A 
ENDROOT
BRANCH   1   8
ATOM      8  O   UNK     1       3.878   3.400  18.300  0.00  0.00    +0.000 OA
BRANCH   8   9
ATOM      9  C   UNK     1       3.536   3.107  19.657  0.00  0.00    +0.000 C 
BRANCH   9  11
ATOM     10  C   UNK     1       1.334   3.963  20.566  0.00  0.00    +0.000 C 
ATOM     11  C   UNK     1       2.049   2.810  19.869  0.00  0.00    +0.000 C 
ATOM     12  C   UNK     1       1.404   2.525  18.509  0.00  0.00    +0.000 C 
ENDBRANCH   9  11
ENDBRANCH   8   9
ENDBRANCH   1   8
BRANCH   7  13
ATOM     13  C   UNK     1       2.804   6.232  17.804  0.00  0.00    +0.000 C 
BRANCH  13  14
ATOM     14  C   UNK     1       2.234   7.363  18.613  0.00  0.00    +0.000 A 
ATOM     15  N   UNK     1       2.097   7.449  19.918  0.00  0.00    +0.000 NA
ATOM     16  C   UNK     1       1.459   8.648  20.266  0.00  0.00    +0.000 A 
ATOM     17  C   UNK     1       1.301   9.539  19.224  0.00  0.00    +0.000 A 
ATOM     18  S   UNK     1       1.866   8.839  17.770  0.00  0.00    +0.000 S 
BRANCH  16  19
ATOM     19  C   UNK     1       0.934   8.908  21.625  0.00  0.00    +0.000 C 
ATOM     20  O   UNK     1       1.697   9.305  22.571  0.00  0.00    +0.000 OA
ATOM     21  O   UNK     1      -0.327   8.891  21.852  0.00  0.00    +0.000 OA
ENDBRANCH  16  19
ENDBRANCH  13  14
ENDBRANCH   7  13
TORSDOF 6
ENDMDL
