MODEL 1
REMARK VINA RESULT:      -5.8      0.000      0.000
REMARK  Name = 
REMARK  9 active torsions:
REMARK  status: ('A' for Active; 'I' for Inactive)
REMARK    1  A    between atoms: C_2  and  C_3
REMARK    2  A    between atoms: C_3  and  C_4
REMARK    3  A    between atoms: C_4  and  O_5
REMARK    4  A    between atoms: C_4  and  C_6
REMARK    5  A    between atoms: C_6  and  S_7
REMARK    6  A    between atoms: C_9  and  O_10
REMARK    7  A    between atoms: C_11  and  O_12
REMARK    8  A    between atoms: C_13  and  C_14
REMARK    9  A    between atoms: C_14  and  O_15
REMARK                            x       y       z     vdW  Elec       q    Type
REMARK                         _______ _______ _______ _____ _____    ______ ____
ROOT
ATOM      1  S   UNL     1       4.234   4.297  19.058  0.00  0.00    +0.000 S 
ATOM      2  C   UNL     1       2.480   4.785  19.135  0.00  0.00    +0.000 C 
ATOM      3  C   UNL     1       2.026   4.234  20.473  0.00  0.00    +0.000 C 
ATOM      4  C   UNL     1       2.537   2.775  20.550  0.00  0.00    +0.000 C 
ATOM      5  C   UNL     1       3.777   2.605  19.625  0.00  0.00    +0.000 C 
ENDROOT
BRANCH   3   6
ATOM      6  O   UNL     1       0.611   4.311  20.618  0.00  0.00    +0.000 OA
ATOM      7  H   UNL     1       0.249   4.741  19.822  0.00  0.00    +0.000 HD
ENDBRANCH   3   6
BRANCH   4   8
ATOM      8  O   UNL     1       2.896   2.464  21.907  0.00  0.00    +0.000 OA
ATOM      9  H   UNL     1       3.037   3.310  22.368  0.00  0.00    +0.000 HD
ENDBRANCH   4   8
BRANCH   1  10
ATOM     10  C   UNL     1       4.337   4.134  17.237  0.00  0.00    +0.000 C 
BRANCH  10  11
ATOM     11  C   UNL     1       5.736   4.480  16.690  0.00  0.00    +0.000 C 
BRANCH  11  12
ATOM     12  O   UNL     1       6.744   4.084  17.635  0.00  0.00    +0.000 OA
ATOM     13  H   UNL     1       6.760   4.774  18.319  0.00  0.00    +0.000 HD
ENDBRANCH  11  12
BRANCH  11  14
ATOM     14  C   UNL     1       6.039   3.800  15.340  0.00  0.00    +0.000 C 
BRANCH  14  16
ATOM     15  O   UNL     1       7.638   5.426  14.998  0.00  0.00    +0.000 OA
ATOM     16  C   UNL     1       6.751   4.721  14.315  0.00  0.00    +0.000 C 
ENDBRANCH  14  16
ENDBRANCH  11  14
ENDBRANCH  10  11
ENDBRANCH   1  10
BRANCH   5  17
ATOM     17  C   UNL     1       3.511   1.559  18.539  0.00  0.00    +0.000 C 
BRANCH  17  18
ATOM     18  O   UNL     1       4.454   0.490  18.618  0.00  0.00    +0.000 OA
ATOM     19  H   UNL     1       4.112  -0.244  18.081  0.00  0.00    +0.000 HD
ENDBRANCH  17  18
ENDBRANCH   5  17
TORSDOF 9
ENDMDL
MODEL 2
REMARK VINA RESULT:      -5.6      1.900      6.053
REMARK  Name = 
REMARK  9 active torsions:
REMARK  status: ('A' for Active; 'I' for Inactive)
REMARK    1  A    between atoms: C_2  and  C_3
REMARK    2  A    between atoms: C_3  and  C_4
REMARK    3  A    between atoms: C_4  and  O_5
REMARK    4  A    between atoms: C_4  and  C_6
REMARK    5  A    between atoms: C_6  and  S_7
REMARK    6  A    between atoms: C_9  and  O_10
REMARK    7  A    between atoms: C_11  and  O_12
REMARK    8  A    between atoms: C_13  and  C_14
REMARK    9  A    between atoms: C_14  and  O_15
REMARK                            x       y       z     vdW  Elec       q    Type
REMARK                         _______ _______ _______ _____ _____    ______ ____
ROOT
ATOM      1  S   UNL     1       4.812   4.043  18.026  0.00  0.00    +0.000 S 
ATOM      2  C   UNL     1       4.397   5.456  16.954  0.00  0.00    +0.000 C 
ATOM      3  C   UNL     1       5.555   5.501  15.975  0.00  0.00    +0.000 C 
ATOM      4  C   UNL     1       6.851   5.383  16.813  0.00  0.00    +0.000 C 
ATOM      5  C   UNL     1       6.541   4.665  18.159  0.00  0.00    +0.000 C 
ENDROOT
BRANCH   3   6
ATOM      6  O   UNL     1       5.534   6.691  15.192  0.00  0.00    +0.000 OA
ATOM      7  H   UNL     1       4.829   7.268  15.539  0.00  0.00    +0.000 HD
ENDBRANCH   3   6
BRANCH   4   8
ATOM      8  O   UNL     1       7.833   4.634  16.077  0.00  0.00    +0.000 OA
ATOM      9  H   UNL     1       7.584   3.695  16.140  0.00  0.00    +0.000 HD
ENDBRANCH   4   8
BRANCH   1  10
ATOM     10  C   UNL     1       4.004   4.672  19.543  0.00  0.00    +0.000 C 
BRANCH  10  11
ATOM     11  C   UNL     1       2.502   4.330  19.600  0.00  0.00    +0.000 C 
BRANCH  11  12
ATOM     12  O   UNL     1       2.276   3.022  19.045  0.00  0.00    +0.000 OA
ATOM     13  H   UNL     1       2.256   3.138  18.079  0.00  0.00    +0.000 HD
ENDBRANCH  11  12
BRANCH  11  14
ATOM     14  C   UNL     1       1.933   4.356  21.031  0.00  0.00    +0.000 C 
BRANCH  14  16
ATOM     15  O   UNL     1       2.778   2.437  21.992  0.00  0.00    +0.000 OA
ATOM     16  C   UNL     1       1.620   2.953  21.613  0.00  0.00    +0.000 C 
ENDBRANCH  14  16
ENDBRANCH  11  14
ENDBRANCH  10  11
ENDBRANCH   1  10
BRANCH   5  17
ATOM     17  C   UNL     1       6.860   5.572  19.350  0.00  0.00    +0.000 C 
BRANCH  17  18
ATOM     18  O   UNL     1       8.219   5.415  19.762  0.00  0.00    +0.000 OA
ATOM     19  H   UNL     1       8.278   4.587  20.268  0.00  0.00    +0.000 HD
ENDBRANCH  17  18
ENDBRANCH   5  17
TORSDOF 9
ENDMDL
MODEL 3
REMARK VINA RESULT:      -5.6      1.950      3.033
REMARK  Name = 
REMARK  9 active torsions:
REMARK  status: ('A' for Active; 'I' for Inactive)
REMARK    1  A    between atoms: C_2  and  C_3
REMARK    2  A    between atoms: C_3  and  C_4
REMARK    3  A    between atoms: C_4  and  O_5
REMARK    4  A    between atoms: C_4  and  C_6
REMARK    5  A    between atoms: C_6  and  S_7
REMARK    6  A    between atoms: C_9  and  O_10
REMARK    7  A    between atoms: C_11  and  O_12
REMARK    8  A    between atoms: C_13  and  C_14
REMARK    9  A    between atoms: C_14  and  O_15
REMARK                            x       y       z     vdW  Elec       q    Type
REMARK                         _______ _______ _______ _____ _____    ______ ____
ROOT
ATOM      1  S   UNL     1       4.409   4.007  17.146  0.00  0.00    +0.000 S 
ATOM      2  C   UNL     1       3.878   2.594  18.164  0.00  0.00    +0.000 C 
ATOM      3  C   UNL     1       2.370   2.593  17.998  0.00  0.00    +0.000 C 
ATOM      4  C   UNL     1       1.900   4.054  18.206  0.00  0.00    +0.000 C 
ATOM      5  C   UNL     1       3.068   5.031  17.886  0.00  0.00    +0.000 C 
ENDROOT
BRANCH   3   6
ATOM      6  O   UNL     1       1.742   1.697  18.910  0.00  0.00    +0.000 OA
ATOM      7  H   UNL     1       1.864   2.048  19.811  0.00  0.00    +0.000 HD
ENDBRANCH   3   6
BRANCH   4   8
ATOM      8  O   UNL     1       0.786   4.327  17.340  0.00  0.00    +0.000 OA
ATOM      9  H   UNL     1       0.396   5.171  17.630  0.00  0.00    +0.000 HD
ENDBRANCH   4   8
BRANCH   1  10
ATOM     10  C   UNL     1       5.888   4.446  18.132  0.00  0.00    +0.000 C 
BRANCH  10  11
ATOM     11  C   UNL     1       6.990   5.109  17.284  0.00  0.00    +0.000 C 
BRANCH  11  12
ATOM     12  O   UNL     1       8.060   4.177  17.054  0.00  0.00    +0.000 OA
ATOM     13  H   UNL     1       8.473   4.440  16.214  0.00  0.00    +0.000 HD
ENDBRANCH  11  12
BRANCH  11  14
ATOM     14  C   UNL     1       6.480   5.612  15.920  0.00  0.00    +0.000 C 
BRANCH  14  16
ATOM     15  O   UNL     1       8.094   5.521  14.275  0.00  0.00    +0.000 OA
ATOM     16  C   UNL     1       7.050   4.832  14.706  0.00  0.00    +0.000 C 
ENDBRANCH  14  16
ENDBRANCH  11  14
ENDBRANCH  10  11
ENDBRANCH   1  10
BRANCH   5  17
ATOM     17  C   UNL     1       3.434   5.868  19.114  0.00  0.00    +0.000 C 
BRANCH  17  18
ATOM     18  O   UNL     1       2.782   5.373  20.283  0.00  0.00    +0.000 OA
ATOM     19  H   UNL     1       1.888   5.754  20.304  0.00  0.00    +0.000 HD
ENDBRANCH  17  18
ENDBRANCH   5  17
TORSDOF 9
ENDMDL
MODEL 4
REMARK VINA RESULT:      -5.5      1.127      1.127
REMARK  Name = 
REMARK  9 active torsions:
REMARK  status: ('A' for Active; 'I' for Inactive)
REMARK    1  A    between atoms: C_2  and  C_3
REMARK    2  A    between atoms: C_3  and  C_4
REMARK    3  A    between atoms: C_4  and  O_5
REMARK    4  A    between atoms: C_4  and  C_6
REMARK    5  A    between atoms: C_6  and  S_7
REMARK    6  A    between atoms: C_9  and  O_10
REMARK    7  A    between atoms: C_11  and  O_12
REMARK    8  A    between atoms: C_13  and  C_14
REMARK    9  A    between atoms: C_14  and  O_15
REMARK                            x       y       z     vdW  Elec       q    Type
REMARK                         _______ _______ _______ _____ _____    ______ ____
ROOT
ATOM      1  S   UNL     1       3.226   4.545  18.639  0.00  0.00    +0.000 S 
ATOM      2  C   UNL     1       1.575   3.813  18.403  0.00  0.00    +0.000 C 
ATOM      3  C   UNL     1       1.079   3.609  19.823  0.00  0.00    +0.000 C 
ATOM      4  C   UNL     1       2.235   2.940  20.605  0.00  0.00    +0.000 C 
ATOM      5  C   UNL     1       3.593   3.277  19.924  0.00  0.00    +0.000 C 
ENDROOT
BRANCH   3   6
ATOM      6  O   UNL     1      -0.110   2.826  19.855  0.00  0.00    +0.000 OA
ATOM      7  H   UNL     1       0.119   1.918  19.585  0.00  0.00    +0.000 HD
ENDBRANCH   3   6
BRANCH   4   8
ATOM      8  O   UNL     1       2.238   3.420  21.960  0.00  0.00    +0.000 OA
ATOM      9  H   UNL     1       1.417   3.104  22.378  0.00  0.00    +0.000 HD
ENDBRANCH   4   8
BRANCH   1  10
ATOM     10  C   UNL     1       3.989   3.863  17.122  0.00  0.00    +0.000 C 
BRANCH  10  11
ATOM     11  C   UNL     1       5.314   4.561  16.759  0.00  0.00    +0.000 C 
BRANCH  11  12
ATOM     12  O   UNL     1       6.183   4.589  17.905  0.00  0.00    +0.000 OA
ATOM     13  H   UNL     1       6.668   5.430  17.856  0.00  0.00    +0.000 HD
ENDBRANCH  11  12
BRANCH  11  14
ATOM     14  C   UNL     1       6.060   3.872  15.600  0.00  0.00    +0.000 C 
BRANCH  14  16
ATOM     15  O   UNL     1       7.521   5.655  15.540  0.00  0.00    +0.000 OA
ATOM     16  C   UNL     1       6.883   4.842  14.714  0.00  0.00    +0.000 C 
ENDBRANCH  14  16
ENDBRANCH  11  14
ENDBRANCH  10  11
ENDBRANCH   1  10
BRANCH   5  17
ATOM     17  C   UNL     1       4.303   2.004  19.456  0.00  0.00    +0.000 C 
BRANCH  17  18
ATOM     18  O   UNL     1       5.310   1.609  20.388  0.00  0.00    +0.000 OA
ATOM     19  H   UNL     1       6.129   1.454  19.887  0.00  0.00    +0.000 HD
ENDBRANCH  17  18
ENDBRANCH   5  17
TORSDOF 9
ENDMDL
MODEL 5
REMARK VINA RESULT:      -5.5      1.439      2.835
REMARK  Name = 
REMARK  9 active torsions:
REMARK  status: ('A' for Active; 'I' for Inactive)
REMARK    1  A    between atoms: C_2  and  C_3
REMARK    2  A    between atoms: C_3  and  C_4
REMARK    3  A    between atoms: C_4  and  O_5
REMARK    4  A    between atoms: C_4  and  C_6
REMARK    5  A    between atoms: C_6  and  S_7
REMARK    6  A    between atoms: C_9  and  O_10
REMARK    7  A    between atoms: C_11  and  O_12
REMARK    8  A    between atoms: C_13  and  C_14
REMARK    9  A    between atoms: C_14  and  O_15
REMARK                            x       y       z     vdW  Elec       q    Type
REMARK                         _______ _______ _______ _____ _____    ______ ____
ROOT
ATOM      1  S   UNL     1       3.572   4.101  18.376  0.00  0.00    +0.000 S 
ATOM      2  C   UNL     1       4.055   3.376  19.975  0.00  0.00    +0.000 C 
ATOM      3  C   UNL     1       2.738   2.886  20.546  0.00  0.00    +0.000 C 
ATOM      4  C   UNL     1       1.722   4.042  20.375  0.00  0.00    +0.000 C 
ATOM      5  C   UNL     1       2.168   4.962  19.202  0.00  0.00    +0.000 C 
ENDROOT
BRANCH   3   6
ATOM      6  O   UNL     1       2.871   2.491  21.908  0.00  0.00    +0.000 OA
ATOM      7  H   UNL     1       3.762   2.747  22.210  0.00  0.00    +0.000 HD
ENDBRANCH   3   6
BRANCH   4   8
ATOM      8  O   UNL     1       0.420   3.499  20.100  0.00  0.00    +0.000 OA
ATOM      9  H   UNL     1       0.554   2.643  19.655  0.00  0.00    +0.000 HD
ENDBRANCH   4   8
BRANCH   1  10
ATOM     10  C   UNL     1       4.885   5.375  18.306  0.00  0.00    +0.000 C 
BRANCH  10  11
ATOM     11  C   UNL     1       6.052   4.973  17.383  0.00  0.00    +0.000 C 
BRANCH  11  12
ATOM     12  O   UNL     1       6.967   4.121  18.093  0.00  0.00    +0.000 OA
ATOM     13  H   UNL     1       7.354   4.667  18.799  0.00  0.00    +0.000 HD
ENDBRANCH  11  12
BRANCH  11  14
ATOM     14  C   UNL     1       5.588   4.237  16.111  0.00  0.00    +0.000 C 
BRANCH  14  16
ATOM     15  O   UNL     1       7.454   5.251  15.212  0.00  0.00    +0.000 OA
ATOM     16  C   UNL     1       6.327   4.678  14.821  0.00  0.00    +0.000 C 
ENDBRANCH  14  16
ENDBRANCH  11  14
ENDBRANCH  10  11
ENDBRANCH   1  10
BRANCH   5  17
ATOM     17  C   UNL     1       2.424   6.389  19.692  0.00  0.00    +0.000 C 
BRANCH  17  18
ATOM     18  O   UNL     1       1.878   6.587  20.997  0.00  0.00    +0.000 OA
ATOM     19  H   UNL     1       0.984   6.206  21.002  0.00  0.00    +0.000 HD
ENDBRANCH  17  18
ENDBRANCH   5  17
TORSDOF 9
ENDMDL
MODEL 6
REMARK VINA RESULT:      -5.5      2.003      5.852
REMARK  Name = 
REMARK  9 active torsions:
REMARK  status: ('A' for Active; 'I' for Inactive)
REMARK    1  A    between atoms: C_2  and  C_3
REMARK    2  A    between atoms: C_3  and  C_4
REMARK    3  A    between atoms: C_4  and  O_5
REMARK    4  A    between atoms: C_4  and  C_6
REMARK    5  A    between atoms: C_6  and  S_7
REMARK    6  A    between atoms: C_9  and  O_10
REMARK    7  A    between atoms: C_11  and  O_12
REMARK    8  A    between atoms: C_13  and  C_14
REMARK    9  A    between atoms: C_14  and  O_15
REMARK                            x       y       z     vdW  Elec       q    Type
REMARK                         _______ _______ _______ _____ _____    ______ ____
ROOT
ATOM      1  S   UNL     1       4.408   5.901  18.141  0.00  0.00    +0.000 S 
ATOM      2  C   UNL     1       5.668   5.160  19.229  0.00  0.00    +0.000 C 
ATOM      3  C   UNL     1       6.974   5.638  18.622  0.00  0.00    +0.000 C 
ATOM      4  C   UNL     1       6.872   5.390  17.098  0.00  0.00    +0.000 C 
ATOM      5  C   UNL     1       5.376   5.361  16.670  0.00  0.00    +0.000 C 
ENDROOT
BRANCH   3   6
ATOM      6  O   UNL     1       8.093   4.970  19.197  0.00  0.00    +0.000 OA
ATOM      7  H   UNL     1       8.678   5.644  19.590  0.00  0.00    +0.000 HD
ENDBRANCH   3   6
BRANCH   4   8
ATOM      8  O   UNL     1       7.559   6.440  16.395  0.00  0.00    +0.000 OA
ATOM      9  H   UNL     1       7.236   7.285  16.754  0.00  0.00    +0.000 HD
ENDBRANCH   4   8
BRANCH   1  10
ATOM     10  C   UNL     1       3.147   4.589  18.340  0.00  0.00    +0.000 C 
BRANCH  10  11
ATOM     11  C   UNL     1       2.980   4.145  19.806  0.00  0.00    +0.000 C 
BRANCH  11  12
ATOM     12  O   UNL     1       2.620   5.272  20.622  0.00  0.00    +0.000 OA
ATOM     13  H   UNL     1       3.155   5.203  21.431  0.00  0.00    +0.000 HD
ENDBRANCH  11  12
BRANCH  11  14
ATOM     14  C   UNL     1       1.908   3.052  19.985  0.00  0.00    +0.000 C 
BRANCH  14  16
ATOM     15  O   UNL     1       2.583   2.789  22.175  0.00  0.00    +0.000 OA
ATOM     16  C   UNL     1       1.472   2.830  21.457  0.00  0.00    +0.000 C 
ENDBRANCH  14  16
ENDBRANCH  11  14
ENDBRANCH  10  11
ENDBRANCH   1  10
BRANCH   5  17
ATOM     17  C   UNL     1       5.007   4.008  16.058  0.00  0.00    +0.000 C 
BRANCH  17  18
ATOM     18  O   UNL     1       6.177   3.289  15.665  0.00  0.00    +0.000 OA
ATOM     19  H   UNL     1       6.124   2.403  16.062  0.00  0.00    +0.000 HD
ENDBRANCH  17  18
ENDBRANCH   5  17
TORSDOF 9
ENDMDL
MODEL 7
REMARK VINA RESULT:      -5.5      1.547      2.701
REMARK  Name = 
REMARK  9 active torsions:
REMARK  status: ('A' for Active; 'I' for Inactive)
REMARK    1  A    between atoms: C_2  and  C_3
REMARK    2  A    between atoms: C_3  and  C_4
REMARK    3  A    between atoms: C_4  and  O_5
REMARK    4  A    between atoms: C_4  and  C_6
REMARK    5  A    between atoms: C_6  and  S_7
REMARK    6  A    between atoms: C_9  and  O_10
REMARK    7  A    between atoms: C_11  and  O_12
REMARK    8  A    between atoms: C_13  and  C_14
REMARK    9  A    between atoms: C_14  and  O_15
REMARK                            x       y       z     vdW  Elec       q    Type
REMARK                         _______ _______ _______ _____ _____    ______ ____
ROOT
ATOM      1  S   UNL     1       3.347   3.080  18.240  0.00  0.00    +0.000 S 
ATOM      2  C   UNL     1       3.839   2.718  19.957  0.00  0.00    +0.000 C 
ATOM      3  C   UNL     1       2.511   2.605  20.682  0.00  0.00    +0.000 C 
ATOM      4  C   UNL     1       1.663   3.825  20.249  0.00  0.00    +0.000 C 
ATOM      5  C   UNL     1       2.148   4.335  18.861  0.00  0.00    +0.000 C 
ENDROOT
BRANCH   3   6
ATOM      6  O   UNL     1       2.689   2.554  22.095  0.00  0.00    +0.000 OA
ATOM      7  H   UNL     1       2.340   3.381  22.473  0.00  0.00    +0.000 HD
ENDBRANCH   3   6
BRANCH   4   8
ATOM      8  O   UNL     1       0.279   3.445  20.172  0.00  0.00    +0.000 OA
ATOM      9  H   UNL     1       0.018   3.498  19.235  0.00  0.00    +0.000 HD
ENDBRANCH   4   8
BRANCH   1  10
ATOM     10  C   UNL     1       4.820   4.069  17.793  0.00  0.00    +0.000 C 
BRANCH  10  11
ATOM     11  C   UNL     1       4.790   4.548  16.328  0.00  0.00    +0.000 C 
BRANCH  11  12
ATOM     12  O   UNL     1       5.056   5.960  16.268  0.00  0.00    +0.000 OA
ATOM     13  H   UNL     1       5.563   6.174  17.069  0.00  0.00    +0.000 HD
ENDBRANCH  11  12
BRANCH  11  14
ATOM     14  C   UNL     1       5.815   3.821  15.436  0.00  0.00    +0.000 C 
BRANCH  14  16
ATOM     15  O   UNL     1       7.836   4.660  16.166  0.00  0.00    +0.000 OA
ATOM     16  C   UNL     1       7.066   4.670  15.090  0.00  0.00    +0.000 C 
ENDBRANCH  14  16
ENDBRANCH  11  14
ENDBRANCH  10  11
ENDBRANCH   1  10
BRANCH   5  17
ATOM     17  C   UNL     1       2.643   5.780  18.949  0.00  0.00    +0.000 C 
BRANCH  17  18
ATOM     18  O   UNL     1       2.962   6.129  20.297  0.00  0.00    +0.000 OA
ATOM     19  H   UNL     1       3.927   6.226  20.355  0.00  0.00    +0.000 HD
ENDBRANCH  17  18
ENDBRANCH   5  17
TORSDOF 9
ENDMDL
MODEL 8
REMARK VINA RESULT:      -5.5      1.690      1.821
REMARK  Name = 
REMARK  9 active torsions:
REMARK  status: ('A' for Active; 'I' for Inactive)
REMARK    1  A    between atoms: C_2  and  C_3
REMARK    2  A    between atoms: C_3  and  C_4
REMARK    3  A    between atoms: C_4  and  O_5
REMARK    4  A    between atoms: C_4  and  C_6
REMARK    5  A    between atoms: C_6  and  S_7
REMARK    6  A    between atoms: C_9  and  O_10
REMARK    7  A    between atoms: C_11  and  O_12
REMARK    8  A    between atoms: C_13  and  C_14
REMARK    9  A    between atoms: C_14  and  O_15
REMARK                            x       y       z     vdW  Elec       q    Type
REMARK                         _______ _______ _______ _____ _____    ______ ____
ROOT
ATOM      1  S   UNL     1       4.022   3.034  19.603  0.00  0.00    +0.000 S 
ATOM      2  C   UNL     1       3.522   4.775  19.797  0.00  0.00    +0.000 C 
ATOM      3  C   UNL     1       2.415   4.705  20.832  0.00  0.00    +0.000 C 
ATOM      4  C   UNL     1       1.469   3.561  20.394  0.00  0.00    +0.000 C 
ATOM      5  C   UNL     1       2.248   2.546  19.508  0.00  0.00    +0.000 C 
ENDROOT
BRANCH   3   6
ATOM      6  O   UNL     1       1.729   5.948  20.950  0.00  0.00    +0.000 OA
ATOM      7  H   UNL     1       1.341   6.163  20.082  0.00  0.00    +0.000 HD
ENDBRANCH   3   6
BRANCH   4   8
ATOM      8  O   UNL     1       0.951   2.895  21.558  0.00  0.00    +0.000 OA
ATOM      9  H   UNL     1       1.659   2.319  21.897  0.00  0.00    +0.000 HD
ENDBRANCH   4   8
BRANCH   1  10
ATOM     10  C   UNL     1       4.538   3.146  17.851  0.00  0.00    +0.000 C 
BRANCH  10  11
ATOM     11  C   UNL     1       5.426   4.375  17.572  0.00  0.00    +0.000 C 
BRANCH  11  12
ATOM     12  O   UNL     1       6.761   4.133  18.049  0.00  0.00    +0.000 OA
ATOM     13  H   UNL     1       7.261   4.950  17.880  0.00  0.00    +0.000 HD
ENDBRANCH  11  12
BRANCH  11  14
ATOM     14  C   UNL     1       5.501   4.737  16.077  0.00  0.00    +0.000 C 
BRANCH  14  16
ATOM     15  O   UNL     1       7.504   5.838  15.767  0.00  0.00    +0.000 OA
ATOM     16  C   UNL     1       6.933   4.679  15.483  0.00  0.00    +0.000 C 
ENDBRANCH  14  16
ENDBRANCH  11  14
ENDBRANCH  10  11
ENDBRANCH   1  10
BRANCH   5  17
ATOM     17  C   UNL     1       1.631   2.450  18.111  0.00  0.00    +0.000 C 
BRANCH  17  18
ATOM     18  O   UNL     1       1.060   3.699  17.718  0.00  0.00    +0.000 OA
ATOM     19  H   UNL     1       0.093   3.596  17.731  0.00  0.00    +0.000 HD
ENDBRANCH  17  18
ENDBRANCH   5  17
TORSDOF 9
ENDMDL
MODEL 9
REMARK VINA RESULT:      -5.5      1.117      1.139
REMARK  Name = 
REMARK  9 active torsions:
REMARK  status: ('A' for Active; 'I' for Inactive)
REMARK    1  A    between atoms: C_2  and  C_3
REMARK    2  A    between atoms: C_3  and  C_4
REMARK    3  A    between atoms: C_4  and  O_5
REMARK    4  A    between atoms: C_4  and  C_6
REMARK    5  A    between atoms: C_6  and  S_7
REMARK    6  A    between atoms: C_9  and  O_10
REMARK    7  A    between atoms: C_11  and  O_12
REMARK    8  A    between atoms: C_13  and  C_14
REMARK    9  A    between atoms: C_14  and  O_15
REMARK                            x       y       z     vdW  Elec       q    Type
REMARK                         _______ _______ _______ _____ _____    ______ ____
ROOT
ATOM      1  S   UNL     1       4.270   4.345  19.191  0.00  0.00    +0.000 S 
ATOM      2  C   UNL     1       2.501   4.780  19.153  0.00  0.00    +0.000 C 
ATOM      3  C   UNL     1       1.976   4.211  20.458  0.00  0.00    +0.000 C 
ATOM      4  C   UNL     1       2.525   2.767  20.566  0.00  0.00    +0.000 C 
ATOM      5  C   UNL     1       3.828   2.638  19.724  0.00  0.00    +0.000 C 
ENDROOT
BRANCH   3   6
ATOM      6  O   UNL     1       0.553   4.244  20.509  0.00  0.00    +0.000 OA
ATOM      7  H   UNL     1       0.281   4.111  21.436  0.00  0.00    +0.000 HD
ENDBRANCH   3   6
BRANCH   4   8
ATOM      8  O   UNL     1       2.803   2.462  21.943  0.00  0.00    +0.000 OA
ATOM      9  H   UNL     1       1.952   2.467  22.416  0.00  0.00    +0.000 HD
ENDBRANCH   4   8
BRANCH   1  10
ATOM     10  C   UNL     1       4.497   4.191  17.381  0.00  0.00    +0.000 C 
BRANCH  10  11
ATOM     11  C   UNL     1       4.798   5.543  16.705  0.00  0.00    +0.000 C 
BRANCH  11  12
ATOM     12  O   UNL     1       5.623   6.349  17.565  0.00  0.00    +0.000 OA
ATOM     13  H   UNL     1       5.427   6.063  18.473  0.00  0.00    +0.000 HD
ENDBRANCH  11  12
BRANCH  11  14
ATOM     14  C   UNL     1       5.512   5.392  15.348  0.00  0.00    +0.000 C 
BRANCH  14  16
ATOM     15  O   UNL     1       7.658   4.829  15.976  0.00  0.00    +0.000 OA
ATOM     16  C   UNL     1       6.623   4.310  15.335  0.00  0.00    +0.000 C 
ENDBRANCH  14  16
ENDBRANCH  11  14
ENDBRANCH  10  11
ENDBRANCH   1  10
BRANCH   5  17
ATOM     17  C   UNL     1       3.666   1.589  18.622  0.00  0.00    +0.000 C 
BRANCH  17  18
ATOM     18  O   UNL     1       2.287   1.370  18.324  0.00  0.00    +0.000 OA
ATOM     19  H   UNL     1       2.239   0.948  17.449  0.00  0.00    +0.000 HD
ENDBRANCH  17  18
ENDBRANCH   5  17
TORSDOF 9
ENDMDL
