MODEL 1
REMARK VINA RESULT:      -6.5      0.000      0.000
REMARK  Name = 
REMARK  11 active torsions:
REMARK  status: ('A' for Active; 'I' for Inactive)
REMARK    1  A    between atoms: C_1  and  C_2
REMARK    2  A    between atoms: C_2  and  O_4
REMARK    3  A    between atoms: O_4  and  C_5
REMARK    4  A    between atoms: C_6  and  O_7
REMARK    5  A    between atoms: O_7  and  C_8
REMARK    6  A    between atoms: C_8  and  C_10
REMARK    7  A    between atoms: C_10  and  C_11
REMARK    8  A    between atoms: C_11  and  C_12
REMARK    9  A    between atoms: C_11  and  C_13
REMARK   10  A    between atoms: C_26  and  C_27
REMARK   11  A    between atoms: C_26  and  C_28
REMARK                            x       y       z     vdW  Elec       q    Type
REMARK                         _______ _______ _______ _____ _____    ______ ____
ROOT
ATOM      1  C   UNL     1      -0.149  10.132  20.080  0.00  0.00    +0.000 C 
ATOM      2  C   UNL     1      -1.314  11.144  19.991  0.00  0.00    +0.000 C 
ATOM      3  C   UNL     1      -2.068  10.962  18.691  0.00  0.00    +0.000 A 
ATOM      4  C   UNL     1      -1.523  10.209  17.646  0.00  0.00    +0.000 A 
ATOM      5  C   UNL     1      -2.229  10.006  16.456  0.00  0.00    +0.000 A 
ATOM      6  C   UNL     1      -3.487  10.575  16.270  0.00  0.00    +0.000 A 
ATOM      7  C   UNL     1      -4.046  11.348  17.286  0.00  0.00    +0.000 A 
ATOM      8  C   UNL     1      -5.355  11.960  17.124  0.00  0.00    +0.000 A 
ATOM      9  C   UNL     1      -5.867  12.691  18.114  0.00  0.00    +0.000 A 
ATOM     10  C   UNL     1      -5.151  12.909  19.381  0.00  0.00    +0.000 A 
ATOM     11  O   UNL     1      -5.646  13.596  20.267  0.00  0.00    +0.000 OA
ATOM     12  O   UNL     1      -3.907  12.309  19.513  0.00  0.00    +0.000 OA
ATOM     13  C   UNL     1      -3.336  11.531  18.478  0.00  0.00    +0.000 A 
ATOM     14  O   UNL     1      -0.301   9.600  17.685  0.00  0.00    +0.000 OA
ATOM     15  C   UNL     1       0.592  10.011  18.731  0.00  0.00    +0.000 C 
ATOM     16  C   UNL     1       1.641   8.888  18.828  0.00  0.00    +0.000 C 
ATOM     17  C   UNL     1       1.322  11.291  18.288  0.00  0.00    +0.000 C 
ENDROOT
BRANCH   1  18
ATOM     18  O   UNL     1       0.795  10.507  21.106  0.00  0.00    +0.000 OA
BRANCH  18  20
ATOM     19  C   UNL     1      -0.438   9.074  22.489  0.00  0.00    +0.000 C 
ATOM     20  C   UNL     1       0.894   9.694  22.190  0.00  0.00    +0.000 C 
ATOM     21  O   UNL     1       1.909   9.497  22.841  0.00  0.00    +0.000 OA
ENDBRANCH  18  20
ENDBRANCH   1  18
BRANCH   2  22
ATOM     22  O   UNL     1      -0.835  12.506  20.032  0.00  0.00    +0.000 OA
BRANCH  22  23
ATOM     23  C   UNL     1      -1.459  13.329  20.918  0.00  0.00    +0.000 C 
ATOM     24  O   UNL     1      -1.822  14.476  20.693  0.00  0.00    +0.000 OA
BRANCH  23  25
ATOM     25  C   UNL     1      -1.689  12.625  22.232  0.00  0.00    +0.000 C 
BRANCH  25  26
ATOM     26  C   UNL     1      -2.678  13.371  23.133  0.00  0.00    +0.000 C 
ATOM     27  C   UNL     1      -3.593  12.403  23.885  0.00  0.00    +0.000 C 
ATOM     28  C   UNL     1      -1.922  14.252  24.129  0.00  0.00    +0.000 C 
ENDBRANCH  25  26
ENDBRANCH  23  25
ENDBRANCH  22  23
ENDBRANCH   2  22
TORSDOF 6
ENDMDL
MODEL 2
REMARK VINA RESULT:      -6.5      5.654      9.016
REMARK  Name = 
REMARK  11 active torsions:
REMARK  status: ('A' for Active; 'I' for Inactive)
REMARK    1  A    between atoms: C_1  and  C_2
REMARK    2  A    between atoms: C_2  and  O_4
REMARK    3  A    between atoms: O_4  and  C_5
REMARK    4  A    between atoms: C_6  and  O_7
REMARK    5  A    between atoms: O_7  and  C_8
REMARK    6  A    between atoms: C_8  and  C_10
REMARK    7  A    between atoms: C_10  and  C_11
REMARK    8  A    between atoms: C_11  and  C_12
REMARK    9  A    between atoms: C_11  and  C_13
REMARK   10  A    between atoms: C_26  and  C_27
REMARK   11  A    between atoms: C_26  and  C_28
REMARK                            x       y       z     vdW  Elec       q    Type
REMARK                         _______ _______ _______ _____ _____    ______ ____
ROOT
ATOM      1  C   UNL     1       6.028   5.727  17.119  0.00  0.00    +0.000 C 
ATOM      2  C   UNL     1       4.664   5.820  17.842  0.00  0.00    +0.000 C 
ATOM      3  C   UNL     1       4.049   4.444  17.978  0.00  0.00    +0.000 A 
ATOM      4  C   UNL     1       4.538   3.364  17.236  0.00  0.00    +0.000 A 
ATOM      5  C   UNL     1       3.999   2.082  17.381  0.00  0.00    +0.000 A 
ATOM      6  C   UNL     1       2.935   1.855  18.252  0.00  0.00    +0.000 A 
ATOM      7  C   UNL     1       2.412   2.916  18.988  0.00  0.00    +0.000 A 
ATOM      8  C   UNL     1       1.301   2.714  19.903  0.00  0.00    +0.000 A 
ATOM      9  C   UNL     1       0.823   3.747  20.597  0.00  0.00    +0.000 A 
ATOM     10  C   UNL     1       1.382   5.103  20.472  0.00  0.00    +0.000 A 
ATOM     11  O   UNL     1       0.912   6.033  21.118  0.00  0.00    +0.000 OA
ATOM     12  O   UNL     1       2.447   5.267  19.598  0.00  0.00    +0.000 OA
ATOM     13  C   UNL     1       2.971   4.191  18.845  0.00  0.00    +0.000 A 
ATOM     14  O   UNL     1       5.569   3.441  16.343  0.00  0.00    +0.000 OA
ATOM     15  C   UNL     1       5.961   4.756  15.921  0.00  0.00    +0.000 C 
ATOM     16  C   UNL     1       7.372   4.584  15.328  0.00  0.00    +0.000 C 
ATOM     17  C   UNL     1       5.032   5.212  14.782  0.00  0.00    +0.000 C 
ENDROOT
BRANCH   1  18
ATOM     18  O   UNL     1       6.464   7.023  16.654  0.00  0.00    +0.000 OA
BRANCH  18  20
ATOM     19  C   UNL     1       7.954   6.756  18.441  0.00  0.00    +0.000 C 
ATOM     20  C   UNL     1       7.380   7.682  17.410  0.00  0.00    +0.000 C 
ATOM     21  O   UNL     1       7.693   8.857  17.287  0.00  0.00    +0.000 OA
ENDBRANCH  18  20
ENDBRANCH   1  18
BRANCH   2  22
ATOM     22  O   UNL     1       3.734   6.647  17.111  0.00  0.00    +0.000 OA
BRANCH  22  23
ATOM     23  C   UNL     1       3.387   7.821  17.706  0.00  0.00    +0.000 C 
ATOM     24  O   UNL     1       4.161   8.711  18.032  0.00  0.00    +0.000 OA
BRANCH  23  25
ATOM     25  C   UNL     1       1.891   7.910  17.882  0.00  0.00    +0.000 C 
BRANCH  25  26
ATOM     26  C   UNL     1       1.451   9.244  18.495  0.00  0.00    +0.000 C 
ATOM     27  C   UNL     1       0.161   9.759  17.853  0.00  0.00    +0.000 C 
ATOM     28  C   UNL     1       1.256   9.092  20.004  0.00  0.00    +0.000 C 
ENDBRANCH  25  26
ENDBRANCH  23  25
ENDBRANCH  22  23
ENDBRANCH   2  22
TORSDOF 6
ENDMDL
MODEL 3
REMARK VINA RESULT:      -6.4      1.945      5.099
REMARK  Name = 
REMARK  11 active torsions:
REMARK  status: ('A' for Active; 'I' for Inactive)
REMARK    1  A    between atoms: C_1  and  C_2
REMARK    2  A    between atoms: C_2  and  O_4
REMARK    3  A    between atoms: O_4  and  C_5
REMARK    4  A    between atoms: C_6  and  O_7
REMARK    5  A    between atoms: O_7  and  C_8
REMARK    6  A    between atoms: C_8  and  C_10
REMARK    7  A    between atoms: C_10  and  C_11
REMARK    8  A    between atoms: C_11  and  C_12
REMARK    9  A    between atoms: C_11  and  C_13
REMARK   10  A    between atoms: C_26  and  C_27
REMARK   11  A    between atoms: C_26  and  C_28
REMARK                            x       y       z     vdW  Elec       q    Type
REMARK                         _______ _______ _______ _____ _____    ______ ____
ROOT
ATOM      1  C   UNL     1      -1.596  13.919  21.311  0.00  0.00    +0.000 C 
ATOM      2  C   UNL     1      -2.386  13.095  20.269  0.00  0.00    +0.000 C 
ATOM      3  C   UNL     1      -3.800  12.855  20.754  0.00  0.00    +0.000 A 
ATOM      4  C   UNL     1      -4.147  13.082  22.090  0.00  0.00    +0.000 A 
ATOM      5  C   UNL     1      -5.459  12.898  22.538  0.00  0.00    +0.000 A 
ATOM      6  C   UNL     1      -6.451  12.453  21.666  0.00  0.00    +0.000 A 
ATOM      7  C   UNL     1      -6.129  12.198  20.335  0.00  0.00    +0.000 A 
ATOM      8  C   UNL     1      -7.139  11.731  19.399  0.00  0.00    +0.000 A 
ATOM      9  C   UNL     1      -6.804  11.498  18.130  0.00  0.00    +0.000 A 
ATOM     10  C   UNL     1      -5.434  11.697  17.630  0.00  0.00    +0.000 A 
ATOM     11  O   UNL     1      -5.157  11.464  16.460  0.00  0.00    +0.000 OA
ATOM     12  O   UNL     1      -4.491  12.151  18.542  0.00  0.00    +0.000 OA
ATOM     13  C   UNL     1      -4.816  12.402  19.895  0.00  0.00    +0.000 A 
ATOM     14  O   UNL     1      -3.280  13.511  23.054  0.00  0.00    +0.000 OA
ATOM     15  C   UNL     1      -1.880  13.428  22.747  0.00  0.00    +0.000 C 
ATOM     16  C   UNL     1      -1.192  14.370  23.751  0.00  0.00    +0.000 C 
ATOM     17  C   UNL     1      -1.389  11.999  23.040  0.00  0.00    +0.000 C 
ENDROOT
BRANCH   1  18
ATOM     18  O   UNL     1      -0.175  13.855  21.062  0.00  0.00    +0.000 OA
BRANCH  18  20
ATOM     19  C   UNL     1       1.483  14.046  19.418  0.00  0.00    +0.000 C 
ATOM     20  C   UNL     1       0.334  14.699  20.126  0.00  0.00    +0.000 C 
ATOM     21  O   UNL     1      -0.070  15.829  19.892  0.00  0.00    +0.000 OA
ENDBRANCH  18  20
ENDBRANCH   1  18
BRANCH   2  22
ATOM     22  O   UNL     1      -1.776  11.806  20.043  0.00  0.00    +0.000 OA
BRANCH  22  23
ATOM     23  C   UNL     1      -1.300  11.585  18.787  0.00  0.00    +0.000 C 
ATOM     24  O   UNL     1      -1.271  12.406  17.881  0.00  0.00    +0.000 OA
BRANCH  23  25
ATOM     25  C   UNL     1      -0.765  10.180  18.657  0.00  0.00    +0.000 C 
BRANCH  25  26
ATOM     26  C   UNL     1       0.703  10.070  19.081  0.00  0.00    +0.000 C 
ATOM     27  C   UNL     1       0.854   9.284  20.385  0.00  0.00    +0.000 C 
ATOM     28  C   UNL     1       1.522   9.405  17.975  0.00  0.00    +0.000 C 
ENDBRANCH  25  26
ENDBRANCH  23  25
ENDBRANCH  22  23
ENDBRANCH   2  22
TORSDOF 6
ENDMDL
MODEL 4
REMARK VINA RESULT:      -6.4      1.041      1.190
REMARK  Name = 
REMARK  11 active torsions:
REMARK  status: ('A' for Active; 'I' for Inactive)
REMARK    1  A    between atoms: C_1  and  C_2
REMARK    2  A    between atoms: C_2  and  O_4
REMARK    3  A    between atoms: O_4  and  C_5
REMARK    4  A    between atoms: C_6  and  O_7
REMARK    5  A    between atoms: O_7  and  C_8
REMARK    6  A    between atoms: C_8  and  C_10
REMARK    7  A    between atoms: C_10  and  C_11
REMARK    8  A    between atoms: C_11  and  C_12
REMARK    9  A    between atoms: C_11  and  C_13
REMARK   10  A    between atoms: C_26  and  C_27
REMARK   11  A    between atoms: C_26  and  C_28
REMARK                            x       y       z     vdW  Elec       q    Type
REMARK                         _______ _______ _______ _____ _____    ______ ____
ROOT
ATOM      1  C   UNL     1      -0.778  10.564  20.064  0.00  0.00    +0.000 C 
ATOM      2  C   UNL     1      -2.005  11.504  20.003  0.00  0.00    +0.000 C 
ATOM      3  C   UNL     1      -2.675  11.403  18.649  0.00  0.00    +0.000 A 
ATOM      4  C   UNL     1      -2.024  10.793  17.571  0.00  0.00    +0.000 A 
ATOM      5  C   UNL     1      -2.650  10.664  16.328  0.00  0.00    +0.000 A 
ATOM      6  C   UNL     1      -3.932  11.168  16.123  0.00  0.00    +0.000 A 
ATOM      7  C   UNL     1      -4.597  11.799  17.172  0.00  0.00    +0.000 A 
ATOM      8  C   UNL     1      -5.935  12.338  16.992  0.00  0.00    +0.000 A 
ATOM      9  C   UNL     1      -6.548  12.934  18.015  0.00  0.00    +0.000 A 
ATOM     10  C   UNL     1      -5.917  13.071  19.337  0.00  0.00    +0.000 A 
ATOM     11  O   UNL     1      -6.505  13.634  20.254  0.00  0.00    +0.000 OA
ATOM     12  O   UNL     1      -4.643  12.541  19.485  0.00  0.00    +0.000 OA
ATOM     13  C   UNL     1      -3.966  11.908  18.417  0.00  0.00    +0.000 A 
ATOM     14  O   UNL     1      -0.766  10.262  17.625  0.00  0.00    +0.000 OA
ATOM     15  C   UNL     1       0.039  10.625  18.756  0.00  0.00    +0.000 C 
ATOM     16  C   UNL     1       1.158   9.567  18.808  0.00  0.00    +0.000 C 
ATOM     17  C   UNL     1       0.702  11.986  18.482  0.00  0.00    +0.000 C 
ENDROOT
BRANCH   1  18
ATOM     18  O   UNL     1       0.081  10.895  21.176  0.00  0.00    +0.000 OA
BRANCH  18  20
ATOM     19  C   UNL     1      -0.236   8.788  22.148  0.00  0.00    +0.000 C 
ATOM     20  C   UNL     1      -0.159  10.271  22.359  0.00  0.00    +0.000 C 
ATOM     21  O   UNL     1      -0.303  10.824  23.439  0.00  0.00    +0.000 OA
ENDBRANCH  18  20
ENDBRANCH   1  18
BRANCH   2  22
ATOM     22  O   UNL     1      -1.624  12.882  20.201  0.00  0.00    +0.000 OA
BRANCH  22  23
ATOM     23  C   UNL     1      -1.810  13.375  21.456  0.00  0.00    +0.000 C 
ATOM     24  O   UNL     1      -1.156  14.269  21.976  0.00  0.00    +0.000 OA
BRANCH  23  25
ATOM     25  C   UNL     1      -2.976  12.695  22.131  0.00  0.00    +0.000 C 
BRANCH  25  26
ATOM     26  C   UNL     1      -3.495  13.481  23.339  0.00  0.00    +0.000 C 
ATOM     27  C   UNL     1      -4.548  14.512  22.928  0.00  0.00    +0.000 C 
ATOM     28  C   UNL     1      -4.082  12.524  24.378  0.00  0.00    +0.000 C 
ENDBRANCH  25  26
ENDBRANCH  23  25
ENDBRANCH  22  23
ENDBRANCH   2  22
TORSDOF 6
ENDMDL
MODEL 5
REMARK VINA RESULT:      -6.4      1.813      4.628
REMARK  Name = 
REMARK  11 active torsions:
REMARK  status: ('A' for Active; 'I' for Inactive)
REMARK    1  A    between atoms: C_1  and  C_2
REMARK    2  A    between atoms: C_2  and  O_4
REMARK    3  A    between atoms: O_4  and  C_5
REMARK    4  A    between atoms: C_6  and  O_7
REMARK    5  A    between atoms: O_7  and  C_8
REMARK    6  A    between atoms: C_8  and  C_10
REMARK    7  A    between atoms: C_10  and  C_11
REMARK    8  A    between atoms: C_11  and  C_12
REMARK    9  A    between atoms: C_11  and  C_13
REMARK   10  A    between atoms: C_26  and  C_27
REMARK   11  A    between atoms: C_26  and  C_28
REMARK                            x       y       z     vdW  Elec       q    Type
REMARK                         _______ _______ _______ _____ _____    ______ ____
ROOT
ATOM      1  C   UNL     1      -0.786  13.153  21.261  0.00  0.00    +0.000 C 
ATOM      2  C   UNL     1      -1.254  12.307  20.054  0.00  0.00    +0.000 C 
ATOM      3  C   UNL     1      -2.760  12.375  19.919  0.00  0.00    +0.000 A 
ATOM      4  C   UNL     1      -3.551  12.865  20.962  0.00  0.00    +0.000 A 
ATOM      5  C   UNL     1      -4.940  12.965  20.832  0.00  0.00    +0.000 A 
ATOM      6  C   UNL     1      -5.575  12.548  19.664  0.00  0.00    +0.000 A 
ATOM      7  C   UNL     1      -4.814  12.035  18.615  0.00  0.00    +0.000 A 
ATOM      8  C   UNL     1      -5.444  11.589  17.384  0.00  0.00    +0.000 A 
ATOM      9  C   UNL     1      -4.691  11.106  16.396  0.00  0.00    +0.000 A 
ATOM     10  C   UNL     1      -3.227  11.003  16.503  0.00  0.00    +0.000 A 
ATOM     11  O   UNL     1      -2.565  10.544  15.579  0.00  0.00    +0.000 OA
ATOM     12  O   UNL     1      -2.649  11.443  17.686  0.00  0.00    +0.000 OA
ATOM     13  C   UNL     1      -3.423  11.955  18.752  0.00  0.00    +0.000 A 
ATOM     14  O   UNL     1      -3.068  13.301  22.163  0.00  0.00    +0.000 OA
ATOM     15  C   UNL     1      -1.712  12.949  22.479  0.00  0.00    +0.000 C 
ATOM     16  C   UNL     1      -1.296  13.920  23.600  0.00  0.00    +0.000 C 
ATOM     17  C   UNL     1      -1.690  11.527  23.066  0.00  0.00    +0.000 C 
ENDROOT
BRANCH   1  18
ATOM     18  O   UNL     1       0.569  12.826  21.637  0.00  0.00    +0.000 OA
BRANCH  18  20
ATOM     19  C   UNL     1       1.802  14.815  21.747  0.00  0.00    +0.000 C 
ATOM     20  C   UNL     1       1.569  13.518  21.030  0.00  0.00    +0.000 C 
ATOM     21  O   UNL     1       2.188  13.154  20.041  0.00  0.00    +0.000 OA
ENDBRANCH  18  20
ENDBRANCH   1  18
BRANCH   2  22
ATOM     22  O   UNL     1      -0.890  10.918  20.210  0.00  0.00    +0.000 OA
BRANCH  22  23
ATOM     23  C   UNL     1       0.066  10.455  19.359  0.00  0.00    +0.000 C 
ATOM     24  O   UNL     1       0.051  10.564  18.140  0.00  0.00    +0.000 OA
BRANCH  23  25
ATOM     25  C   UNL     1       1.195   9.808  20.124  0.00  0.00    +0.000 C 
BRANCH  25  26
ATOM     26  C   UNL     1       0.701   8.746  21.111  0.00  0.00    +0.000 C 
ATOM     27  C   UNL     1       1.344   7.384  20.838  0.00  0.00    +0.000 C 
ATOM     28  C   UNL     1       0.996   9.182  22.546  0.00  0.00    +0.000 C 
ENDBRANCH  25  26
ENDBRANCH  23  25
ENDBRANCH  22  23
ENDBRANCH   2  22
TORSDOF 6
ENDMDL
MODEL 6
REMARK VINA RESULT:      -6.4      5.744      9.726
REMARK  Name = 
REMARK  11 active torsions:
REMARK  status: ('A' for Active; 'I' for Inactive)
REMARK    1  A    between atoms: C_1  and  C_2
REMARK    2  A    between atoms: C_2  and  O_4
REMARK    3  A    between atoms: O_4  and  C_5
REMARK    4  A    between atoms: C_6  and  O_7
REMARK    5  A    between atoms: O_7  and  C_8
REMARK    6  A    between atoms: C_8  and  C_10
REMARK    7  A    between atoms: C_10  and  C_11
REMARK    8  A    between atoms: C_11  and  C_12
REMARK    9  A    between atoms: C_11  and  C_13
REMARK   10  A    between atoms: C_26  and  C_27
REMARK   11  A    between atoms: C_26  and  C_28
REMARK                            x       y       z     vdW  Elec       q    Type
REMARK                         _______ _______ _______ _____ _____    ______ ____
ROOT
ATOM      1  C   UNL     1       5.162   4.575  19.058  0.00  0.00    +0.000 C 
ATOM      2  C   UNL     1       4.415   5.793  18.468  0.00  0.00    +0.000 C 
ATOM      3  C   UNL     1       3.190   6.109  19.299  0.00  0.00    +0.000 A 
ATOM      4  C   UNL     1       2.698   5.188  20.229  0.00  0.00    +0.000 A 
ATOM      5  C   UNL     1       1.589   5.487  21.026  0.00  0.00    +0.000 A 
ATOM      6  C   UNL     1       0.925   6.704  20.891  0.00  0.00    +0.000 A 
ATOM      7  C   UNL     1       1.379   7.633  19.957  0.00  0.00    +0.000 A 
ATOM      8  C   UNL     1       0.708   8.911  19.788  0.00  0.00    +0.000 A 
ATOM      9  C   UNL     1       1.167   9.783  18.889  0.00  0.00    +0.000 A 
ATOM     10  C   UNL     1       2.341   9.498  18.048  0.00  0.00    +0.000 A 
ATOM     11  O   UNL     1       2.731  10.317  17.224  0.00  0.00    +0.000 OA
ATOM     12  O   UNL     1       2.967   8.274  18.234  0.00  0.00    +0.000 OA
ATOM     13  C   UNL     1       2.500   7.329  19.176  0.00  0.00    +0.000 A 
ATOM     14  O   UNL     1       3.242   3.957  20.463  0.00  0.00    +0.000 OA
ATOM     15  C   UNL     1       4.175   3.468  19.488  0.00  0.00    +0.000 C 
ATOM     16  C   UNL     1       4.951   2.346  20.202  0.00  0.00    +0.000 C 
ATOM     17  C   UNL     1       3.394   2.825  18.328  0.00  0.00    +0.000 C 
ENDROOT
BRANCH   1  18
ATOM     18  O   UNL     1       6.104   4.027  18.110  0.00  0.00    +0.000 OA
BRANCH  18  20
ATOM     19  C   UNL     1       7.512   5.521  19.239  0.00  0.00    +0.000 C 
ATOM     20  C   UNL     1       7.365   4.533  18.121  0.00  0.00    +0.000 C 
ATOM     21  O   UNL     1       8.255   4.242  17.335  0.00  0.00    +0.000 OA
ENDBRANCH  18  20
ENDBRANCH   1  18
BRANCH   2  22
ATOM     22  O   UNL     1       3.975   5.539  17.117  0.00  0.00    +0.000 OA
BRANCH  22  23
ATOM     23  C   UNL     1       4.892   5.774  16.138  0.00  0.00    +0.000 C 
ATOM     24  O   UNL     1       5.453   6.840  15.926  0.00  0.00    +0.000 OA
BRANCH  23  25
ATOM     25  C   UNL     1       5.168   4.516  15.352  0.00  0.00    +0.000 C 
BRANCH  25  26
ATOM     26  C   UNL     1       5.806   4.804  13.990  0.00  0.00    +0.000 C 
ATOM     27  C   UNL     1       7.331   4.884  14.089  0.00  0.00    +0.000 C 
ATOM     28  C   UNL     1       5.408   3.724  12.983  0.00  0.00    +0.000 C 
ENDBRANCH  25  26
ENDBRANCH  23  25
ENDBRANCH  22  23
ENDBRANCH   2  22
TORSDOF 6
ENDMDL
MODEL 7
REMARK VINA RESULT:      -6.4      1.248      1.944
REMARK  Name = 
REMARK  11 active torsions:
REMARK  status: ('A' for Active; 'I' for Inactive)
REMARK    1  A    between atoms: C_1  and  C_2
REMARK    2  A    between atoms: C_2  and  O_4
REMARK    3  A    between atoms: O_4  and  C_5
REMARK    4  A    between atoms: C_6  and  O_7
REMARK    5  A    between atoms: O_7  and  C_8
REMARK    6  A    between atoms: C_8  and  C_10
REMARK    7  A    between atoms: C_10  and  C_11
REMARK    8  A    between atoms: C_11  and  C_12
REMARK    9  A    between atoms: C_11  and  C_13
REMARK   10  A    between atoms: C_26  and  C_27
REMARK   11  A    between atoms: C_26  and  C_28
REMARK                            x       y       z     vdW  Elec       q    Type
REMARK                         _______ _______ _______ _____ _____    ______ ____
ROOT
ATOM      1  C   UNL     1      -0.251  10.274  20.168  0.00  0.00    +0.000 C 
ATOM      2  C   UNL     1      -1.439  11.257  20.063  0.00  0.00    +0.000 C 
ATOM      3  C   UNL     1      -2.161  11.068  18.746  0.00  0.00    +0.000 A 
ATOM      4  C   UNL     1      -1.574  10.340  17.706  0.00  0.00    +0.000 A 
ATOM      5  C   UNL     1      -2.248  10.130  16.499  0.00  0.00    +0.000 A 
ATOM      6  C   UNL     1      -3.516  10.669  16.291  0.00  0.00    +0.000 A 
ATOM      7  C   UNL     1      -4.117  11.418  17.301  0.00  0.00    +0.000 A 
ATOM      8  C   UNL     1      -5.437  11.997  17.117  0.00  0.00    +0.000 A 
ATOM      9  C   UNL     1      -5.989  12.705  18.102  0.00  0.00    +0.000 A 
ATOM     10  C   UNL     1      -5.306  12.929  19.387  0.00  0.00    +0.000 A 
ATOM     11  O   UNL     1      -5.838  13.594  20.268  0.00  0.00    +0.000 OA
ATOM     12  O   UNL     1      -4.050  12.359  19.540  0.00  0.00    +0.000 OA
ATOM     13  C   UNL     1      -3.438  11.607  18.511  0.00  0.00    +0.000 A 
ATOM     14  O   UNL     1      -0.338   9.761  17.766  0.00  0.00    +0.000 OA
ATOM     15  C   UNL     1       0.522  10.185  18.835  0.00  0.00    +0.000 C 
ATOM     16  C   UNL     1       1.597   9.089  18.944  0.00  0.00    +0.000 C 
ATOM     17  C   UNL     1       1.228  11.488  18.420  0.00  0.00    +0.000 C 
ENDROOT
BRANCH   1  18
ATOM     18  O   UNL     1       0.661  10.663  21.219  0.00  0.00    +0.000 OA
BRANCH  18  20
ATOM     19  C   UNL     1      -0.561   9.958  23.089  0.00  0.00    +0.000 C 
ATOM     20  C   UNL     1       0.722   9.867  22.318  0.00  0.00    +0.000 C 
ATOM     21  O   UNL     1       1.679   9.182  22.648  0.00  0.00    +0.000 OA
ENDBRANCH  18  20
ENDBRANCH   1  18
BRANCH   2  22
ATOM     22  O   UNL     1      -0.997  12.630  20.127  0.00  0.00    +0.000 OA
BRANCH  22  23
ATOM     23  C   UNL     1      -1.197  13.264  21.315  0.00  0.00    +0.000 C 
ATOM     24  O   UNL     1      -2.227  13.238  21.974  0.00  0.00    +0.000 OA
BRANCH  23  25
ATOM     25  C   UNL     1       0.052  13.992  21.749  0.00  0.00    +0.000 C 
BRANCH  25  26
ATOM     26  C   UNL     1       0.987  14.303  20.577  0.00  0.00    +0.000 C 
ATOM     27  C   UNL     1       0.859  15.760  20.127  0.00  0.00    +0.000 C 
ATOM     28  C   UNL     1       2.436  14.004  20.964  0.00  0.00    +0.000 C 
ENDBRANCH  25  26
ENDBRANCH  23  25
ENDBRANCH  22  23
ENDBRANCH   2  22
TORSDOF 6
ENDMDL
MODEL 8
REMARK VINA RESULT:      -6.2      1.055      1.357
REMARK  Name = 
REMARK  11 active torsions:
REMARK  status: ('A' for Active; 'I' for Inactive)
REMARK    1  A    between atoms: C_1  and  C_2
REMARK    2  A    between atoms: C_2  and  O_4
REMARK    3  A    between atoms: O_4  and  C_5
REMARK    4  A    between atoms: C_6  and  O_7
REMARK    5  A    between atoms: O_7  and  C_8
REMARK    6  A    between atoms: C_8  and  C_10
REMARK    7  A    between atoms: C_10  and  C_11
REMARK    8  A    between atoms: C_11  and  C_12
REMARK    9  A    between atoms: C_11  and  C_13
REMARK   10  A    between atoms: C_26  and  C_27
REMARK   11  A    between atoms: C_26  and  C_28
REMARK                            x       y       z     vdW  Elec       q    Type
REMARK                         _______ _______ _______ _____ _____    ______ ____
ROOT
ATOM      1  C   UNL     1      -0.384  10.098  20.036  0.00  0.00    +0.000 C 
ATOM      2  C   UNL     1      -1.573  11.086  20.010  0.00  0.00    +0.000 C 
ATOM      3  C   UNL     1      -2.261  11.043  18.662  0.00  0.00    +0.000 A 
ATOM      4  C   UNL     1      -1.645  10.433  17.563  0.00  0.00    +0.000 A 
ATOM      5  C   UNL     1      -2.289  10.357  16.324  0.00  0.00    +0.000 A 
ATOM      6  C   UNL     1      -3.552  10.915  16.145  0.00  0.00    +0.000 A 
ATOM      7  C   UNL     1      -4.181  11.548  17.216  0.00  0.00    +0.000 A 
ATOM      8  C   UNL     1      -5.498  12.143  17.063  0.00  0.00    +0.000 A 
ATOM      9  C   UNL     1      -6.077  12.739  18.106  0.00  0.00    +0.000 A 
ATOM     10  C   UNL     1      -5.427  12.820  19.424  0.00  0.00    +0.000 A 
ATOM     11  O   UNL     1      -5.983  13.384  20.359  0.00  0.00    +0.000 OA
ATOM     12  O   UNL     1      -4.174  12.238  19.545  0.00  0.00    +0.000 OA
ATOM     13  C   UNL     1      -3.533  11.603  18.456  0.00  0.00    +0.000 A 
ATOM     14  O   UNL     1      -0.409   9.853  17.591  0.00  0.00    +0.000 OA
ATOM     15  C   UNL     1       0.422  10.157  18.721  0.00  0.00    +0.000 C 
ATOM     16  C   UNL     1       1.498   9.055  18.736  0.00  0.00    +0.000 C 
ATOM     17  C   UNL     1       1.134  11.498  18.470  0.00  0.00    +0.000 C 
ENDROOT
BRANCH   1  18
ATOM     18  O   UNL     1       0.499  10.370  21.146  0.00  0.00    +0.000 OA
BRANCH  18  20
ATOM     19  C   UNL     1      -0.356   8.324  21.903  0.00  0.00    +0.000 C 
ATOM     20  C   UNL     1       0.373   9.588  22.250  0.00  0.00    +0.000 C 
ATOM     21  O   UNL     1       0.779   9.867  23.369  0.00  0.00    +0.000 OA
ENDBRANCH  18  20
ENDBRANCH   1  18
BRANCH   2  22
ATOM     22  O   UNL     1      -1.137  12.443  20.236  0.00  0.00    +0.000 OA
BRANCH  22  23
ATOM     23  C   UNL     1      -1.594  13.034  21.374  0.00  0.00    +0.000 C 
ATOM     24  O   UNL     1      -1.673  12.501  22.472  0.00  0.00    +0.000 OA
BRANCH  23  25
ATOM     25  C   UNL     1      -1.966  14.474  21.117  0.00  0.00    +0.000 C 
BRANCH  25  26
ATOM     26  C   UNL     1      -2.364  15.214  22.398  0.00  0.00    +0.000 C 
ATOM     27  C   UNL     1      -1.731  16.605  22.462  0.00  0.00    +0.000 C 
ATOM     28  C   UNL     1      -3.886  15.331  22.487  0.00  0.00    +0.000 C 
ENDBRANCH  25  26
ENDBRANCH  23  25
ENDBRANCH  22  23
ENDBRANCH   2  22
TORSDOF 6
ENDMDL
MODEL 9
REMARK VINA RESULT:      -6.2      1.840      5.030
REMARK  Name = 
REMARK  11 active torsions:
REMARK  status: ('A' for Active; 'I' for Inactive)
REMARK    1  A    between atoms: C_1  and  C_2
REMARK    2  A    between atoms: C_2  and  O_4
REMARK    3  A    between atoms: O_4  and  C_5
REMARK    4  A    between atoms: C_6  and  O_7
REMARK    5  A    between atoms: O_7  and  C_8
REMARK    6  A    between atoms: C_8  and  C_10
REMARK    7  A    between atoms: C_10  and  C_11
REMARK    8  A    between atoms: C_11  and  C_12
REMARK    9  A    between atoms: C_11  and  C_13
REMARK   10  A    between atoms: C_26  and  C_27
REMARK   11  A    between atoms: C_26  and  C_28
REMARK                            x       y       z     vdW  Elec       q    Type
REMARK                         _______ _______ _______ _____ _____    ______ ____
ROOT
ATOM      1  C   UNL     1      -1.166  13.491  21.659  0.00  0.00    +0.000 C 
ATOM      2  C   UNL     1      -1.464  12.620  20.417  0.00  0.00    +0.000 C 
ATOM      3  C   UNL     1      -2.958  12.531  20.186  0.00  0.00    +0.000 A 
ATOM      4  C   UNL     1      -3.861  12.919  21.182  0.00  0.00    +0.000 A 
ATOM      5  C   UNL     1      -5.241  12.874  20.964  0.00  0.00    +0.000 A 
ATOM      6  C   UNL     1      -5.754  12.412  19.754  0.00  0.00    +0.000 A 
ATOM      7  C   UNL     1      -4.880  11.999  18.752  0.00  0.00    +0.000 A 
ATOM      8  C   UNL     1      -5.381  11.509  17.478  0.00  0.00    +0.000 A 
ATOM      9  C   UNL     1      -4.520  11.123  16.536  0.00  0.00    +0.000 A 
ATOM     10  C   UNL     1      -3.063  11.173  16.735  0.00  0.00    +0.000 A 
ATOM     11  O   UNL     1      -2.300  10.801  15.851  0.00  0.00    +0.000 OA
ATOM     12  O   UNL     1      -2.610  11.652  17.956  0.00  0.00    +0.000 OA
ATOM     13  C   UNL     1      -3.499  12.063  18.976  0.00  0.00    +0.000 A 
ATOM     14  O   UNL     1      -3.502  13.384  22.415  0.00  0.00    +0.000 OA
ATOM     15  C   UNL     1      -2.139  13.171  22.814  0.00  0.00    +0.000 C 
ATOM     16  C   UNL     1      -1.899  14.163  23.968  0.00  0.00    +0.000 C 
ATOM     17  C   UNL     1      -2.003  11.750  23.387  0.00  0.00    +0.000 C 
ENDROOT
BRANCH   1  18
ATOM     18  O   UNL     1       0.191  13.302  22.118  0.00  0.00    +0.000 OA
BRANCH  18  20
ATOM     19  C   UNL     1       0.484  15.543  21.503  0.00  0.00    +0.000 C 
ATOM     20  C   UNL     1       1.121  14.200  21.700  0.00  0.00    +0.000 C 
ATOM     21  O   UNL     1       2.303  13.960  21.501  0.00  0.00    +0.000 OA
ENDBRANCH  18  20
ENDBRANCH   1  18
BRANCH   2  22
ATOM     22  O   UNL     1      -0.966  11.275  20.582  0.00  0.00    +0.000 OA
BRANCH  22  23
ATOM     23  C   UNL     1       0.088  10.930  19.793  0.00  0.00    +0.000 C 
ATOM     24  O   UNL     1       0.865  11.709  19.259  0.00  0.00    +0.000 OA
BRANCH  23  25
ATOM     25  C   UNL     1       0.206   9.430  19.685  0.00  0.00    +0.000 C 
BRANCH  25  26
ATOM     26  C   UNL     1       1.611   8.980  19.272  0.00  0.00    +0.000 C 
ATOM     27  C   UNL     1       1.985   7.642  19.914  0.00  0.00    +0.000 C 
ATOM     28  C   UNL     1       1.703   8.870  17.749  0.00  0.00    +0.000 C 
ENDBRANCH  25  26
ENDBRANCH  23  25
ENDBRANCH  22  23
ENDBRANCH   2  22
TORSDOF 6
ENDMDL
