MODEL 1
REMARK VINA RESULT:      -8.2      0.000      0.000
REMARK  Name = 
REMARK  7 active torsions:
REMARK  status: ('A' for Active; 'I' for Inactive)
REMARK    1  A    between atoms: C_1  and  O_2
REMARK    2  A    between atoms: O_2  and  C_3
REMARK    3  A    between atoms: C_5  and  C_6
REMARK    4  A    between atoms: N_7  and  N_8
REMARK    5  A    between atoms: N_14  and  C_15
REMARK    6  A    between atoms: N_18  and  C_19
REMARK    7  A    between atoms: C_24  and  O_25
REMARK                            x       y       z     vdW  Elec       q    Type
REMARK                         _______ _______ _______ _____ _____    ______ ____
ROOT
ATOM      1  N   UNL     1       2.212   8.858  17.419  0.00  0.00    +0.000 NA
ATOM      2  C   UNL     1       1.347   9.324  18.257  0.00  0.00    +0.000 A 
ATOM      3  N   UNL     1       1.174   9.065  19.608  0.00  0.00    +0.000 N 
ATOM      4  C   UNL     1       0.270   9.954  20.148  0.00  0.00    +0.000 A 
ATOM      5  C   UNL     1      -0.098  10.140  21.550  0.00  0.00    +0.000 A 
ATOM      6  O   UNL     1       0.369   9.410  22.420  0.00  0.00    +0.000 OA
ATOM      7  N   UNL     1      -0.985  11.192  21.764  0.00  0.00    +0.000 N 
ATOM      8  C   UNL     1      -1.378  11.491  23.128  0.00  0.00    +0.000 C 
ATOM      9  C   UNL     1      -1.522  12.016  20.763  0.00  0.00    +0.000 A 
ATOM     10  O   UNL     1      -2.311  12.926  21.029  0.00  0.00    +0.000 OA
ATOM     11  N   UNL     1      -1.103  11.748  19.452  0.00  0.00    +0.000 N 
ATOM     12  C   UNL     1      -1.607  12.578  18.371  0.00  0.00    +0.000 C 
ATOM     13  C   UNL     1      -0.223  10.735  19.178  0.00  0.00    +0.000 A 
ATOM     14  N   UNL     1       0.381  10.304  18.005  0.00  0.00    +0.000 N 
ATOM     15  H   UNL     1       1.811   8.505  20.154  0.00  0.00    +0.000 HD
ATOM     16  H   UNL     1       0.345  10.819  17.142  0.00  0.00    +0.000 HD
ENDROOT
BRANCH   1  18
ATOM     17  C   UNL     1       2.630   6.747  17.955  0.00  0.00    +0.000 C 
ATOM     18  N   UNL     1       3.116   7.951  18.004  0.00  0.00    +0.000 NA
BRANCH  17  21
ATOM     19  C   UNL     1       5.373   4.292  18.944  0.00  0.00    +0.000 A 
ATOM     20  C   UNL     1       4.732   5.458  18.481  0.00  0.00    +0.000 A 
ATOM     21  C   UNL     1       3.337   5.544  18.452  0.00  0.00    +0.000 A 
ATOM     22  C   UNL     1       2.568   4.462  18.890  0.00  0.00    +0.000 A 
ATOM     23  C   UNL     1       3.193   3.301  19.351  0.00  0.00    +0.000 A 
ATOM     24  C   UNL     1       4.588   3.214  19.376  0.00  0.00    +0.000 A 
BRANCH  19  26
ATOM     25  C   UNL     1       7.363   4.631  17.649  0.00  0.00    +0.000 C 
ATOM     26  O   UNL     1       6.740   4.376  18.902  0.00  0.00    +0.000 OA
ENDBRANCH  19  26
BRANCH  24  27
ATOM     27  O   UNL     1       5.152   2.054  19.830  0.00  0.00    +0.000 OA
ATOM     28  H   UNL     1       5.695   2.237  20.613  0.00  0.00    +0.000 HD
ENDBRANCH  24  27
ENDBRANCH  17  21
ENDBRANCH   1  18
TORSDOF 4
ENDMDL
MODEL 2
REMARK VINA RESULT:      -8.1      0.868      2.049
REMARK  Name = 
REMARK  7 active torsions:
REMARK  status: ('A' for Active; 'I' for Inactive)
REMARK    1  A    between atoms: C_1  and  O_2
REMARK    2  A    between atoms: O_2  and  C_3
REMARK    3  A    between atoms: C_5  and  C_6
REMARK    4  A    between atoms: N_7  and  N_8
REMARK    5  A    between atoms: N_14  and  C_15
REMARK    6  A    between atoms: N_18  and  C_19
REMARK    7  A    between atoms: C_24  and  O_25
REMARK                            x       y       z     vdW  Elec       q    Type
REMARK                         _______ _______ _______ _____ _____    ______ ____
ROOT
ATOM      1  N   UNL     1       2.415   8.695  17.420  0.00  0.00    +0.000 NA
ATOM      2  C   UNL     1       1.543   9.205  18.225  0.00  0.00    +0.000 A 
ATOM      3  N   UNL     1       1.289   8.937  19.561  0.00  0.00    +0.000 N 
ATOM      4  C   UNL     1       0.420   9.875  20.074  0.00  0.00    +0.000 A 
ATOM      5  C   UNL     1      -0.003  10.064  21.460  0.00  0.00    +0.000 A 
ATOM      6  O   UNL     1       0.373   9.291  22.337  0.00  0.00    +0.000 OA
ATOM      7  N   UNL     1      -0.828  11.169  21.652  0.00  0.00    +0.000 N 
ATOM      8  C   UNL     1      -1.267  11.472  23.000  0.00  0.00    +0.000 C 
ATOM      9  C   UNL     1      -1.262  12.042  20.641  0.00  0.00    +0.000 A 
ATOM     10  O   UNL     1      -2.000  12.999  20.887  0.00  0.00    +0.000 OA
ATOM     11  N   UNL     1      -0.798  11.767  19.347  0.00  0.00    +0.000 N 
ATOM     12  C   UNL     1      -1.194  12.645  18.259  0.00  0.00    +0.000 C 
ATOM     13  C   UNL     1       0.026  10.702  19.096  0.00  0.00    +0.000 A 
ATOM     14  N   UNL     1       0.656  10.251  17.945  0.00  0.00    +0.000 N 
ATOM     15  H   UNL     1       1.860   8.328  20.126  0.00  0.00    +0.000 HD
ATOM     16  H   UNL     1       0.696  10.780  17.091  0.00  0.00    +0.000 HD
ENDROOT
BRANCH   1  18
ATOM     17  C   UNL     1       2.629   6.569  18.011  0.00  0.00    +0.000 C 
ATOM     18  N   UNL     1       3.228   7.722  18.030  0.00  0.00    +0.000 NA
BRANCH  17  21
ATOM     19  C   UNL     1       3.038   3.167  19.681  0.00  0.00    +0.000 A 
ATOM     20  C   UNL     1       2.444   4.338  19.172  0.00  0.00    +0.000 A 
ATOM     21  C   UNL     1       3.217   5.317  18.541  0.00  0.00    +0.000 A 
ATOM     22  C   UNL     1       4.597   5.132  18.412  0.00  0.00    +0.000 A 
ATOM     23  C   UNL     1       5.197   3.974  18.913  0.00  0.00    +0.000 A 
ATOM     24  C   UNL     1       4.423   2.997  19.547  0.00  0.00    +0.000 A 
BRANCH  19  26
ATOM     25  C   UNL     1       1.465   2.753  21.443  0.00  0.00    +0.000 C 
ATOM     26  O   UNL     1       2.137   2.318  20.268  0.00  0.00    +0.000 OA
ENDBRANCH  19  26
BRANCH  24  27
ATOM     27  O   UNL     1       5.058   1.884  20.026  0.00  0.00    +0.000 OA
ATOM     28  H   UNL     1       6.019   2.016  19.995  0.00  0.00    +0.000 HD
ENDBRANCH  24  27
ENDBRANCH  17  21
ENDBRANCH   1  18
TORSDOF 4
ENDMDL
MODEL 3
REMARK VINA RESULT:      -8.0      0.893      2.017
REMARK  Name = 
REMARK  7 active torsions:
REMARK  status: ('A' for Active; 'I' for Inactive)
REMARK    1  A    between atoms: C_1  and  O_2
REMARK    2  A    between atoms: O_2  and  C_3
REMARK    3  A    between atoms: C_5  and  C_6
REMARK    4  A    between atoms: N_7  and  N_8
REMARK    5  A    between atoms: N_14  and  C_15
REMARK    6  A    between atoms: N_18  and  C_19
REMARK    7  A    between atoms: C_24  and  O_25
REMARK                            x       y       z     vdW  Elec       q    Type
REMARK                         _______ _______ _______ _____ _____    ______ ____
ROOT
ATOM      1  N   UNL     1       2.003   8.832  17.380  0.00  0.00    +0.000 NA
ATOM      2  C   UNL     1       1.180   9.320  18.248  0.00  0.00    +0.000 A 
ATOM      3  N   UNL     1       1.185   9.248  19.632  0.00  0.00    +0.000 N 
ATOM      4  C   UNL     1       0.238  10.102  20.154  0.00  0.00    +0.000 A 
ATOM      5  C   UNL     1      -0.001  10.453  21.552  0.00  0.00    +0.000 A 
ATOM      6  O   UNL     1       0.645   9.917  22.449  0.00  0.00    +0.000 OA
ATOM      7  N   UNL     1      -0.986  11.420  21.730  0.00  0.00    +0.000 N 
ATOM      8  C   UNL     1      -1.267  11.874  23.078  0.00  0.00    +0.000 C 
ATOM      9  C   UNL     1      -1.727  12.021  20.699  0.00  0.00    +0.000 A 
ATOM     10  O   UNL     1      -2.592  12.868  20.935  0.00  0.00    +0.000 OA
ATOM     11  N   UNL     1      -1.418  11.609  19.395  0.00  0.00    +0.000 N 
ATOM     12  C   UNL     1      -2.136  12.207  18.282  0.00  0.00    +0.000 C 
ATOM     13  C   UNL     1      -0.451  10.670  19.155  0.00  0.00    +0.000 A 
ATOM     14  N   UNL     1       0.075  10.138  17.986  0.00  0.00    +0.000 N 
ATOM     15  H   UNL     1       1.942   8.849  20.166  0.00  0.00    +0.000 HD
ATOM     16  H   UNL     1      -0.118  10.511  17.072  0.00  0.00    +0.000 HD
ENDROOT
BRANCH   1  18
ATOM     17  C   UNL     1       3.577   7.294  17.109  0.00  0.00    +0.000 C 
ATOM     18  N   UNL     1       3.072   8.129  17.967  0.00  0.00    +0.000 NA
BRANCH  17  21
ATOM     19  C   UNL     1       5.791   4.534  18.526  0.00  0.00    +0.000 A 
ATOM     20  C   UNL     1       4.663   5.337  18.270  0.00  0.00    +0.000 A 
ATOM     21  C   UNL     1       4.738   6.417  17.386  0.00  0.00    +0.000 A 
ATOM     22  C   UNL     1       5.947   6.703  16.746  0.00  0.00    +0.000 A 
ATOM     23  C   UNL     1       7.073   5.913  16.991  0.00  0.00    +0.000 A 
ATOM     24  C   UNL     1       6.997   4.835  17.878  0.00  0.00    +0.000 A 
BRANCH  19  26
ATOM     25  C   UNL     1       4.202   3.073  19.572  0.00  0.00    +0.000 C 
ATOM     26  O   UNL     1       5.542   3.523  19.418  0.00  0.00    +0.000 OA
ENDBRANCH  19  26
BRANCH  24  27
ATOM     27  O   UNL     1       8.128   4.096  18.090  0.00  0.00    +0.000 OA
ATOM     28  H   UNL     1       8.223   3.432  17.389  0.00  0.00    +0.000 HD
ENDBRANCH  24  27
ENDBRANCH  17  21
ENDBRANCH   1  18
TORSDOF 4
ENDMDL
MODEL 4
REMARK VINA RESULT:      -7.9      1.426      1.965
REMARK  Name = 
REMARK  7 active torsions:
REMARK  status: ('A' for Active; 'I' for Inactive)
REMARK    1  A    between atoms: C_1  and  O_2
REMARK    2  A    between atoms: O_2  and  C_3
REMARK    3  A    between atoms: C_5  and  C_6
REMARK    4  A    between atoms: N_7  and  N_8
REMARK    5  A    between atoms: N_14  and  C_15
REMARK    6  A    between atoms: N_18  and  C_19
REMARK    7  A    between atoms: C_24  and  O_25
REMARK                            x       y       z     vdW  Elec       q    Type
REMARK                         _______ _______ _______ _____ _____    ______ ____
ROOT
ATOM      1  N   UNL     1       1.905   8.810  17.293  0.00  0.00    +0.000 NA
ATOM      2  C   UNL     1       1.111   9.288  18.193  0.00  0.00    +0.000 A 
ATOM      3  N   UNL     1       1.201   9.260  19.576  0.00  0.00    +0.000 N 
ATOM      4  C   UNL     1       0.246  10.087  20.128  0.00  0.00    +0.000 A 
ATOM      5  C   UNL     1       0.073  10.471  21.528  0.00  0.00    +0.000 A 
ATOM      6  O   UNL     1       0.794   9.993  22.400  0.00  0.00    +0.000 OA
ATOM      7  N   UNL     1      -0.944  11.399  21.735  0.00  0.00    +0.000 N 
ATOM      8  C   UNL     1      -1.168  11.882  23.084  0.00  0.00    +0.000 C 
ATOM      9  C   UNL     1      -1.771  11.933  20.734  0.00  0.00    +0.000 A 
ATOM     10  O   UNL     1      -2.659  12.748  20.995  0.00  0.00    +0.000 OA
ATOM     11  N   UNL     1      -1.519  11.494  19.426  0.00  0.00    +0.000 N 
ATOM     12  C   UNL     1      -2.327  12.024  18.340  0.00  0.00    +0.000 C 
ATOM     13  C   UNL     1      -0.525  10.592  19.156  0.00  0.00    +0.000 A 
ATOM     14  N   UNL     1      -0.043  10.048  17.973  0.00  0.00    +0.000 N 
ATOM     15  H   UNL     1       2.004   8.913  20.076  0.00  0.00    +0.000 HD
ATOM     16  H   UNL     1      -0.306  10.383  17.062  0.00  0.00    +0.000 HD
ENDROOT
BRANCH   1  18
ATOM     17  C   UNL     1       3.503   7.303  16.991  0.00  0.00    +0.000 C 
ATOM     18  N   UNL     1       3.037   8.174  17.836  0.00  0.00    +0.000 NA
BRANCH  17  21
ATOM     19  C   UNL     1       6.786   5.434  16.484  0.00  0.00    +0.000 A 
ATOM     20  C   UNL     1       5.658   6.239  16.230  0.00  0.00    +0.000 A 
ATOM     21  C   UNL     1       4.710   6.478  17.229  0.00  0.00    +0.000 A 
ATOM     22  C   UNL     1       4.884   5.915  18.496  0.00  0.00    +0.000 A 
ATOM     23  C   UNL     1       5.999   5.116  18.760  0.00  0.00    +0.000 A 
ATOM     24  C   UNL     1       6.945   4.874  17.759  0.00  0.00    +0.000 A 
BRANCH  19  26
ATOM     25  C   UNL     1       7.059   4.784  14.191  0.00  0.00    +0.000 C 
ATOM     26  O   UNL     1       7.609   5.302  15.396  0.00  0.00    +0.000 OA
ENDBRANCH  19  26
BRANCH  24  27
ATOM     27  O   UNL     1       8.015   4.079  18.064  0.00  0.00    +0.000 OA
ATOM     28  H   UNL     1       8.065   3.951  19.025  0.00  0.00    +0.000 HD
ENDBRANCH  24  27
ENDBRANCH  17  21
ENDBRANCH   1  18
TORSDOF 4
ENDMDL
MODEL 5
REMARK VINA RESULT:      -7.8      1.214      1.218
REMARK  Name = 
REMARK  7 active torsions:
REMARK  status: ('A' for Active; 'I' for Inactive)
REMARK    1  A    between atoms: C_1  and  O_2
REMARK    2  A    between atoms: O_2  and  C_3
REMARK    3  A    between atoms: C_5  and  C_6
REMARK    4  A    between atoms: N_7  and  N_8
REMARK    5  A    between atoms: N_14  and  C_15
REMARK    6  A    between atoms: N_18  and  C_19
REMARK    7  A    between atoms: C_24  and  O_25
REMARK                            x       y       z     vdW  Elec       q    Type
REMARK                         _______ _______ _______ _____ _____    ______ ____
ROOT
ATOM      1  N   UNL     1       1.944   9.243  17.559  0.00  0.00    +0.000 NA
ATOM      2  C   UNL     1       1.244  10.007  18.329  0.00  0.00    +0.000 A 
ATOM      3  N   UNL     1       0.613   9.735  19.533  0.00  0.00    +0.000 N 
ATOM      4  C   UNL     1       0.171  10.905  20.111  0.00  0.00    +0.000 A 
ATOM      5  C   UNL     1      -0.411  11.104  21.437  0.00  0.00    +0.000 A 
ATOM      6  O   UNL     1      -0.624  10.145  22.174  0.00  0.00    +0.000 OA
ATOM      7  N   UNL     1      -0.670  12.437  21.744  0.00  0.00    +0.000 N 
ATOM      8  C   UNL     1      -1.206  12.747  23.056  0.00  0.00    +0.000 C 
ATOM      9  C   UNL     1      -0.433  13.527  20.891  0.00  0.00    +0.000 A 
ATOM     10  O   UNL     1      -0.695  14.682  21.231  0.00  0.00    +0.000 OA
ATOM     11  N   UNL     1       0.127  13.222  19.642  0.00  0.00    +0.000 N 
ATOM     12  C   UNL     1       0.414  14.307  18.719  0.00  0.00    +0.000 C 
ATOM     13  C   UNL     1       0.415  11.932  19.286  0.00  0.00    +0.000 A 
ATOM     14  N   UNL     1       1.007  11.376  18.160  0.00  0.00    +0.000 N 
ATOM     15  H   UNL     1       0.711   8.862  20.029  0.00  0.00    +0.000 HD
ATOM     16  H   UNL     1       1.465  11.921  17.449  0.00  0.00    +0.000 HD
ENDROOT
BRANCH   1  18
ATOM     17  C   UNL     1       3.292   7.509  17.865  0.00  0.00    +0.000 C 
ATOM     18  N   UNL     1       2.078   7.932  18.055  0.00  0.00    +0.000 NA
BRANCH  17  21
ATOM     19  C   UNL     1       5.579   4.571  18.679  0.00  0.00    +0.000 A 
ATOM     20  C   UNL     1       5.144   5.848  18.279  0.00  0.00    +0.000 A 
ATOM     21  C   UNL     1       3.786   6.181  18.296  0.00  0.00    +0.000 A 
ATOM     22  C   UNL     1       2.848   5.234  18.719  0.00  0.00    +0.000 A 
ATOM     23  C   UNL     1       3.268   3.963  19.119  0.00  0.00    +0.000 A 
ATOM     24  C   UNL     1       4.626   3.631  19.097  0.00  0.00    +0.000 A 
BRANCH  19  26
ATOM     25  C   UNL     1       7.563   4.588  17.333  0.00  0.00    +0.000 C 
ATOM     26  O   UNL     1       6.938   4.414  18.597  0.00  0.00    +0.000 OA
ENDBRANCH  19  26
BRANCH  24  27
ATOM     27  O   UNL     1       4.986   2.372  19.491  0.00  0.00    +0.000 OA
ATOM     28  H   UNL     1       5.786   2.095  19.016  0.00  0.00    +0.000 HD
ENDBRANCH  24  27
ENDBRANCH  17  21
ENDBRANCH   1  18
TORSDOF 4
ENDMDL
MODEL 6
REMARK VINA RESULT:      -7.8      1.400      2.309
REMARK  Name = 
REMARK  7 active torsions:
REMARK  status: ('A' for Active; 'I' for Inactive)
REMARK    1  A    between atoms: C_1  and  O_2
REMARK    2  A    between atoms: O_2  and  C_3
REMARK    3  A    between atoms: C_5  and  C_6
REMARK    4  A    between atoms: N_7  and  N_8
REMARK    5  A    between atoms: N_14  and  C_15
REMARK    6  A    between atoms: N_18  and  C_19
REMARK    7  A    between atoms: C_24  and  O_25
REMARK                            x       y       z     vdW  Elec       q    Type
REMARK                         _______ _______ _______ _____ _____    ______ ____
ROOT
ATOM      1  N   UNL     1       1.816   8.975  18.192  0.00  0.00    +0.000 NA
ATOM      2  C   UNL     1       1.123   9.818  18.881  0.00  0.00    +0.000 A 
ATOM      3  N   UNL     1       0.718   9.778  20.207  0.00  0.00    +0.000 N 
ATOM      4  C   UNL     1       0.188  10.995  20.576  0.00  0.00    +0.000 A 
ATOM      5  C   UNL     1      -0.225  11.444  21.904  0.00  0.00    +0.000 A 
ATOM      6  O   UNL     1      -0.181  10.678  22.863  0.00  0.00    +0.000 OA
ATOM      7  N   UNL     1      -0.639  12.772  21.946  0.00  0.00    +0.000 N 
ATOM      8  C   UNL     1      -1.026  13.331  23.228  0.00  0.00    +0.000 C 
ATOM      9  C   UNL     1      -0.696  13.639  20.843  0.00  0.00    +0.000 A 
ATOM     10  O   UNL     1      -1.082  14.805  20.957  0.00  0.00    +0.000 OA
ATOM     11  N   UNL     1      -0.279  13.105  19.616  0.00  0.00    +0.000 N 
ATOM     12  C   UNL     1      -0.294  13.956  18.438  0.00  0.00    +0.000 C 
ATOM     13  C   UNL     1       0.151  11.809  19.512  0.00  0.00    +0.000 A 
ATOM     14  N   UNL     1       0.657  11.067  18.454  0.00  0.00    +0.000 N 
ATOM     15  H   UNL     1       1.018   9.071  20.860  0.00  0.00    +0.000 HD
ATOM     16  H   UNL     1       0.920  11.469  17.571  0.00  0.00    +0.000 HD
ENDROOT
BRANCH   1  18
ATOM     17  C   UNL     1       2.747   6.963  18.148  0.00  0.00    +0.000 C 
ATOM     18  N   UNL     1       2.219   7.850  18.937  0.00  0.00    +0.000 NA
BRANCH  17  21
ATOM     19  C   UNL     1       3.070   3.443  19.575  0.00  0.00    +0.000 A 
ATOM     20  C   UNL     1       2.504   4.653  19.130  0.00  0.00    +0.000 A 
ATOM     21  C   UNL     1       3.307   5.671  18.608  0.00  0.00    +0.000 A 
ATOM     22  C   UNL     1       4.690   5.485  18.523  0.00  0.00    +0.000 A 
ATOM     23  C   UNL     1       5.263   4.288  18.961  0.00  0.00    +0.000 A 
ATOM     24  C   UNL     1       4.459   3.273  19.487  0.00  0.00    +0.000 A 
BRANCH  19  26
ATOM     25  C   UNL     1       1.345   2.956  21.168  0.00  0.00    +0.000 C 
ATOM     26  O   UNL     1       2.141   2.560  20.059  0.00  0.00    +0.000 OA
ENDBRANCH  19  26
BRANCH  24  27
ATOM     27  O   UNL     1       5.068   2.123  19.908  0.00  0.00    +0.000 OA
ATOM     28  H   UNL     1       5.761   2.337  20.553  0.00  0.00    +0.000 HD
ENDBRANCH  24  27
ENDBRANCH  17  21
ENDBRANCH   1  18
TORSDOF 4
ENDMDL
MODEL 7
REMARK VINA RESULT:      -7.7      2.389      3.617
REMARK  Name = 
REMARK  7 active torsions:
REMARK  status: ('A' for Active; 'I' for Inactive)
REMARK    1  A    between atoms: C_1  and  O_2
REMARK    2  A    between atoms: O_2  and  C_3
REMARK    3  A    between atoms: C_5  and  C_6
REMARK    4  A    between atoms: N_7  and  N_8
REMARK    5  A    between atoms: N_14  and  C_15
REMARK    6  A    between atoms: N_18  and  C_19
REMARK    7  A    between atoms: C_24  and  O_25
REMARK                            x       y       z     vdW  Elec       q    Type
REMARK                         _______ _______ _______ _____ _____    ______ ____
ROOT
ATOM      1  N   UNL     1       1.719   9.087  19.059  0.00  0.00    +0.000 NA
ATOM      2  C   UNL     1       0.655   9.755  18.758  0.00  0.00    +0.000 A 
ATOM      3  N   UNL     1      -0.125   9.734  17.612  0.00  0.00    +0.000 N 
ATOM      4  C   UNL     1      -1.287  10.445  17.819  0.00  0.00    +0.000 A 
ATOM      5  C   UNL     1      -2.451  10.563  16.942  0.00  0.00    +0.000 A 
ATOM      6  O   UNL     1      -2.450  10.039  15.832  0.00  0.00    +0.000 OA
ATOM      7  N   UNL     1      -3.500  11.292  17.495  0.00  0.00    +0.000 N 
ATOM      8  C   UNL     1      -4.721  11.430  16.724  0.00  0.00    +0.000 C 
ATOM      9  C   UNL     1      -3.488  11.897  18.762  0.00  0.00    +0.000 A 
ATOM     10  O   UNL     1      -4.456  12.536  19.182  0.00  0.00    +0.000 OA
ATOM     11  N   UNL     1      -2.321  11.722  19.519  0.00  0.00    +0.000 N 
ATOM     12  C   UNL     1      -2.252  12.307  20.847  0.00  0.00    +0.000 C 
ATOM     13  C   UNL     1      -1.259  11.005  19.035  0.00  0.00    +0.000 A 
ATOM     14  N   UNL     1      -0.037  10.644  19.587  0.00  0.00    +0.000 N 
ATOM     15  H   UNL     1       0.010   9.079  16.858  0.00  0.00    +0.000 HD
ATOM     16  H   UNL     1       0.189  10.766  20.560  0.00  0.00    +0.000 HD
ENDROOT
BRANCH   1  18
ATOM     17  C   UNL     1       3.128   7.487  18.451  0.00  0.00    +0.000 C 
ATOM     18  N   UNL     1       2.120   8.198  18.044  0.00  0.00    +0.000 NA
BRANCH  17  21
ATOM     19  C   UNL     1       4.202   4.087  17.103  0.00  0.00    +0.000 A 
ATOM     20  C   UNL     1       3.554   5.069  17.877  0.00  0.00    +0.000 A 
ATOM     21  C   UNL     1       3.778   6.429  17.644  0.00  0.00    +0.000 A 
ATOM     22  C   UNL     1       4.655   6.820  16.628  0.00  0.00    +0.000 A 
ATOM     23  C   UNL     1       5.304   5.855  15.853  0.00  0.00    +0.000 A 
ATOM     24  C   UNL     1       5.081   4.495  16.090  0.00  0.00    +0.000 A 
BRANCH  19  26
ATOM     25  C   UNL     1       2.501   2.503  17.694  0.00  0.00    +0.000 C 
ATOM     26  O   UNL     1       3.871   2.808  17.468  0.00  0.00    +0.000 OA
ENDBRANCH  19  26
BRANCH  24  27
ATOM     27  O   UNL     1       5.745   3.589  15.309  0.00  0.00    +0.000 OA
ATOM     28  H   UNL     1       5.147   2.865  15.067  0.00  0.00    +0.000 HD
ENDBRANCH  24  27
ENDBRANCH  17  21
ENDBRANCH   1  18
TORSDOF 4
ENDMDL
MODEL 8
REMARK VINA RESULT:      -7.7      1.730      2.441
REMARK  Name = 
REMARK  7 active torsions:
REMARK  status: ('A' for Active; 'I' for Inactive)
REMARK    1  A    between atoms: C_1  and  O_2
REMARK    2  A    between atoms: O_2  and  C_3
REMARK    3  A    between atoms: C_5  and  C_6
REMARK    4  A    between atoms: N_7  and  N_8
REMARK    5  A    between atoms: N_14  and  C_15
REMARK    6  A    between atoms: N_18  and  C_19
REMARK    7  A    between atoms: C_24  and  O_25
REMARK                            x       y       z     vdW  Elec       q    Type
REMARK                         _______ _______ _______ _____ _____    ______ ____
ROOT
ATOM      1  N   UNL     1       2.362   9.227  17.374  0.00  0.00    +0.000 NA
ATOM      2  C   UNL     1       1.678  10.008  18.142  0.00  0.00    +0.000 A 
ATOM      3  N   UNL     1       0.848   9.714  19.212  0.00  0.00    +0.000 N 
ATOM      4  C   UNL     1       0.504  10.873  19.876  0.00  0.00    +0.000 A 
ATOM      5  C   UNL     1      -0.227  11.020  21.133  0.00  0.00    +0.000 A 
ATOM      6  O   UNL     1      -0.682  10.035  21.709  0.00  0.00    +0.000 OA
ATOM      7  N   UNL     1      -0.329  12.336  21.573  0.00  0.00    +0.000 N 
ATOM      8  C   UNL     1      -0.997  12.588  22.836  0.00  0.00    +0.000 C 
ATOM      9  C   UNL     1       0.185  13.458  20.903  0.00  0.00    +0.000 A 
ATOM     10  O   UNL     1       0.048  14.598  21.353  0.00  0.00    +0.000 OA
ATOM     11  N   UNL     1       0.867  13.203  19.705  0.00  0.00    +0.000 N 
ATOM     12  C   UNL     1       1.440  14.319  18.972  0.00  0.00    +0.000 C 
ATOM     13  C   UNL     1       1.011  11.928  19.225  0.00  0.00    +0.000 A 
ATOM     14  N   UNL     1       1.671  11.408  18.121  0.00  0.00    +0.000 N 
ATOM     15  H   UNL     1       0.745   8.790  19.600  0.00  0.00    +0.000 HD
ATOM     16  H   UNL     1       2.301  11.943  17.548  0.00  0.00    +0.000 HD
ENDROOT
BRANCH   1  18
ATOM     17  C   UNL     1       3.398   7.296  17.714  0.00  0.00    +0.000 C 
ATOM     18  N   UNL     1       2.230   7.867  17.710  0.00  0.00    +0.000 NA
BRANCH  17  21
ATOM     19  C   UNL     1       2.920   3.540  18.152  0.00  0.00    +0.000 A 
ATOM     20  C   UNL     1       2.679   4.881  17.796  0.00  0.00    +0.000 A 
ATOM     21  C   UNL     1       3.627   5.874  18.058  0.00  0.00    +0.000 A 
ATOM     22  C   UNL     1       4.831   5.532  18.681  0.00  0.00    +0.000 A 
ATOM     23  C   UNL     1       5.082   4.205  19.039  0.00  0.00    +0.000 A 
ATOM     24  C   UNL     1       4.131   3.214  18.779  0.00  0.00    +0.000 A 
BRANCH  19  26
ATOM     25  C   UNL     1       0.893   2.439  18.807  0.00  0.00    +0.000 C 
ATOM     26  O   UNL     1       1.887   2.701  17.825  0.00  0.00    +0.000 OA
ENDBRANCH  19  26
BRANCH  24  27
ATOM     27  O   UNL     1       4.420   1.931  19.155  0.00  0.00    +0.000 OA
ATOM     28  H   UNL     1       5.211   1.622  18.684  0.00  0.00    +0.000 HD
ENDBRANCH  24  27
ENDBRANCH  17  21
ENDBRANCH   1  18
TORSDOF 4
ENDMDL
MODEL 9
REMARK VINA RESULT:      -7.6      2.459      8.760
REMARK  Name = 
REMARK  7 active torsions:
REMARK  status: ('A' for Active; 'I' for Inactive)
REMARK    1  A    between atoms: C_1  and  O_2
REMARK    2  A    between atoms: O_2  and  C_3
REMARK    3  A    between atoms: C_5  and  C_6
REMARK    4  A    between atoms: N_7  and  N_8
REMARK    5  A    between atoms: N_14  and  C_15
REMARK    6  A    between atoms: N_18  and  C_19
REMARK    7  A    between atoms: C_24  and  O_25
REMARK                            x       y       z     vdW  Elec       q    Type
REMARK                         _______ _______ _______ _____ _____    ______ ____
ROOT
ATOM      1  N   UNL     1       2.612   8.738  17.954  0.00  0.00    +0.000 NA
ATOM      2  C   UNL     1       2.738   7.487  18.247  0.00  0.00    +0.000 A 
ATOM      3  N   UNL     1       2.036   6.698  19.144  0.00  0.00    +0.000 N 
ATOM      4  C   UNL     1       2.361   5.371  18.963  0.00  0.00    +0.000 A 
ATOM      5  C   UNL     1       1.760   4.192  19.584  0.00  0.00    +0.000 A 
ATOM      6  O   UNL     1       0.882   4.315  20.434  0.00  0.00    +0.000 OA
ATOM      7  N   UNL     1       2.269   2.986  19.112  0.00  0.00    +0.000 N 
ATOM      8  C   UNL     1       1.706   1.754  19.630  0.00  0.00    +0.000 C 
ATOM      9  C   UNL     1       3.280   2.855  18.147  0.00  0.00    +0.000 A 
ATOM     10  O   UNL     1       3.686   1.749  17.783  0.00  0.00    +0.000 OA
ATOM     11  N   UNL     1       3.788   4.050  17.619  0.00  0.00    +0.000 N 
ATOM     12  C   UNL     1       4.824   3.984  16.601  0.00  0.00    +0.000 C 
ATOM     13  C   UNL     1       3.320   5.268  18.034  0.00  0.00    +0.000 A 
ATOM     14  N   UNL     1       3.606   6.569  17.643  0.00  0.00    +0.000 N 
ATOM     15  H   UNL     1       1.222   7.016  19.648  0.00  0.00    +0.000 HD
ATOM     16  H   UNL     1       4.154   6.796  16.830  0.00  0.00    +0.000 HD
ENDROOT
BRANCH   1  18
ATOM     17  C   UNL     1       0.685   9.830  17.851  0.00  0.00    +0.000 C 
ATOM     18  N   UNL     1       1.581   9.373  18.673  0.00  0.00    +0.000 NA
BRANCH  17  21
ATOM     19  C   UNL     1      -2.881  11.174  17.935  0.00  0.00    +0.000 A 
ATOM     20  C   UNL     1      -1.726  10.487  17.514  0.00  0.00    +0.000 A 
ATOM     21  C   UNL     1      -0.553  10.525  18.273  0.00  0.00    +0.000 A 
ATOM     22  C   UNL     1      -0.526  11.252  19.467  0.00  0.00    +0.000 A 
ATOM     23  C   UNL     1      -1.666  11.937  19.895  0.00  0.00    +0.000 A 
ATOM     24  C   UNL     1      -2.837  11.901  19.133  0.00  0.00    +0.000 A 
BRANCH  19  26
ATOM     25  C   UNL     1      -3.660  10.819  15.695  0.00  0.00    +0.000 C 
ATOM     26  O   UNL     1      -3.936  11.032  17.073  0.00  0.00    +0.000 OA
ENDBRANCH  19  26
BRANCH  24  27
ATOM     27  O   UNL     1      -3.924  12.593  19.591  0.00  0.00    +0.000 OA
ATOM     28  H   UNL     1      -3.798  13.543  19.435  0.00  0.00    +0.000 HD
ENDBRANCH  24  27
ENDBRANCH  17  21
ENDBRANCH   1  18
TORSDOF 4
ENDMDL
