MODEL 1
REMARK VINA RESULT:      -7.8      0.000      0.000
REMARK  Name = 
REMARK  6 active torsions:
REMARK  status: ('A' for Active; 'I' for Inactive)
REMARK    1  A    between atoms: C_1  and  C_2
REMARK    2  A    between atoms: C_5  and  C_6
REMARK    3  A    between atoms: C_6  and  C_7
REMARK    4  A    between atoms: N_13  and  C_14
REMARK    5  A    between atoms: C_14  and  C_15
REMARK    6  A    between atoms: N_19  and  C_20
REMARK                            x       y       z     vdW  Elec       q    Type
REMARK                         _______ _______ _______ _____ _____    ______ ____
ROOT
ATOM      1  C   UNL     1       1.552   7.671  20.266  0.00  0.00    +0.000 C 
ATOM      2  O   UNL     1       1.709   8.676  19.564  0.00  0.00    +0.000 OA
ATOM      3  N   UNL     1       2.190   6.472  19.971  0.00  0.00    +0.000 N 
ATOM      4  C   UNL     1       1.950   5.176  20.595  0.00  0.00    +0.000 C 
ATOM      5  C   UNL     1       1.300   4.117  19.699  0.00  0.00    +0.000 C 
ATOM      6  C   UNL     1       1.815   3.839  18.274  0.00  0.00    +0.000 C 
ATOM      7  N   UNL     1       3.118   4.321  17.805  0.00  0.00    +0.000 NA
ATOM      8  C   UNL     1       3.147   5.791  17.750  0.00  0.00    +0.000 C 
ATOM      9  C   UNL     1       3.337   6.545  19.065  0.00  0.00    +0.000 C 
ENDROOT
BRANCH   1  10
ATOM     10  C   UNL     1       0.684   7.781  21.507  0.00  0.00    +0.000 C 
BRANCH  10  15
ATOM     11  C   UNL     1      -1.607  12.930  22.654  0.00  0.00    +0.000 C 
ATOM     12  C   UNL     1      -0.972  11.619  22.303  0.00  0.00    +0.000 A 
ATOM     13  C   UNL     1      -0.877  11.201  20.979  0.00  0.00    +0.000 A 
ATOM     14  C   UNL     1      -0.314   9.957  20.703  0.00  0.00    +0.000 A 
ATOM     15  C   UNL     1       0.144   9.159  21.750  0.00  0.00    +0.000 A 
ATOM     16  C   UNL     1       0.015   9.664  23.042  0.00  0.00    +0.000 A 
ATOM     17  N   UNL     1      -0.528  10.868  23.334  0.00  0.00    +0.000 NA
ENDBRANCH  10  15
ENDBRANCH   1  10
BRANCH   7  18
ATOM     18  C   UNL     1       4.254   3.665  18.473  0.00  0.00    +0.000 C 
BRANCH  18  19
ATOM     19  C   UNL     1       5.623   4.240  18.205  0.00  0.00    +0.000 A 
ATOM     20  N   UNL     1       6.386   4.781  19.142  0.00  0.00    +0.000 NA
ATOM     21  C   UNL     1       7.536   5.180  18.522  0.00  0.00    +0.000 A 
ATOM     22  C   UNL     1       7.493   4.875  17.189  0.00  0.00    +0.000 A 
ATOM     23  N   UNL     1       6.277   4.276  16.991  0.00  0.00    +0.000 N 
ATOM     24  C   UNL     1       5.803   3.791  15.715  0.00  0.00    +0.000 C 
ENDBRANCH  18  19
ENDBRANCH   7  18
TORSDOF 4
ENDMDL
MODEL 2
REMARK VINA RESULT:      -7.7      0.938      1.597
REMARK  Name = 
REMARK  6 active torsions:
REMARK  status: ('A' for Active; 'I' for Inactive)
REMARK    1  A    between atoms: C_1  and  C_2
REMARK    2  A    between atoms: C_5  and  C_6
REMARK    3  A    between atoms: C_6  and  C_7
REMARK    4  A    between atoms: N_13  and  C_14
REMARK    5  A    between atoms: C_14  and  C_15
REMARK    6  A    between atoms: N_19  and  C_20
REMARK                            x       y       z     vdW  Elec       q    Type
REMARK                         _______ _______ _______ _____ _____    ______ ____
ROOT
ATOM      1  C   UNL     1       1.547   7.898  20.388  0.00  0.00    +0.000 C 
ATOM      2  O   UNL     1       1.479   8.808  19.555  0.00  0.00    +0.000 OA
ATOM      3  N   UNL     1       2.123   6.672  20.078  0.00  0.00    +0.000 N 
ATOM      4  C   UNL     1       2.101   5.463  20.894  0.00  0.00    +0.000 C 
ATOM      5  C   UNL     1       1.271   4.301  20.338  0.00  0.00    +0.000 C 
ATOM      6  C   UNL     1       1.397   3.849  18.871  0.00  0.00    +0.000 C 
ATOM      7  N   UNL     1       2.512   4.269  18.015  0.00  0.00    +0.000 NA
ATOM      8  C   UNL     1       2.477   5.720  17.779  0.00  0.00    +0.000 C 
ATOM      9  C   UNL     1       2.985   6.632  18.895  0.00  0.00    +0.000 C 
ENDROOT
BRANCH   1  10
ATOM     10  C   UNL     1       1.038   8.162  21.794  0.00  0.00    +0.000 C 
BRANCH  10  15
ATOM     11  C   UNL     1      -1.064  13.460  22.559  0.00  0.00    +0.000 C 
ATOM     12  C   UNL     1      -0.583  12.055  22.352  0.00  0.00    +0.000 A 
ATOM     13  C   UNL     1      -1.188  10.987  23.007  0.00  0.00    +0.000 A 
ATOM     14  C   UNL     1      -0.682   9.704  22.812  0.00  0.00    +0.000 A 
ATOM     15  C   UNL     1       0.411   9.512  21.970  0.00  0.00    +0.000 A 
ATOM     16  C   UNL     1       0.946  10.640  21.351  0.00  0.00    +0.000 A 
ATOM     17  N   UNL     1       0.471  11.895  21.523  0.00  0.00    +0.000 NA
ENDBRANCH  10  15
ENDBRANCH   1  10
BRANCH   7  18
ATOM     18  C   UNL     1       3.806   3.700  18.427  0.00  0.00    +0.000 C 
BRANCH  18  19
ATOM     19  C   UNL     1       4.998   4.032  17.564  0.00  0.00    +0.000 A 
ATOM     20  N   UNL     1       5.100   3.682  16.290  0.00  0.00    +0.000 NA
ATOM     21  C   UNL     1       6.303   4.158  15.854  0.00  0.00    +0.000 A 
ATOM     22  C   UNL     1       6.952   4.820  16.861  0.00  0.00    +0.000 A 
ATOM     23  N   UNL     1       6.118   4.740  17.945  0.00  0.00    +0.000 N 
ATOM     24  C   UNL     1       6.409   5.304  19.243  0.00  0.00    +0.000 C 
ENDBRANCH  18  19
ENDBRANCH   7  18
TORSDOF 4
ENDMDL
MODEL 3
REMARK VINA RESULT:      -7.5      0.706      1.038
REMARK  Name = 
REMARK  6 active torsions:
REMARK  status: ('A' for Active; 'I' for Inactive)
REMARK    1  A    between atoms: C_1  and  C_2
REMARK    2  A    between atoms: C_5  and  C_6
REMARK    3  A    between atoms: C_6  and  C_7
REMARK    4  A    between atoms: N_13  and  C_14
REMARK    5  A    between atoms: C_14  and  C_15
REMARK    6  A    between atoms: N_19  and  C_20
REMARK                            x       y       z     vdW  Elec       q    Type
REMARK                         _______ _______ _______ _____ _____    ______ ____
ROOT
ATOM      1  C   UNL     1       1.591   7.804  20.305  0.00  0.00    +0.000 C 
ATOM      2  O   UNL     1       1.737   8.780  19.561  0.00  0.00    +0.000 OA
ATOM      3  N   UNL     1       2.203   6.587  20.035  0.00  0.00    +0.000 N 
ATOM      4  C   UNL     1       1.968   5.318  20.716  0.00  0.00    +0.000 C 
ATOM      5  C   UNL     1       1.274   4.236  19.884  0.00  0.00    +0.000 C 
ATOM      6  C   UNL     1       1.736   3.897  18.454  0.00  0.00    +0.000 C 
ATOM      7  N   UNL     1       3.028   4.343  17.922  0.00  0.00    +0.000 NA
ATOM      8  C   UNL     1       3.074   5.809  17.810  0.00  0.00    +0.000 C 
ATOM      9  C   UNL     1       3.319   6.609  19.088  0.00  0.00    +0.000 C 
ENDROOT
BRANCH   1  10
ATOM     10  C   UNL     1       0.768   7.974  21.570  0.00  0.00    +0.000 C 
BRANCH  10  15
ATOM     11  C   UNL     1      -1.943  13.046  21.583  0.00  0.00    +0.000 C 
ATOM     12  C   UNL     1      -1.279  11.703  21.633  0.00  0.00    +0.000 A 
ATOM     13  C   UNL     1      -0.898  11.137  22.846  0.00  0.00    +0.000 A 
ATOM     14  C   UNL     1      -0.250   9.904  22.840  0.00  0.00    +0.000 A 
ATOM     15  C   UNL     1       0.003   9.262  21.629  0.00  0.00    +0.000 A 
ATOM     16  C   UNL     1      -0.422   9.901  20.467  0.00  0.00    +0.000 A 
ATOM     17  N   UNL     1      -1.054  11.097  20.447  0.00  0.00    +0.000 NA
ENDBRANCH  10  15
ENDBRANCH   1  10
BRANCH   7  18
ATOM     18  C   UNL     1       4.178   3.696  18.576  0.00  0.00    +0.000 C 
BRANCH  18  19
ATOM     19  C   UNL     1       5.539   4.280  18.286  0.00  0.00    +0.000 A 
ATOM     20  N   UNL     1       6.308   4.838  19.209  0.00  0.00    +0.000 NA
ATOM     21  C   UNL     1       7.448   5.239  18.572  0.00  0.00    +0.000 A 
ATOM     22  C   UNL     1       7.392   4.919  17.243  0.00  0.00    +0.000 A 
ATOM     23  N   UNL     1       6.180   4.308  17.066  0.00  0.00    +0.000 N 
ATOM     24  C   UNL     1       5.695   3.805  15.800  0.00  0.00    +0.000 C 
ENDBRANCH  18  19
ENDBRANCH   7  18
TORSDOF 4
ENDMDL
MODEL 4
REMARK VINA RESULT:      -7.3      1.027      1.034
REMARK  Name = 
REMARK  6 active torsions:
REMARK  status: ('A' for Active; 'I' for Inactive)
REMARK    1  A    between atoms: C_1  and  C_2
REMARK    2  A    between atoms: C_5  and  C_6
REMARK    3  A    between atoms: C_6  and  C_7
REMARK    4  A    between atoms: N_13  and  C_14
REMARK    5  A    between atoms: C_14  and  C_15
REMARK    6  A    between atoms: N_19  and  C_20
REMARK                            x       y       z     vdW  Elec       q    Type
REMARK                         _______ _______ _______ _____ _____    ______ ____
ROOT
ATOM      1  C   UNL     1       1.701   8.050  19.696  0.00  0.00    +0.000 C 
ATOM      2  O   UNL     1       1.838   8.846  18.761  0.00  0.00    +0.000 OA
ATOM      3  N   UNL     1       2.327   6.809  19.691  0.00  0.00    +0.000 N 
ATOM      4  C   UNL     1       2.104   5.712  20.627  0.00  0.00    +0.000 C 
ATOM      5  C   UNL     1       1.423   4.470  20.045  0.00  0.00    +0.000 C 
ATOM      6  C   UNL     1       1.891   3.839  18.720  0.00  0.00    +0.000 C 
ATOM      7  N   UNL     1       3.179   4.175  18.105  0.00  0.00    +0.000 NA
ATOM      8  C   UNL     1       3.210   5.584  17.683  0.00  0.00    +0.000 C 
ATOM      9  C   UNL     1       3.444   6.641  18.761  0.00  0.00    +0.000 C 
ENDROOT
BRANCH   1  10
ATOM     10  C   UNL     1       0.874   8.477  20.896  0.00  0.00    +0.000 C 
BRANCH  10  15
ATOM     11  C   UNL     1      -1.278  13.809  20.829  0.00  0.00    +0.000 C 
ATOM     12  C   UNL     1      -0.719  12.419  20.775  0.00  0.00    +0.000 A 
ATOM     13  C   UNL     1      -1.278  11.454  19.943  0.00  0.00    +0.000 A 
ATOM     14  C   UNL     1      -0.749  10.166  19.955  0.00  0.00    +0.000 A 
ATOM     15  C   UNL     1       0.325   9.868  20.792  0.00  0.00    +0.000 A 
ATOM     16  C   UNL     1       0.823  10.900  21.583  0.00  0.00    +0.000 A 
ATOM     17  N   UNL     1       0.327  12.158  21.588  0.00  0.00    +0.000 NA
ENDBRANCH  10  15
ENDBRANCH   1  10
BRANCH   7  18
ATOM     18  C   UNL     1       4.334   3.695  18.881  0.00  0.00    +0.000 C 
BRANCH  18  19
ATOM     19  C   UNL     1       5.651   4.390  18.636  0.00  0.00    +0.000 A 
ATOM     20  N   UNL     1       6.319   5.046  19.574  0.00  0.00    +0.000 NA
ATOM     21  C   UNL     1       7.449   5.528  18.979  0.00  0.00    +0.000 A 
ATOM     22  C   UNL     1       7.492   5.160  17.661  0.00  0.00    +0.000 A 
ATOM     23  N   UNL     1       6.350   4.435  17.448  0.00  0.00    +0.000 N 
ATOM     24  C   UNL     1       5.978   3.849  16.180  0.00  0.00    +0.000 C 
ENDBRANCH  18  19
ENDBRANCH   7  18
TORSDOF 4
ENDMDL
MODEL 5
REMARK VINA RESULT:      -7.3      2.128      9.095
REMARK  Name = 
REMARK  6 active torsions:
REMARK  status: ('A' for Active; 'I' for Inactive)
REMARK    1  A    between atoms: C_1  and  C_2
REMARK    2  A    between atoms: C_5  and  C_6
REMARK    3  A    between atoms: C_6  and  C_7
REMARK    4  A    between atoms: N_13  and  C_14
REMARK    5  A    between atoms: C_14  and  C_15
REMARK    6  A    between atoms: N_19  and  C_20
REMARK                            x       y       z     vdW  Elec       q    Type
REMARK                         _______ _______ _______ _____ _____    ______ ____
ROOT
ATOM      1  C   UNL     1       1.835   7.270  19.863  0.00  0.00    +0.000 C 
ATOM      2  O   UNL     1       1.607   6.438  20.749  0.00  0.00    +0.000 OA
ATOM      3  N   UNL     1       1.471   8.603  20.007  0.00  0.00    +0.000 N 
ATOM      4  C   UNL     1       1.509   9.637  18.979  0.00  0.00    +0.000 C 
ATOM      5  C   UNL     1       0.147  10.155  18.507  0.00  0.00    +0.000 C 
ATOM      6  C   UNL     1      -0.954  10.558  19.508  0.00  0.00    +0.000 C 
ATOM      7  N   UNL     1      -0.677  10.773  20.931  0.00  0.00    +0.000 NA
ATOM      8  C   UNL     1      -0.258   9.522  21.582  0.00  0.00    +0.000 C 
ATOM      9  C   UNL     1       1.182   9.061  21.368  0.00  0.00    +0.000 C 
ENDROOT
BRANCH   1  10
ATOM     10  C   UNL     1       2.582   6.819  18.620  0.00  0.00    +0.000 C 
BRANCH  10  15
ATOM     11  C   UNL     1       3.764   1.203  18.238  0.00  0.00    +0.000 C 
ATOM     12  C   UNL     1       3.388   2.650  18.352  0.00  0.00    +0.000 A 
ATOM     13  C   UNL     1       2.241   3.143  17.738  0.00  0.00    +0.000 A 
ATOM     14  C   UNL     1       1.953   4.502  17.839  0.00  0.00    +0.000 A 
ATOM     15  C   UNL     1       2.810   5.338  18.552  0.00  0.00    +0.000 A 
ATOM     16  C   UNL     1       3.929   4.755  19.140  0.00  0.00    +0.000 A 
ATOM     17  N   UNL     1       4.230   3.438  19.056  0.00  0.00    +0.000 NA
ENDBRANCH  10  15
ENDBRANCH   1  10
BRANCH   7  18
ATOM     18  C   UNL     1       0.157  11.959  21.187  0.00  0.00    +0.000 C 
BRANCH  18  19
ATOM     19  C   UNL     1      -0.481  13.081  21.968  0.00  0.00    +0.000 A 
ATOM     20  N   UNL     1      -0.609  13.077  23.286  0.00  0.00    +0.000 NA
ATOM     21  C   UNL     1      -1.224  14.249  23.620  0.00  0.00    +0.000 A 
ATOM     22  C   UNL     1      -1.473  14.996  22.501  0.00  0.00    +0.000 A 
ATOM     23  N   UNL     1      -0.997  14.252  21.453  0.00  0.00    +0.000 N 
ATOM     24  C   UNL     1      -1.057  14.660  20.068  0.00  0.00    +0.000 C 
ENDBRANCH  18  19
ENDBRANCH   7  18
TORSDOF 4
ENDMDL
MODEL 6
REMARK VINA RESULT:      -7.2      2.584      8.251
REMARK  Name = 
REMARK  6 active torsions:
REMARK  status: ('A' for Active; 'I' for Inactive)
REMARK    1  A    between atoms: C_1  and  C_2
REMARK    2  A    between atoms: C_5  and  C_6
REMARK    3  A    between atoms: C_6  and  C_7
REMARK    4  A    between atoms: N_13  and  C_14
REMARK    5  A    between atoms: C_14  and  C_15
REMARK    6  A    between atoms: N_19  and  C_20
REMARK                            x       y       z     vdW  Elec       q    Type
REMARK                         _______ _______ _______ _____ _____    ______ ____
ROOT
ATOM      1  C   UNL     1       1.838   6.520  19.617  0.00  0.00    +0.000 C 
ATOM      2  O   UNL     1       1.505   5.799  20.564  0.00  0.00    +0.000 OA
ATOM      3  N   UNL     1       1.699   7.901  19.672  0.00  0.00    +0.000 N 
ATOM      4  C   UNL     1       1.874   8.843  18.572  0.00  0.00    +0.000 C 
ATOM      5  C   UNL     1       0.601   9.543  18.088  0.00  0.00    +0.000 C 
ATOM      6  C   UNL     1      -0.391  10.188  19.076  0.00  0.00    +0.000 C 
ATOM      7  N   UNL     1      -0.042  10.451  20.475  0.00  0.00    +0.000 NA
ATOM      8  C   UNL     1       0.188   9.195  21.206  0.00  0.00    +0.000 C 
ATOM      9  C   UNL     1       1.528   8.491  21.001  0.00  0.00    +0.000 C 
ENDROOT
BRANCH   1  10
ATOM     10  C   UNL     1       2.466   5.869  18.397  0.00  0.00    +0.000 C 
BRANCH  10  15
ATOM     11  C   UNL     1       8.188   5.660  18.939  0.00  0.00    +0.000 C 
ATOM     12  C   UNL     1       6.705   5.701  18.728  0.00  0.00    +0.000 A 
ATOM     13  C   UNL     1       6.152   6.396  17.656  0.00  0.00    +0.000 A 
ATOM     14  C   UNL     1       4.766   6.437  17.523  0.00  0.00    +0.000 A 
ATOM     15  C   UNL     1       3.962   5.785  18.456  0.00  0.00    +0.000 A 
ATOM     16  C   UNL     1       4.604   5.108  19.490  0.00  0.00    +0.000 A 
ATOM     17  N   UNL     1       5.948   5.053  19.640  0.00  0.00    +0.000 NA
ENDBRANCH  10  15
ENDBRANCH   1  10
BRANCH   7  18
ATOM     18  C   UNL     1       0.980  11.499  20.631  0.00  0.00    +0.000 C 
BRANCH  18  19
ATOM     19  C   UNL     1       0.635  12.867  20.096  0.00  0.00    +0.000 A 
ATOM     20  N   UNL     1      -0.364  13.604  20.559  0.00  0.00    +0.000 NA
ATOM     21  C   UNL     1      -0.358  14.763  19.836  0.00  0.00    +0.000 A 
ATOM     22  C   UNL     1       0.661  14.752  18.922  0.00  0.00    +0.000 A 
ATOM     23  N   UNL     1       1.291  13.548  19.092  0.00  0.00    +0.000 N 
ATOM     24  C   UNL     1       2.433  13.108  18.324  0.00  0.00    +0.000 C 
ENDBRANCH  18  19
ENDBRANCH   7  18
TORSDOF 4
ENDMDL
MODEL 7
REMARK VINA RESULT:      -7.1      1.296      1.463
REMARK  Name = 
REMARK  6 active torsions:
REMARK  status: ('A' for Active; 'I' for Inactive)
REMARK    1  A    between atoms: C_1  and  C_2
REMARK    2  A    between atoms: C_5  and  C_6
REMARK    3  A    between atoms: C_6  and  C_7
REMARK    4  A    between atoms: N_13  and  C_14
REMARK    5  A    between atoms: C_14  and  C_15
REMARK    6  A    between atoms: N_19  and  C_20
REMARK                            x       y       z     vdW  Elec       q    Type
REMARK                         _______ _______ _______ _____ _____    ______ ____
ROOT
ATOM      1  C   UNL     1       1.681   8.118  19.659  0.00  0.00    +0.000 C 
ATOM      2  O   UNL     1       1.812   8.891  18.703  0.00  0.00    +0.000 OA
ATOM      3  N   UNL     1       2.310   6.880  19.683  0.00  0.00    +0.000 N 
ATOM      4  C   UNL     1       2.094   5.806  20.647  0.00  0.00    +0.000 C 
ATOM      5  C   UNL     1       1.415   4.548  20.098  0.00  0.00    +0.000 C 
ATOM      6  C   UNL     1       1.881   3.885  18.787  0.00  0.00    +0.000 C 
ATOM      7  N   UNL     1       3.166   4.210  18.161  0.00  0.00    +0.000 NA
ATOM      8  C   UNL     1       3.192   5.608  17.703  0.00  0.00    +0.000 C 
ATOM      9  C   UNL     1       3.426   6.692  18.754  0.00  0.00    +0.000 C 
ENDROOT
BRANCH   1  10
ATOM     10  C   UNL     1       0.856   8.572  20.850  0.00  0.00    +0.000 C 
BRANCH  10  15
ATOM     11  C   UNL     1      -1.282  13.840  19.981  0.00  0.00    +0.000 C 
ATOM     12  C   UNL     1      -0.717  12.483  20.277  0.00  0.00    +0.000 A 
ATOM     13  C   UNL     1       0.423  12.337  21.061  0.00  0.00    +0.000 A 
ATOM     14  C   UNL     1       0.934  11.059  21.277  0.00  0.00    +0.000 A 
ATOM     15  C   UNL     1       0.297   9.956  20.711  0.00  0.00    +0.000 A 
ATOM     16  C   UNL     1      -0.843  10.199  19.948  0.00  0.00    +0.000 A 
ATOM     17  N   UNL     1      -1.358  11.430  19.725  0.00  0.00    +0.000 NA
ENDBRANCH  10  15
ENDBRANCH   1  10
BRANCH   7  18
ATOM     18  C   UNL     1       4.326   3.753  18.945  0.00  0.00    +0.000 C 
BRANCH  18  19
ATOM     19  C   UNL     1       5.646   4.425  18.657  0.00  0.00    +0.000 A 
ATOM     20  N   UNL     1       6.335   5.102  19.563  0.00  0.00    +0.000 NA
ATOM     21  C   UNL     1       7.461   5.553  18.935  0.00  0.00    +0.000 A 
ATOM     22  C   UNL     1       7.479   5.143  17.629  0.00  0.00    +0.000 A 
ATOM     23  N   UNL     1       6.325   4.425  17.457  0.00  0.00    +0.000 N 
ATOM     24  C   UNL     1       5.927   3.803  16.215  0.00  0.00    +0.000 C 
ENDBRANCH  18  19
ENDBRANCH   7  18
TORSDOF 4
ENDMDL
MODEL 8
REMARK VINA RESULT:      -7.1      2.434      8.847
REMARK  Name = 
REMARK  6 active torsions:
REMARK  status: ('A' for Active; 'I' for Inactive)
REMARK    1  A    between atoms: C_1  and  C_2
REMARK    2  A    between atoms: C_5  and  C_6
REMARK    3  A    between atoms: C_6  and  C_7
REMARK    4  A    between atoms: N_13  and  C_14
REMARK    5  A    between atoms: C_14  and  C_15
REMARK    6  A    between atoms: N_19  and  C_20
REMARK                            x       y       z     vdW  Elec       q    Type
REMARK                         _______ _______ _______ _____ _____    ______ ____
ROOT
ATOM      1  C   UNL     1       1.810   7.473  19.913  0.00  0.00    +0.000 C 
ATOM      2  O   UNL     1       1.602   6.652  20.813  0.00  0.00    +0.000 OA
ATOM      3  N   UNL     1       1.450   8.807  20.050  0.00  0.00    +0.000 N 
ATOM      4  C   UNL     1       1.465   9.830  19.009  0.00  0.00    +0.000 C 
ATOM      5  C   UNL     1       0.093  10.343  18.563  0.00  0.00    +0.000 C 
ATOM      6  C   UNL     1      -0.985  10.759  19.583  0.00  0.00    +0.000 C 
ATOM      7  N   UNL     1      -0.676  10.990  20.997  0.00  0.00    +0.000 NA
ATOM      8  C   UNL     1      -0.243   9.746  21.653  0.00  0.00    +0.000 C 
ATOM      9  C   UNL     1       1.193   9.281  21.411  0.00  0.00    +0.000 C 
ENDROOT
BRANCH   1  10
ATOM     10  C   UNL     1       2.528   7.007  18.659  0.00  0.00    +0.000 C 
BRANCH  10  15
ATOM     11  C   UNL     1       3.649   1.378  18.288  0.00  0.00    +0.000 C 
ATOM     12  C   UNL     1       3.289   2.829  18.401  0.00  0.00    +0.000 A 
ATOM     13  C   UNL     1       2.131   3.328  17.812  0.00  0.00    +0.000 A 
ATOM     14  C   UNL     1       1.859   4.690  17.911  0.00  0.00    +0.000 A 
ATOM     15  C   UNL     1       2.741   5.524  18.596  0.00  0.00    +0.000 A 
ATOM     16  C   UNL     1       3.869   4.934  19.160  0.00  0.00    +0.000 A 
ATOM     17  N   UNL     1       4.155   3.614  19.078  0.00  0.00    +0.000 NA
ENDBRANCH  10  15
ENDBRANCH   1  10
BRANCH   7  18
ATOM     18  C   UNL     1       0.164  12.178  21.220  0.00  0.00    +0.000 C 
BRANCH  18  19
ATOM     19  C   UNL     1      -0.344  13.483  20.660  0.00  0.00    +0.000 A 
ATOM     20  N   UNL     1      -1.403  14.122  21.136  0.00  0.00    +0.000 NA
ATOM     21  C   UNL     1      -1.546  15.251  20.381  0.00  0.00    +0.000 A 
ATOM     22  C   UNL     1      -0.562  15.322  19.433  0.00  0.00    +0.000 A 
ATOM     23  N   UNL     1       0.201  14.199  19.615  0.00  0.00    +0.000 N 
ATOM     24  C   UNL     1       1.359  13.860  18.820  0.00  0.00    +0.000 C 
ENDBRANCH  18  19
ENDBRANCH   7  18
TORSDOF 4
ENDMDL
MODEL 9
REMARK VINA RESULT:      -7.1      4.064      7.058
REMARK  Name = 
REMARK  6 active torsions:
REMARK  status: ('A' for Active; 'I' for Inactive)
REMARK    1  A    between atoms: C_1  and  C_2
REMARK    2  A    between atoms: C_5  and  C_6
REMARK    3  A    between atoms: C_6  and  C_7
REMARK    4  A    between atoms: N_13  and  C_14
REMARK    5  A    between atoms: C_14  and  C_15
REMARK    6  A    between atoms: N_19  and  C_20
REMARK                            x       y       z     vdW  Elec       q    Type
REMARK                         _______ _______ _______ _____ _____    ______ ____
ROOT
ATOM      1  C   UNL     1       7.629   7.346  18.050  0.00  0.00    +0.000 C 
ATOM      2  O   UNL     1       8.431   6.948  18.902  0.00  0.00    +0.000 OA
ATOM      3  N   UNL     1       6.431   6.683  17.815  0.00  0.00    +0.000 N 
ATOM      4  C   UNL     1       5.492   6.931  16.726  0.00  0.00    +0.000 C 
ATOM      5  C   UNL     1       5.380   5.818  15.679  0.00  0.00    +0.000 C 
ATOM      6  C   UNL     1       5.214   4.341  16.086  0.00  0.00    +0.000 C 
ATOM      7  N   UNL     1       4.841   3.942  17.447  0.00  0.00    +0.000 NA
ATOM      8  C   UNL     1       5.894   4.302  18.409  0.00  0.00    +0.000 C 
ATOM      9  C   UNL     1       5.976   5.761  18.856  0.00  0.00    +0.000 C 
ENDROOT
BRANCH   1  10
ATOM     10  C   UNL     1       7.950   8.623  17.293  0.00  0.00    +0.000 C 
BRANCH  10  15
ATOM     11  C   UNL     1      10.025  12.679  20.804  0.00  0.00    +0.000 C 
ATOM     12  C   UNL     1       9.525  11.648  19.836  0.00  0.00    +0.000 A 
ATOM     13  C   UNL     1       9.138  12.003  18.548  0.00  0.00    +0.000 A 
ATOM     14  C   UNL     1       8.644  11.016  17.697  0.00  0.00    +0.000 A 
ATOM     15  C   UNL     1       8.549   9.701  18.146  0.00  0.00    +0.000 A 
ATOM     16  C   UNL     1       8.968   9.439  19.448  0.00  0.00    +0.000 A 
ATOM     17  N   UNL     1       9.452  10.379  20.292  0.00  0.00    +0.000 NA
ENDBRANCH  10  15
ENDBRANCH   1  10
BRANCH   7  18
ATOM     18  C   UNL     1       3.464   4.321  17.806  0.00  0.00    +0.000 C 
BRANCH  18  19
ATOM     19  C   UNL     1       2.998   3.949  19.191  0.00  0.00    +0.000 A 
ATOM     20  N   UNL     1       3.044   2.716  19.674  0.00  0.00    +0.000 NA
ATOM     21  C   UNL     1       2.545   2.779  20.944  0.00  0.00    +0.000 A 
ATOM     22  C   UNL     1       2.194   4.064  21.259  0.00  0.00    +0.000 A 
ATOM     23  N   UNL     1       2.486   4.805  20.144  0.00  0.00    +0.000 N 
ATOM     24  C   UNL     1       2.268   6.228  20.030  0.00  0.00    +0.000 C 
ENDBRANCH  18  19
ENDBRANCH   7  18
TORSDOF 4
ENDMDL
