MODEL 1
REMARK VINA RESULT:      -8.3      0.000      0.000
REMARK  Name = 
REMARK  3 active torsions:
REMARK  status: ('A' for Active; 'I' for Inactive)
REMARK    1  A    between atoms: C_8  and  C_9
REMARK    2  A    between atoms: C_9  and  N_10
REMARK    3  A    between atoms: N_10  and  C_11
REMARK                            x       y       z     vdW  Elec       q    Type
REMARK                         _______ _______ _______ _____ _____    ______ ____
ROOT
ATOM      1  N   UNL     1       0.879   3.337  20.935  0.00  0.00    +0.000 N 
ATOM      2  C   UNL     1       2.095   3.471  20.304  0.00  0.00    +0.000 A 
ATOM      3  N   UNL     1       3.010   2.526  20.512  0.00  0.00    +0.000 NA
ATOM      4  C   UNL     1       4.197   2.695  19.901  0.00  0.00    +0.000 A 
ATOM      5  N   UNL     1       5.175   1.733  20.210  0.00  0.00    +0.000 N 
ATOM      6  C   UNL     1       4.514   3.772  19.071  0.00  0.00    +0.000 A 
ATOM      7  N   UNL     1       5.718   3.914  18.441  0.00  0.00    +0.000 NA
ATOM      8  C   UNL     1       5.902   4.999  17.650  0.00  0.00    +0.000 A 
ATOM      9  C   UNL     1       4.915   5.959  17.482  0.00  0.00    +0.000 A 
ATOM     10  C   UNL     1       3.687   5.774  18.117  0.00  0.00    +0.000 A 
ATOM     11  C   UNL     1       3.457   4.672  18.925  0.00  0.00    +0.000 A 
ATOM     12  N   UNL     1       2.259   4.529  19.512  0.00  0.00    +0.000 NA
ATOM     13  H   UNL     1       0.702   2.374  21.180  0.00  0.00    +0.000 HD
ATOM     14  H   UNL     1       0.159   3.842  20.439  0.00  0.00    +0.000 HD
ATOM     15  H   UNL     1       4.743   0.962  20.707  0.00  0.00    +0.000 HD
ATOM     16  H   UNL     1       5.709   1.472  19.387  0.00  0.00    +0.000 HD
ENDROOT
BRANCH   8  17
ATOM     17  C   UNL     1       7.218   5.121  16.908  0.00  0.00    +0.000 C 
BRANCH  17  18
ATOM     18  N   UNL     1       7.060   5.852  15.647  0.00  0.00    +0.000 N 
ATOM     19  H   UNL     1       7.842   6.492  15.516  0.00  0.00    +0.000 HD
BRANCH  18  20
ATOM     20  C   UNL     1       6.852   5.060  14.504  0.00  0.00    +0.000 A 
ATOM     21  C   UNL     1       5.717   4.253  14.333  0.00  0.00    +0.000 A 
ATOM     22  C   UNL     1       5.520   3.507  13.168  0.00  0.00    +0.000 A 
ATOM     23  C   UNL     1       6.440   3.585  12.130  0.00  0.00    +0.000 A 
ATOM     24  C   UNL     1       7.542   4.428  12.250  0.00  0.00    +0.000 A 
ATOM     25  C   UNL     1       7.735   5.172  13.421  0.00  0.00    +0.000 A 
ENDBRANCH  18  20
ENDBRANCH  17  18
ENDBRANCH   8  17
TORSDOF 3
ENDMDL
MODEL 2
REMARK VINA RESULT:      -8.2      2.761      6.466
REMARK  Name = 
REMARK  3 active torsions:
REMARK  status: ('A' for Active; 'I' for Inactive)
REMARK    1  A    between atoms: C_8  and  C_9
REMARK    2  A    between atoms: C_9  and  N_10
REMARK    3  A    between atoms: N_10  and  C_11
REMARK                            x       y       z     vdW  Elec       q    Type
REMARK                         _______ _______ _______ _____ _____    ______ ____
ROOT
ATOM      1  N   UNL     1       8.504   9.399  17.813  0.00  0.00    +0.000 N 
ATOM      2  C   UNL     1       7.903   8.162  17.891  0.00  0.00    +0.000 A 
ATOM      3  N   UNL     1       8.340   7.317  18.822  0.00  0.00    +0.000 NA
ATOM      4  C   UNL     1       7.750   6.107  18.860  0.00  0.00    +0.000 A 
ATOM      5  N   UNL     1       8.291   5.203  19.789  0.00  0.00    +0.000 N 
ATOM      6  C   UNL     1       6.721   5.703  18.007  0.00  0.00    +0.000 A 
ATOM      7  N   UNL     1       6.118   4.478  18.076  0.00  0.00    +0.000 NA
ATOM      8  C   UNL     1       5.121   4.205  17.200  0.00  0.00    +0.000 A 
ATOM      9  C   UNL     1       4.718   5.123  16.241  0.00  0.00    +0.000 A 
ATOM     10  C   UNL     1       5.333   6.374  16.212  0.00  0.00    +0.000 A 
ATOM     11  C   UNL     1       6.348   6.694  17.098  0.00  0.00    +0.000 A 
ATOM     12  N   UNL     1       6.909   7.912  17.040  0.00  0.00    +0.000 NA
ATOM     13  H   UNL     1       8.943   9.644  18.689  0.00  0.00    +0.000 HD
ATOM     14  H   UNL     1       7.887  10.072  17.384  0.00  0.00    +0.000 HD
ATOM     15  H   UNL     1       8.926   5.695  20.409  0.00  0.00    +0.000 HD
ATOM     16  H   UNL     1       7.562   4.669  20.252  0.00  0.00    +0.000 HD
ENDROOT
BRANCH   8  17
ATOM     17  C   UNL     1       4.418   2.868  17.319  0.00  0.00    +0.000 C 
BRANCH  17  18
ATOM     18  N   UNL     1       4.476   2.350  18.690  0.00  0.00    +0.000 N 
ATOM     19  H   UNL     1       5.295   2.723  19.168  0.00  0.00    +0.000 HD
BRANCH  18  20
ATOM     20  C   UNL     1       3.312   2.529  19.459  0.00  0.00    +0.000 A 
ATOM     21  C   UNL     1       3.343   2.753  20.844  0.00  0.00    +0.000 A 
ATOM     22  C   UNL     1       2.171   2.966  21.576  0.00  0.00    +0.000 A 
ATOM     23  C   UNL     1       0.943   2.997  20.927  0.00  0.00    +0.000 A 
ATOM     24  C   UNL     1       0.893   2.840  19.544  0.00  0.00    +0.000 A 
ATOM     25  C   UNL     1       2.070   2.625  18.817  0.00  0.00    +0.000 A 
ENDBRANCH  18  20
ENDBRANCH  17  18
ENDBRANCH   8  17
TORSDOF 3
ENDMDL
MODEL 3
REMARK VINA RESULT:      -8.2      2.768      6.483
REMARK  Name = 
REMARK  3 active torsions:
REMARK  status: ('A' for Active; 'I' for Inactive)
REMARK    1  A    between atoms: C_8  and  C_9
REMARK    2  A    between atoms: C_9  and  N_10
REMARK    3  A    between atoms: N_10  and  C_11
REMARK                            x       y       z     vdW  Elec       q    Type
REMARK                         _______ _______ _______ _____ _____    ______ ____
ROOT
ATOM      1  N   UNL     1       8.565   9.477  17.869  0.00  0.00    +0.000 N 
ATOM      2  C   UNL     1       7.951   8.246  17.931  0.00  0.00    +0.000 A 
ATOM      3  N   UNL     1       8.375   7.386  18.854  0.00  0.00    +0.000 NA
ATOM      4  C   UNL     1       7.772   6.182  18.875  0.00  0.00    +0.000 A 
ATOM      5  N   UNL     1       8.300   5.261  19.797  0.00  0.00    +0.000 N 
ATOM      6  C   UNL     1       6.744   5.797  18.013  0.00  0.00    +0.000 A 
ATOM      7  N   UNL     1       6.128   4.578  18.065  0.00  0.00    +0.000 NA
ATOM      8  C   UNL     1       5.133   4.326  17.182  0.00  0.00    +0.000 A 
ATOM      9  C   UNL     1       4.743   5.259  16.231  0.00  0.00    +0.000 A 
ATOM     10  C   UNL     1       5.371   6.503  16.219  0.00  0.00    +0.000 A 
ATOM     11  C   UNL     1       6.385   6.803  17.113  0.00  0.00    +0.000 A 
ATOM     12  N   UNL     1       6.959   8.015  17.072  0.00  0.00    +0.000 NA
ATOM     13  H   UNL     1       9.002   9.708  18.750  0.00  0.00    +0.000 HD
ATOM     14  H   UNL     1       7.956  10.162  17.446  0.00  0.00    +0.000 HD
ATOM     15  H   UNL     1       8.937   5.740  20.424  0.00  0.00    +0.000 HD
ATOM     16  H   UNL     1       7.564   4.729  20.250  0.00  0.00    +0.000 HD
ENDROOT
BRANCH   8  17
ATOM     17  C   UNL     1       4.415   2.994  17.282  0.00  0.00    +0.000 C 
BRANCH  17  18
ATOM     18  N   UNL     1       4.462   2.460  18.647  0.00  0.00    +0.000 N 
ATOM     19  H   UNL     1       5.303   2.789  19.120  0.00  0.00    +0.000 HD
BRANCH  18  20
ATOM     20  C   UNL     1       3.315   2.686  19.430  0.00  0.00    +0.000 A 
ATOM     21  C   UNL     1       2.041   2.878  18.875  0.00  0.00    +0.000 A 
ATOM     22  C   UNL     1       0.914   3.061  19.681  0.00  0.00    +0.000 A 
ATOM     23  C   UNL     1       1.034   3.016  21.064  0.00  0.00    +0.000 A 
ATOM     24  C   UNL     1       2.278   2.764  21.637  0.00  0.00    +0.000 A 
ATOM     25  C   UNL     1       3.404   2.582  20.825  0.00  0.00    +0.000 A 
ENDBRANCH  18  20
ENDBRANCH  17  18
ENDBRANCH   8  17
TORSDOF 3
ENDMDL
MODEL 4
REMARK VINA RESULT:      -8.1      2.210      3.393
REMARK  Name = 
REMARK  3 active torsions:
REMARK  status: ('A' for Active; 'I' for Inactive)
REMARK    1  A    between atoms: C_8  and  C_9
REMARK    2  A    between atoms: C_9  and  N_10
REMARK    3  A    between atoms: N_10  and  C_11
REMARK                            x       y       z     vdW  Elec       q    Type
REMARK                         _______ _______ _______ _____ _____    ______ ____
ROOT
ATOM      1  N   UNL     1       0.995   2.529  22.514  0.00  0.00    +0.000 N 
ATOM      2  C   UNL     1       1.866   2.700  21.460  0.00  0.00    +0.000 A 
ATOM      3  N   UNL     1       3.053   2.102  21.532  0.00  0.00    +0.000 NA
ATOM      4  C   UNL     1       3.892   2.306  20.500  0.00  0.00    +0.000 A 
ATOM      5  N   UNL     1       5.171   1.740  20.642  0.00  0.00    +0.000 N 
ATOM      6  C   UNL     1       3.591   3.081  19.378  0.00  0.00    +0.000 A 
ATOM      7  N   UNL     1       4.448   3.258  18.328  0.00  0.00    +0.000 NA
ATOM      8  C   UNL     1       4.037   4.024  17.289  0.00  0.00    +0.000 A 
ATOM      9  C   UNL     1       2.791   4.634  17.277  0.00  0.00    +0.000 A 
ATOM     10  C   UNL     1       1.929   4.414  18.349  0.00  0.00    +0.000 A 
ATOM     11  C   UNL     1       2.308   3.629  19.425  0.00  0.00    +0.000 A 
ATOM     12  N   UNL     1       1.444   3.437  20.434  0.00  0.00    +0.000 NA
ATOM     13  H   UNL     1       1.215   1.691  23.032  0.00  0.00    +0.000 HD
ATOM     14  H   UNL     1       0.040   2.668  22.217  0.00  0.00    +0.000 HD
ATOM     15  H   UNL     1       5.173   1.108  21.436  0.00  0.00    +0.000 HD
ATOM     16  H   UNL     1       5.496   1.339  19.768  0.00  0.00    +0.000 HD
ENDROOT
BRANCH   8  17
ATOM     17  C   UNL     1       4.970   4.170  16.102  0.00  0.00    +0.000 C 
BRANCH  17  18
ATOM     18  N   UNL     1       6.371   3.989  16.494  0.00  0.00    +0.000 N 
ATOM     19  H   UNL     1       6.921   3.690  15.690  0.00  0.00    +0.000 HD
BRANCH  18  20
ATOM     20  C   UNL     1       6.970   5.085  17.142  0.00  0.00    +0.000 A 
ATOM     21  C   UNL     1       6.893   6.396  16.647  0.00  0.00    +0.000 A 
ATOM     22  C   UNL     1       7.465   7.470  17.334  0.00  0.00    +0.000 A 
ATOM     23  C   UNL     1       8.095   7.258  18.554  0.00  0.00    +0.000 A 
ATOM     24  C   UNL     1       8.128   5.976  19.096  0.00  0.00    +0.000 A 
ATOM     25  C   UNL     1       7.554   4.903  18.403  0.00  0.00    +0.000 A 
ENDBRANCH  18  20
ENDBRANCH  17  18
ENDBRANCH   8  17
TORSDOF 3
ENDMDL
MODEL 5
REMARK VINA RESULT:      -8.0      0.294      1.112
REMARK  Name = 
REMARK  3 active torsions:
REMARK  status: ('A' for Active; 'I' for Inactive)
REMARK    1  A    between atoms: C_8  and  C_9
REMARK    2  A    between atoms: C_9  and  N_10
REMARK    3  A    between atoms: N_10  and  C_11
REMARK                            x       y       z     vdW  Elec       q    Type
REMARK                         _______ _______ _______ _____ _____    ______ ____
ROOT
ATOM      1  N   UNL     1       0.633   3.291  20.509  0.00  0.00    +0.000 N 
ATOM      2  C   UNL     1       1.873   3.433  19.927  0.00  0.00    +0.000 A 
ATOM      3  N   UNL     1       2.769   2.471  20.133  0.00  0.00    +0.000 NA
ATOM      4  C   UNL     1       3.980   2.649  19.571  0.00  0.00    +0.000 A 
ATOM      5  N   UNL     1       4.936   1.666  19.879  0.00  0.00    +0.000 N 
ATOM      6  C   UNL     1       4.337   3.752  18.794  0.00  0.00    +0.000 A 
ATOM      7  N   UNL     1       5.564   3.904  18.213  0.00  0.00    +0.000 NA
ATOM      8  C   UNL     1       5.788   5.014  17.469  0.00  0.00    +0.000 A 
ATOM      9  C   UNL     1       4.817   5.991  17.302  0.00  0.00    +0.000 A 
ATOM     10  C   UNL     1       3.566   5.797  17.885  0.00  0.00    +0.000 A 
ATOM     11  C   UNL     1       3.295   4.669  18.643  0.00  0.00    +0.000 A 
ATOM     12  N   UNL     1       2.075   4.518  19.181  0.00  0.00    +0.000 NA
ATOM     13  H   UNL     1       0.438   2.321  20.712  0.00  0.00    +0.000 HD
ATOM     14  H   UNL     1      -0.063   3.822  20.007  0.00  0.00    +0.000 HD
ATOM     15  H   UNL     1       4.479   0.881  20.332  0.00  0.00    +0.000 HD
ATOM     16  H   UNL     1       5.497   1.429  19.066  0.00  0.00    +0.000 HD
ENDROOT
BRANCH   8  17
ATOM     17  C   UNL     1       7.132   5.149  16.781  0.00  0.00    +0.000 C 
BRANCH  17  18
ATOM     18  N   UNL     1       7.019   5.895  15.523  0.00  0.00    +0.000 N 
ATOM     19  H   UNL     1       7.825   6.510  15.411  0.00  0.00    +0.000 HD
BRANCH  18  20
ATOM     20  C   UNL     1       6.805   5.120  14.370  0.00  0.00    +0.000 A 
ATOM     21  C   UNL     1       7.690   5.117  13.281  0.00  0.00    +0.000 A 
ATOM     22  C   UNL     1       7.471   4.305  12.164  0.00  0.00    +0.000 A 
ATOM     23  C   UNL     1       6.378   3.448  12.132  0.00  0.00    +0.000 A 
ATOM     24  C   UNL     1       5.521   3.387  13.229  0.00  0.00    +0.000 A 
ATOM     25  C   UNL     1       5.745   4.204  14.344  0.00  0.00    +0.000 A 
ENDBRANCH  18  20
ENDBRANCH  17  18
ENDBRANCH   8  17
TORSDOF 3
ENDMDL
MODEL 6
REMARK VINA RESULT:      -7.8      2.226      3.785
REMARK  Name = 
REMARK  3 active torsions:
REMARK  status: ('A' for Active; 'I' for Inactive)
REMARK    1  A    between atoms: C_8  and  C_9
REMARK    2  A    between atoms: C_9  and  N_10
REMARK    3  A    between atoms: N_10  and  C_11
REMARK                            x       y       z     vdW  Elec       q    Type
REMARK                         _______ _______ _______ _____ _____    ______ ____
ROOT
ATOM      1  N   UNL     1       1.415   2.741  22.387  0.00  0.00    +0.000 N 
ATOM      2  C   UNL     1       2.035   3.257  21.271  0.00  0.00    +0.000 A 
ATOM      3  N   UNL     1       2.172   4.579  21.192  0.00  0.00    +0.000 NA
ATOM      4  C   UNL     1       2.761   5.056  20.079  0.00  0.00    +0.000 A 
ATOM      5  N   UNL     1       2.811   6.457  19.979  0.00  0.00    +0.000 N 
ATOM      6  C   UNL     1       3.235   4.263  19.033  0.00  0.00    +0.000 A 
ATOM      7  N   UNL     1       3.850   4.765  17.921  0.00  0.00    +0.000 NA
ATOM      8  C   UNL     1       4.279   3.892  16.978  0.00  0.00    +0.000 A 
ATOM      9  C   UNL     1       4.094   2.523  17.109  0.00  0.00    +0.000 A 
ATOM     10  C   UNL     1       3.486   2.038  18.266  0.00  0.00    +0.000 A 
ATOM     11  C   UNL     1       3.045   2.898  19.258  0.00  0.00    +0.000 A 
ATOM     12  N   UNL     1       2.471   2.389  20.359  0.00  0.00    +0.000 NA
ATOM     13  H   UNL     1       1.469   3.387  23.162  0.00  0.00    +0.000 HD
ATOM     14  H   UNL     1       1.695   1.784  22.544  0.00  0.00    +0.000 HD
ATOM     15  H   UNL     1       2.553   6.868  20.870  0.00  0.00    +0.000 HD
ATOM     16  H   UNL     1       3.700   6.768  19.600  0.00  0.00    +0.000 HD
ENDROOT
BRANCH   8  17
ATOM     17  C   UNL     1       5.012   4.451  15.774  0.00  0.00    +0.000 C 
BRANCH  17  18
ATOM     18  N   UNL     1       6.466   4.346  15.934  0.00  0.00    +0.000 N 
ATOM     19  H   UNL     1       6.919   4.395  15.022  0.00  0.00    +0.000 HD
BRANCH  18  20
ATOM     20  C   UNL     1       7.047   5.249  16.842  0.00  0.00    +0.000 A 
ATOM     21  C   UNL     1       7.088   6.633  16.616  0.00  0.00    +0.000 A 
ATOM     22  C   UNL     1       7.637   7.510  17.556  0.00  0.00    +0.000 A 
ATOM     23  C   UNL     1       8.125   7.020  18.761  0.00  0.00    +0.000 A 
ATOM     24  C   UNL     1       8.037   5.657  19.034  0.00  0.00    +0.000 A 
ATOM     25  C   UNL     1       7.487   4.784  18.088  0.00  0.00    +0.000 A 
ENDBRANCH  18  20
ENDBRANCH  17  18
ENDBRANCH   8  17
TORSDOF 3
ENDMDL
MODEL 7
REMARK VINA RESULT:      -7.7      2.305      3.757
REMARK  Name = 
REMARK  3 active torsions:
REMARK  status: ('A' for Active; 'I' for Inactive)
REMARK    1  A    between atoms: C_8  and  C_9
REMARK    2  A    between atoms: C_9  and  N_10
REMARK    3  A    between atoms: N_10  and  C_11
REMARK                            x       y       z     vdW  Elec       q    Type
REMARK                         _______ _______ _______ _____ _____    ______ ____
ROOT
ATOM      1  N   UNL     1       1.058   2.611  22.299  0.00  0.00    +0.000 N 
ATOM      2  C   UNL     1       1.735   3.132  21.219  0.00  0.00    +0.000 A 
ATOM      3  N   UNL     1       1.926   4.449  21.183  0.00  0.00    +0.000 NA
ATOM      4  C   UNL     1       2.570   4.932  20.104  0.00  0.00    +0.000 A 
ATOM      5  N   UNL     1       2.678   6.332  20.045  0.00  0.00    +0.000 N 
ATOM      6  C   UNL     1       3.049   4.149  19.052  0.00  0.00    +0.000 A 
ATOM      7  N   UNL     1       3.720   4.656  17.975  0.00  0.00    +0.000 NA
ATOM      8  C   UNL     1       4.147   3.793  17.022  0.00  0.00    +0.000 A 
ATOM      9  C   UNL     1       3.905   2.429  17.109  0.00  0.00    +0.000 A 
ATOM     10  C   UNL     1       3.240   1.938  18.231  0.00  0.00    +0.000 A 
ATOM     11  C   UNL     1       2.798   2.787  19.232  0.00  0.00    +0.000 A 
ATOM     12  N   UNL     1       2.168   2.272  20.298  0.00  0.00    +0.000 NA
ATOM     13  H   UNL     1       1.110   3.233  23.093  0.00  0.00    +0.000 HD
ATOM     14  H   UNL     1       1.296   1.640  22.439  0.00  0.00    +0.000 HD
ATOM     15  H   UNL     1       2.405   6.729  20.938  0.00  0.00    +0.000 HD
ATOM     16  H   UNL     1       3.590   6.618  19.704  0.00  0.00    +0.000 HD
ENDROOT
BRANCH   8  17
ATOM     17  C   UNL     1       4.941   4.354  15.860  0.00  0.00    +0.000 C 
BRANCH  17  18
ATOM     18  N   UNL     1       6.385   4.240  16.090  0.00  0.00    +0.000 N 
ATOM     19  H   UNL     1       6.880   4.251  15.199  0.00  0.00    +0.000 HD
BRANCH  18  20
ATOM     20  C   UNL     1       6.935   5.169  16.991  0.00  0.00    +0.000 A 
ATOM     21  C   UNL     1       7.468   4.798  18.235  0.00  0.00    +0.000 A 
ATOM     22  C   UNL     1       8.044   5.739  19.092  0.00  0.00    +0.000 A 
ATOM     23  C   UNL     1       8.133   7.070  18.704  0.00  0.00    +0.000 A 
ATOM     24  C   UNL     1       7.668   7.451  17.447  0.00  0.00    +0.000 A 
ATOM     25  C   UNL     1       7.091   6.504  16.593  0.00  0.00    +0.000 A 
ENDBRANCH  18  20
ENDBRANCH  17  18
ENDBRANCH   8  17
TORSDOF 3
ENDMDL
MODEL 8
REMARK VINA RESULT:      -7.7      1.816      3.304
REMARK  Name = 
REMARK  3 active torsions:
REMARK  status: ('A' for Active; 'I' for Inactive)
REMARK    1  A    between atoms: C_8  and  C_9
REMARK    2  A    between atoms: C_9  and  N_10
REMARK    3  A    between atoms: N_10  and  C_11
REMARK                            x       y       z     vdW  Elec       q    Type
REMARK                         _______ _______ _______ _____ _____    ______ ____
ROOT
ATOM      1  N   UNL     1       0.727   3.081  20.939  0.00  0.00    +0.000 N 
ATOM      2  C   UNL     1       1.660   3.141  19.928  0.00  0.00    +0.000 A 
ATOM      3  N   UNL     1       2.232   2.002  19.543  0.00  0.00    +0.000 NA
ATOM      4  C   UNL     1       3.158   2.095  18.570  0.00  0.00    +0.000 A 
ATOM      5  N   UNL     1       3.812   0.893  18.246  0.00  0.00    +0.000 N 
ATOM      6  C   UNL     1       3.535   3.286  17.947  0.00  0.00    +0.000 A 
ATOM      7  N   UNL     1       4.461   3.356  16.945  0.00  0.00    +0.000 NA
ATOM      8  C   UNL     1       4.734   4.571  16.411  0.00  0.00    +0.000 A 
ATOM      9  C   UNL     1       4.115   5.727  16.864  0.00  0.00    +0.000 A 
ATOM     10  C   UNL     1       3.156   5.620  17.870  0.00  0.00    +0.000 A 
ATOM     11  C   UNL     1       2.841   4.395  18.434  0.00  0.00    +0.000 A 
ATOM     12  N   UNL     1       1.907   4.337  19.395  0.00  0.00    +0.000 NA
ATOM     13  H   UNL     1       0.330   2.155  21.010  0.00  0.00    +0.000 HD
ATOM     14  H   UNL     1       0.095   3.867  20.892  0.00  0.00    +0.000 HD
ATOM     15  H   UNL     1       3.329   0.117  18.686  0.00  0.00    +0.000 HD
ATOM     16  H   UNL     1       3.948   0.806  17.243  0.00  0.00    +0.000 HD
ENDROOT
BRANCH   8  17
ATOM     17  C   UNL     1       5.719   4.635  15.260  0.00  0.00    +0.000 C 
BRANCH  17  18
ATOM     18  N   UNL     1       7.106   4.600  15.737  0.00  0.00    +0.000 N 
ATOM     19  H   UNL     1       7.744   4.780  14.962  0.00  0.00    +0.000 HD
BRANCH  18  20
ATOM     20  C   UNL     1       7.394   5.428  16.837  0.00  0.00    +0.000 A 
ATOM     21  C   UNL     1       7.704   4.922  18.109  0.00  0.00    +0.000 A 
ATOM     22  C   UNL     1       8.024   5.769  19.173  0.00  0.00    +0.000 A 
ATOM     23  C   UNL     1       8.080   7.143  18.974  0.00  0.00    +0.000 A 
ATOM     24  C   UNL     1       7.839   7.664  17.706  0.00  0.00    +0.000 A 
ATOM     25  C   UNL     1       7.516   6.811  16.644  0.00  0.00    +0.000 A 
ENDBRANCH  18  20
ENDBRANCH  17  18
ENDBRANCH   8  17
TORSDOF 3
ENDMDL
MODEL 9
REMARK VINA RESULT:      -7.6      1.259      1.284
REMARK  Name = 
REMARK  3 active torsions:
REMARK  status: ('A' for Active; 'I' for Inactive)
REMARK    1  A    between atoms: C_8  and  C_9
REMARK    2  A    between atoms: C_9  and  N_10
REMARK    3  A    between atoms: N_10  and  C_11
REMARK                            x       y       z     vdW  Elec       q    Type
REMARK                         _______ _______ _______ _____ _____    ______ ____
ROOT
ATOM      1  N   UNL     1       0.223   2.834  19.972  0.00  0.00    +0.000 N 
ATOM      2  C   UNL     1       1.352   3.233  19.292  0.00  0.00    +0.000 A 
ATOM      3  N   UNL     1       2.181   2.288  18.855  0.00  0.00    +0.000 NA
ATOM      4  C   UNL     1       3.288   2.709  18.214  0.00  0.00    +0.000 A 
ATOM      5  N   UNL     1       4.190   1.696  17.844  0.00  0.00    +0.000 N 
ATOM      6  C   UNL     1       3.603   4.048  17.977  0.00  0.00    +0.000 A 
ATOM      7  N   UNL     1       4.721   4.455  17.304  0.00  0.00    +0.000 NA
ATOM      8  C   UNL     1       4.912   5.784  17.126  0.00  0.00    +0.000 A 
ATOM      9  C   UNL     1       4.018   6.724  17.618  0.00  0.00    +0.000 A 
ATOM     10  C   UNL     1       2.874   6.279  18.277  0.00  0.00    +0.000 A 
ATOM     11  C   UNL     1       2.637   4.928  18.469  0.00  0.00    +0.000 A 
ATOM     12  N   UNL     1       1.520   4.541  19.104  0.00  0.00    +0.000 NA
ATOM     13  H   UNL     1      -0.020   1.881  19.741  0.00  0.00    +0.000 HD
ATOM     14  H   UNL     1      -0.498   3.537  19.915  0.00  0.00    +0.000 HD
ATOM     15  H   UNL     1       3.749   0.791  17.965  0.00  0.00    +0.000 HD
ATOM     16  H   UNL     1       4.579   1.868  16.922  0.00  0.00    +0.000 HD
ENDROOT
BRANCH   8  17
ATOM     17  C   UNL     1       6.123   6.226  16.329  0.00  0.00    +0.000 C 
BRANCH  17  18
ATOM     18  N   UNL     1       6.975   5.088  15.969  0.00  0.00    +0.000 N 
ATOM     19  H   UNL     1       6.773   4.297  16.579  0.00  0.00    +0.000 HD
BRANCH  18  20
ATOM     20  C   UNL     1       6.945   4.708  14.615  0.00  0.00    +0.000 A 
ATOM     21  C   UNL     1       6.027   3.776  14.106  0.00  0.00    +0.000 A 
ATOM     22  C   UNL     1       5.997   3.449  12.748  0.00  0.00    +0.000 A 
ATOM     23  C   UNL     1       6.862   4.078  11.862  0.00  0.00    +0.000 A 
ATOM     24  C   UNL     1       7.739   5.052  12.333  0.00  0.00    +0.000 A 
ATOM     25  C   UNL     1       7.766   5.375  13.695  0.00  0.00    +0.000 A 
ENDBRANCH  18  20
ENDBRANCH  17  18
ENDBRANCH   8  17
TORSDOF 3
ENDMDL
