MODEL 1
REMARK VINA RESULT:      -8.3      0.000      0.000
REMARK  Name = 
REMARK  11 active torsions:
REMARK  status: ('A' for Active; 'I' for Inactive)
REMARK    1  A    between atoms: C_1  and  C_2
REMARK    2  A    between atoms: C_4  and  C_5
REMARK    3  A    between atoms: C_7  and  C_8
REMARK    4  A    between atoms: C_16  and  C_17
REMARK    5  A    between atoms: C_17  and  C_18
REMARK    6  A    between atoms: C_18  and  N_19
REMARK    7  A    between atoms: N_19  and  C_20
REMARK    8  A    between atoms: C_20  and  C_21
REMARK    9  A    between atoms: C_21  and  C_22
REMARK   10  A    between atoms: C_22  and  C_23
REMARK   11  A    between atoms: C_26  and  O_27
REMARK                            x       y       z     vdW  Elec       q    Type
REMARK                         _______ _______ _______ _____ _____    ______ ____
ROOT
ATOM      1  C   UNL     1      -2.238  11.999  19.569  0.00  0.00    +0.000 A 
ATOM      2  N   UNL     1      -3.348  12.251  18.794  0.00  0.00    +0.000 N 
ATOM      3  C   UNL     1      -3.353  11.492  17.651  0.00  0.00    +0.000 A 
ATOM      4  C   UNL     1      -4.303  11.432  16.619  0.00  0.00    +0.000 A 
ATOM      5  C   UNL     1      -4.060  10.565  15.551  0.00  0.00    +0.000 A 
ATOM      6  C   UNL     1      -2.908   9.791  15.520  0.00  0.00    +0.000 A 
ATOM      7  C   UNL     1      -1.975   9.866  16.556  0.00  0.00    +0.000 A 
ATOM      8  C   UNL     1      -2.189  10.728  17.657  0.00  0.00    +0.000 A 
ATOM      9  C   UNL     1      -1.480  11.044  18.876  0.00  0.00    +0.000 A 
ATOM     10  H   UNL     1      -4.069  12.915  19.029  0.00  0.00    +0.000 HD
ENDROOT
BRANCH   1  17
ATOM     11  C   UNL     1      -3.661  12.894  24.301  0.00  0.00    +0.000 C 
ATOM     12  C   UNL     1      -2.690  13.133  23.181  0.00  0.00    +0.000 A 
ATOM     13  C   UNL     1      -1.601  13.992  23.336  0.00  0.00    +0.000 A 
ATOM     14  C   UNL     1      -0.719  14.211  22.273  0.00  0.00    +0.000 A 
ATOM     15  C   UNL     1       0.480  15.100  22.446  0.00  0.00    +0.000 C 
ATOM     16  C   UNL     1      -0.951  13.579  21.038  0.00  0.00    +0.000 A 
ATOM     17  C   UNL     1      -2.028  12.696  20.858  0.00  0.00    +0.000 A 
ATOM     18  C   UNL     1      -2.877  12.481  21.952  0.00  0.00    +0.000 A 
ENDBRANCH   1  17
BRANCH   9  19
ATOM     19  C   UNL     1      -0.191  10.456  19.381  0.00  0.00    +0.000 C 
BRANCH  19  20
ATOM     20  C   UNL     1       1.111  11.121  18.933  0.00  0.00    +0.000 C 
BRANCH  20  21
ATOM     21  N   UNL     1       1.933  10.296  18.043  0.00  0.00    +0.000 NA
ATOM     22  H   UNL     1       2.896  10.280  18.377  0.00  0.00    +0.000 HD
BRANCH  21  23
ATOM     23  C   UNL     1       1.417   8.936  17.938  0.00  0.00    +0.000 C 
BRANCH  23  24
ATOM     24  C   UNL     1       2.563   7.956  18.118  0.00  0.00    +0.000 C 
BRANCH  24  25
ATOM     25  C   UNL     1       2.431   7.242  19.459  0.00  0.00    +0.000 C 
BRANCH  25  26
ATOM     26  C   UNL     1       2.109   5.789  19.247  0.00  0.00    +0.000 A 
ATOM     27  C   UNL     1       2.214   5.223  17.968  0.00  0.00    +0.000 A 
ATOM     28  C   UNL     1       1.863   3.891  17.759  0.00  0.00    +0.000 A 
ATOM     29  C   UNL     1       1.403   3.129  18.830  0.00  0.00    +0.000 A 
ATOM     30  C   UNL     1       1.287   3.678  20.100  0.00  0.00    +0.000 A 
ATOM     31  C   UNL     1       1.637   5.010  20.311  0.00  0.00    +0.000 A 
BRANCH  29  32
ATOM     32  O   UNL     1       1.045   1.824  18.665  0.00  0.00    +0.000 OA
ATOM     33  H   UNL     1       1.850   1.300  18.528  0.00  0.00    +0.000 HD
ENDBRANCH  29  32
ENDBRANCH  25  26
ENDBRANCH  24  25
ENDBRANCH  23  24
ENDBRANCH  21  23
ENDBRANCH  20  21
ENDBRANCH  19  20
ENDBRANCH   9  19
TORSDOF 9
ENDMDL
MODEL 2
REMARK VINA RESULT:      -8.3      3.689      9.910
REMARK  Name = 
REMARK  11 active torsions:
REMARK  status: ('A' for Active; 'I' for Inactive)
REMARK    1  A    between atoms: C_1  and  C_2
REMARK    2  A    between atoms: C_4  and  C_5
REMARK    3  A    between atoms: C_7  and  C_8
REMARK    4  A    between atoms: C_16  and  C_17
REMARK    5  A    between atoms: C_17  and  C_18
REMARK    6  A    between atoms: C_18  and  N_19
REMARK    7  A    between atoms: N_19  and  C_20
REMARK    8  A    between atoms: C_20  and  C_21
REMARK    9  A    between atoms: C_21  and  C_22
REMARK   10  A    between atoms: C_22  and  C_23
REMARK   11  A    between atoms: C_26  and  O_27
REMARK                            x       y       z     vdW  Elec       q    Type
REMARK                         _______ _______ _______ _____ _____    ______ ____
ROOT
ATOM      1  C   UNL     1       4.247   4.633  18.567  0.00  0.00    +0.000 A 
ATOM      2  N   UNL     1       4.515   3.567  19.398  0.00  0.00    +0.000 N 
ATOM      3  C   UNL     1       3.429   3.237  20.168  0.00  0.00    +0.000 A 
ATOM      4  C   UNL     1       3.281   2.212  21.115  0.00  0.00    +0.000 A 
ATOM      5  C   UNL     1       2.054   2.094  21.771  0.00  0.00    +0.000 A 
ATOM      6  C   UNL     1       1.017   2.974  21.489  0.00  0.00    +0.000 A 
ATOM      7  C   UNL     1       1.185   3.988  20.544  0.00  0.00    +0.000 A 
ATOM      8  C   UNL     1       2.412   4.134  19.855  0.00  0.00    +0.000 A 
ATOM      9  C   UNL     1       2.926   5.020  18.835  0.00  0.00    +0.000 A 
ATOM     10  H   UNL     1       5.401   3.088  19.443  0.00  0.00    +0.000 HD
ENDROOT
BRANCH   1  17
ATOM     11  C   UNL     1       7.910   7.910  17.537  0.00  0.00    +0.000 C 
ATOM     12  C   UNL     1       7.079   6.732  17.116  0.00  0.00    +0.000 A 
ATOM     13  C   UNL     1       7.258   6.126  15.872  0.00  0.00    +0.000 A 
ATOM     14  C   UNL     1       6.461   5.041  15.495  0.00  0.00    +0.000 A 
ATOM     15  C   UNL     1       6.678   4.356  14.175  0.00  0.00    +0.000 C 
ATOM     16  C   UNL     1       5.462   4.578  16.369  0.00  0.00    +0.000 A 
ATOM     17  C   UNL     1       5.271   5.156  17.635  0.00  0.00    +0.000 A 
ATOM     18  C   UNL     1       6.103   6.226  17.988  0.00  0.00    +0.000 A 
ENDBRANCH   1  17
BRANCH   9  19
ATOM     19  C   UNL     1       2.209   6.135  18.125  0.00  0.00    +0.000 C 
BRANCH  19  20
ATOM     20  C   UNL     1       2.268   7.527  18.756  0.00  0.00    +0.000 C 
BRANCH  20  21
ATOM     21  N   UNL     1       2.820   8.562  17.879  0.00  0.00    +0.000 NA
ATOM     22  H   UNL     1       2.888   8.209  16.925  0.00  0.00    +0.000 HD
BRANCH  21  23
ATOM     23  C   UNL     1       2.016   9.778  17.906  0.00  0.00    +0.000 C 
BRANCH  23  24
ATOM     24  C   UNL     1       0.546   9.399  17.951  0.00  0.00    +0.000 C 
BRANCH  24  25
ATOM     25  C   UNL     1      -0.221  10.396  18.814  0.00  0.00    +0.000 C 
BRANCH  25  26
ATOM     26  C   UNL     1      -1.571  10.673  18.214  0.00  0.00    +0.000 A 
ATOM     27  C   UNL     1      -2.457  11.556  18.848  0.00  0.00    +0.000 A 
ATOM     28  C   UNL     1      -3.730  11.771  18.324  0.00  0.00    +0.000 A 
ATOM     29  C   UNL     1      -4.116  11.098  17.167  0.00  0.00    +0.000 A 
ATOM     30  C   UNL     1      -3.251  10.215  16.533  0.00  0.00    +0.000 A 
ATOM     31  C   UNL     1      -1.979   9.999  17.056  0.00  0.00    +0.000 A 
BRANCH  29  32
ATOM     32  O   UNL     1      -5.353  11.276  16.626  0.00  0.00    +0.000 OA
ATOM     33  H   UNL     1      -5.248  11.675  15.747  0.00  0.00    +0.000 HD
ENDBRANCH  29  32
ENDBRANCH  25  26
ENDBRANCH  24  25
ENDBRANCH  23  24
ENDBRANCH  21  23
ENDBRANCH  20  21
ENDBRANCH  19  20
ENDBRANCH   9  19
TORSDOF 9
ENDMDL
MODEL 3
REMARK VINA RESULT:      -8.3      6.500     10.520
REMARK  Name = 
REMARK  11 active torsions:
REMARK  status: ('A' for Active; 'I' for Inactive)
REMARK    1  A    between atoms: C_1  and  C_2
REMARK    2  A    between atoms: C_4  and  C_5
REMARK    3  A    between atoms: C_7  and  C_8
REMARK    4  A    between atoms: C_16  and  C_17
REMARK    5  A    between atoms: C_17  and  C_18
REMARK    6  A    between atoms: C_18  and  N_19
REMARK    7  A    between atoms: N_19  and  C_20
REMARK    8  A    between atoms: C_20  and  C_21
REMARK    9  A    between atoms: C_21  and  C_22
REMARK   10  A    between atoms: C_22  and  C_23
REMARK   11  A    between atoms: C_26  and  O_27
REMARK                            x       y       z     vdW  Elec       q    Type
REMARK                         _______ _______ _______ _____ _____    ______ ____
ROOT
ATOM      1  C   UNL     1       4.360   4.953  17.842  0.00  0.00    +0.000 A 
ATOM      2  N   UNL     1       4.010   4.568  16.567  0.00  0.00    +0.000 N 
ATOM      3  C   UNL     1       5.092   4.563  15.723  0.00  0.00    +0.000 A 
ATOM      4  C   UNL     1       5.167   4.218  14.364  0.00  0.00    +0.000 A 
ATOM      5  C   UNL     1       6.408   4.306  13.730  0.00  0.00    +0.000 A 
ATOM      6  C   UNL     1       7.529   4.728  14.432  0.00  0.00    +0.000 A 
ATOM      7  C   UNL     1       7.433   5.069  15.783  0.00  0.00    +0.000 A 
ATOM      8  C   UNL     1       6.194   4.987  16.460  0.00  0.00    +0.000 A 
ATOM      9  C   UNL     1       5.734   5.230  17.808  0.00  0.00    +0.000 A 
ATOM     10  H   UNL     1       3.075   4.325  16.281  0.00  0.00    +0.000 HD
ENDROOT
BRANCH   1  17
ATOM     11  C   UNL     1       1.532   2.635  21.283  0.00  0.00    +0.000 C 
ATOM     12  C   UNL     1       1.979   3.911  20.631  0.00  0.00    +0.000 A 
ATOM     13  C   UNL     1       1.468   5.147  21.030  0.00  0.00    +0.000 A 
ATOM     14  C   UNL     1       1.887   6.320  20.396  0.00  0.00    +0.000 A 
ATOM     15  C   UNL     1       1.374   7.658  20.849  0.00  0.00    +0.000 C 
ATOM     16  C   UNL     1       2.810   6.245  19.338  0.00  0.00    +0.000 A 
ATOM     17  C   UNL     1       3.354   5.018  18.927  0.00  0.00    +0.000 A 
ATOM     18  C   UNL     1       2.930   3.865  19.600  0.00  0.00    +0.000 A 
ENDBRANCH   1  17
BRANCH   9  19
ATOM     19  C   UNL     1       6.542   5.658  19.004  0.00  0.00    +0.000 C 
BRANCH  19  20
ATOM     20  C   UNL     1       8.032   5.922  18.789  0.00  0.00    +0.000 C 
BRANCH  20  21
ATOM     21  N   UNL     1       8.417   7.331  18.914  0.00  0.00    +0.000 NA
ATOM     22  H   UNL     1       9.432   7.419  18.869  0.00  0.00    +0.000 HD
BRANCH  21  23
ATOM     23  C   UNL     1       7.798   8.154  17.882  0.00  0.00    +0.000 C 
BRANCH  23  24
ATOM     24  C   UNL     1       8.584   9.446  17.740  0.00  0.00    +0.000 C 
BRANCH  24  25
ATOM     25  C   UNL     1       9.087   9.900  19.106  0.00  0.00    +0.000 C 
BRANCH  25  26
ATOM     26  C   UNL     1       9.912  11.149  18.967  0.00  0.00    +0.000 A 
ATOM     27  C   UNL     1       9.824  11.928  17.804  0.00  0.00    +0.000 A 
ATOM     28  C   UNL     1      10.629  13.055  17.650  0.00  0.00    +0.000 A 
ATOM     29  C   UNL     1      11.525  13.398  18.660  0.00  0.00    +0.000 A 
ATOM     30  C   UNL     1      11.628  12.632  19.814  0.00  0.00    +0.000 A 
ATOM     31  C   UNL     1      10.824  11.505  19.969  0.00  0.00    +0.000 A 
BRANCH  29  32
ATOM     32  O   UNL     1      12.333  14.489  18.546  0.00  0.00    +0.000 OA
ATOM     33  H   UNL     1      12.330  14.962  19.393  0.00  0.00    +0.000 HD
ENDBRANCH  29  32
ENDBRANCH  25  26
ENDBRANCH  24  25
ENDBRANCH  23  24
ENDBRANCH  21  23
ENDBRANCH  20  21
ENDBRANCH  19  20
ENDBRANCH   9  19
TORSDOF 9
ENDMDL
MODEL 4
REMARK VINA RESULT:      -8.3      3.691      9.914
REMARK  Name = 
REMARK  11 active torsions:
REMARK  status: ('A' for Active; 'I' for Inactive)
REMARK    1  A    between atoms: C_1  and  C_2
REMARK    2  A    between atoms: C_4  and  C_5
REMARK    3  A    between atoms: C_7  and  C_8
REMARK    4  A    between atoms: C_16  and  C_17
REMARK    5  A    between atoms: C_17  and  C_18
REMARK    6  A    between atoms: C_18  and  N_19
REMARK    7  A    between atoms: N_19  and  C_20
REMARK    8  A    between atoms: C_20  and  C_21
REMARK    9  A    between atoms: C_21  and  C_22
REMARK   10  A    between atoms: C_22  and  C_23
REMARK   11  A    between atoms: C_26  and  O_27
REMARK                            x       y       z     vdW  Elec       q    Type
REMARK                         _______ _______ _______ _____ _____    ______ ____
ROOT
ATOM      1  C   UNL     1       4.237   4.490  18.553  0.00  0.00    +0.000 A 
ATOM      2  N   UNL     1       4.491   3.453  19.423  0.00  0.00    +0.000 N 
ATOM      3  C   UNL     1       3.393   3.151  20.188  0.00  0.00    +0.000 A 
ATOM      4  C   UNL     1       3.228   2.159  21.168  0.00  0.00    +0.000 A 
ATOM      5  C   UNL     1       1.992   2.067  21.810  0.00  0.00    +0.000 A 
ATOM      6  C   UNL     1       0.961   2.938  21.483  0.00  0.00    +0.000 A 
ATOM      7  C   UNL     1       1.146   3.919  20.506  0.00  0.00    +0.000 A 
ATOM      8  C   UNL     1       2.382   4.040  19.831  0.00  0.00    +0.000 A 
ATOM      9  C   UNL     1       2.914   4.888  18.789  0.00  0.00    +0.000 A 
ATOM     10  H   UNL     1       5.375   2.974  19.497  0.00  0.00    +0.000 HD
ENDROOT
BRANCH   1  17
ATOM     11  C   UNL     1       6.571   4.190  14.118  0.00  0.00    +0.000 C 
ATOM     12  C   UNL     1       6.417   4.867  15.449  0.00  0.00    +0.000 A 
ATOM     13  C   UNL     1       7.229   5.942  15.814  0.00  0.00    +0.000 A 
ATOM     14  C   UNL     1       7.078   6.546  17.066  0.00  0.00    +0.000 A 
ATOM     15  C   UNL     1       7.919   7.731  17.449  0.00  0.00    +0.000 C 
ATOM     16  C   UNL     1       6.119   6.047  17.965  0.00  0.00    +0.000 A 
ATOM     17  C   UNL     1       5.276   4.979  17.618  0.00  0.00    +0.000 A 
ATOM     18  C   UNL     1       5.439   4.414  16.346  0.00  0.00    +0.000 A 
ENDBRANCH   1  17
BRANCH   9  19
ATOM     19  C   UNL     1       2.210   5.981  18.030  0.00  0.00    +0.000 C 
BRANCH  19  20
ATOM     20  C   UNL     1       2.184   7.374  18.661  0.00  0.00    +0.000 C 
BRANCH  20  21
ATOM     21  N   UNL     1       2.854   8.406  17.865  0.00  0.00    +0.000 NA
ATOM     22  H   UNL     1       2.965   8.086  16.904  0.00  0.00    +0.000 HD
BRANCH  21  23
ATOM     23  C   UNL     1       2.122   9.667  17.891  0.00  0.00    +0.000 C 
BRANCH  23  24
ATOM     24  C   UNL     1       0.631   9.375  17.875  0.00  0.00    +0.000 C 
BRANCH  24  25
ATOM     25  C   UNL     1      -0.107  10.399  18.731  0.00  0.00    +0.000 C 
BRANCH  25  26
ATOM     26  C   UNL     1      -1.483  10.645  18.177  0.00  0.00    +0.000 A 
ATOM     27  C   UNL     1      -2.361  11.521  18.832  0.00  0.00    +0.000 A 
ATOM     28  C   UNL     1      -3.655  11.708  18.351  0.00  0.00    +0.000 A 
ATOM     29  C   UNL     1      -4.071  11.013  17.218  0.00  0.00    +0.000 A 
ATOM     30  C   UNL     1      -3.214  10.136  16.564  0.00  0.00    +0.000 A 
ATOM     31  C   UNL     1      -1.920   9.948  17.044  0.00  0.00    +0.000 A 
BRANCH  29  32
ATOM     32  O   UNL     1      -5.330  11.163  16.720  0.00  0.00    +0.000 OA
ATOM     33  H   UNL     1      -5.597  12.089  16.838  0.00  0.00    +0.000 HD
ENDBRANCH  29  32
ENDBRANCH  25  26
ENDBRANCH  24  25
ENDBRANCH  23  24
ENDBRANCH  21  23
ENDBRANCH  20  21
ENDBRANCH  19  20
ENDBRANCH   9  19
TORSDOF 9
ENDMDL
MODEL 5
REMARK VINA RESULT:      -8.3      0.351      1.606
REMARK  Name = 
REMARK  11 active torsions:
REMARK  status: ('A' for Active; 'I' for Inactive)
REMARK    1  A    between atoms: C_1  and  C_2
REMARK    2  A    between atoms: C_4  and  C_5
REMARK    3  A    between atoms: C_7  and  C_8
REMARK    4  A    between atoms: C_16  and  C_17
REMARK    5  A    between atoms: C_17  and  C_18
REMARK    6  A    between atoms: C_18  and  N_19
REMARK    7  A    between atoms: N_19  and  C_20
REMARK    8  A    between atoms: C_20  and  C_21
REMARK    9  A    between atoms: C_21  and  C_22
REMARK   10  A    between atoms: C_22  and  C_23
REMARK   11  A    between atoms: C_26  and  O_27
REMARK                            x       y       z     vdW  Elec       q    Type
REMARK                         _______ _______ _______ _____ _____    ______ ____
ROOT
ATOM      1  C   UNL     1      -1.935  12.058  19.531  0.00  0.00    +0.000 A 
ATOM      2  N   UNL     1      -3.068  12.336  18.799  0.00  0.00    +0.000 N 
ATOM      3  C   UNL     1      -3.171  11.529  17.694  0.00  0.00    +0.000 A 
ATOM      4  C   UNL     1      -4.173  11.477  16.712  0.00  0.00    +0.000 A 
ATOM      5  C   UNL     1      -4.030  10.552  15.676  0.00  0.00    +0.000 A 
ATOM      6  C   UNL     1      -2.924   9.715  15.625  0.00  0.00    +0.000 A 
ATOM      7  C   UNL     1      -1.937   9.783  16.612  0.00  0.00    +0.000 A 
ATOM      8  C   UNL     1      -2.050  10.704  17.680  0.00  0.00    +0.000 A 
ATOM      9  C   UNL     1      -1.265  11.033  18.848  0.00  0.00    +0.000 A 
ATOM     10  H   UNL     1      -3.741  13.049  19.037  0.00  0.00    +0.000 HD
ENDROOT
BRANCH   1  17
ATOM     11  C   UNL     1       1.081  15.129  22.116  0.00  0.00    +0.000 C 
ATOM     12  C   UNL     1      -0.179  14.315  22.052  0.00  0.00    +0.000 A 
ATOM     13  C   UNL     1      -1.055  14.249  23.135  0.00  0.00    +0.000 A 
ATOM     14  C   UNL     1      -2.214  13.470  23.057  0.00  0.00    +0.000 A 
ATOM     15  C   UNL     1      -3.184  13.428  24.204  0.00  0.00    +0.000 C 
ATOM     16  C   UNL     1      -2.479  12.736  21.888  0.00  0.00    +0.000 A 
ATOM     17  C   UNL     1      -1.625  12.798  20.775  0.00  0.00    +0.000 A 
ATOM     18  C   UNL     1      -0.486  13.607  20.880  0.00  0.00    +0.000 A 
ENDBRANCH   1  17
BRANCH   9  19
ATOM     19  C   UNL     1       0.015  10.397  19.318  0.00  0.00    +0.000 C 
BRANCH  19  20
ATOM     20  C   UNL     1       1.323  10.929  18.731  0.00  0.00    +0.000 C 
BRANCH  20  21
ATOM     21  N   UNL     1       1.872  10.110  17.646  0.00  0.00    +0.000 NA
ATOM     22  H   UNL     1       2.889  10.179  17.640  0.00  0.00    +0.000 HD
BRANCH  21  23
ATOM     23  C   UNL     1       1.465   8.715  17.764  0.00  0.00    +0.000 C 
BRANCH  23  24
ATOM     24  C   UNL     1       2.683   7.870  18.098  0.00  0.00    +0.000 C 
BRANCH  24  25
ATOM     25  C   UNL     1       2.483   7.180  19.444  0.00  0.00    +0.000 C 
BRANCH  25  26
ATOM     26  C   UNL     1       2.115   5.738  19.240  0.00  0.00    +0.000 A 
ATOM     27  C   UNL     1       2.314   5.128  17.993  0.00  0.00    +0.000 A 
ATOM     28  C   UNL     1       1.922   3.807  17.786  0.00  0.00    +0.000 A 
ATOM     29  C   UNL     1       1.324   3.100  18.826  0.00  0.00    +0.000 A 
ATOM     30  C   UNL     1       1.113   3.694  20.064  0.00  0.00    +0.000 A 
ATOM     31  C   UNL     1       1.505   5.014  20.273  0.00  0.00    +0.000 A 
BRANCH  29  32
ATOM     32  O   UNL     1       0.921   1.809  18.663  0.00  0.00    +0.000 OA
ATOM     33  H   UNL     1      -0.049   1.787  18.680  0.00  0.00    +0.000 HD
ENDBRANCH  29  32
ENDBRANCH  25  26
ENDBRANCH  24  25
ENDBRANCH  23  24
ENDBRANCH  21  23
ENDBRANCH  20  21
ENDBRANCH  19  20
ENDBRANCH   9  19
TORSDOF 9
ENDMDL
MODEL 6
REMARK VINA RESULT:      -8.2      8.276     12.229
REMARK  Name = 
REMARK  11 active torsions:
REMARK  status: ('A' for Active; 'I' for Inactive)
REMARK    1  A    between atoms: C_1  and  C_2
REMARK    2  A    between atoms: C_4  and  C_5
REMARK    3  A    between atoms: C_7  and  C_8
REMARK    4  A    between atoms: C_16  and  C_17
REMARK    5  A    between atoms: C_17  and  C_18
REMARK    6  A    between atoms: C_18  and  N_19
REMARK    7  A    between atoms: N_19  and  C_20
REMARK    8  A    between atoms: C_20  and  C_21
REMARK    9  A    between atoms: C_21  and  C_22
REMARK   10  A    between atoms: C_22  and  C_23
REMARK   11  A    between atoms: C_26  and  O_27
REMARK                            x       y       z     vdW  Elec       q    Type
REMARK                         _______ _______ _______ _____ _____    ______ ____
ROOT
ATOM      1  C   UNL     1       5.118   4.439  16.007  0.00  0.00    +0.000 A 
ATOM      2  N   UNL     1       3.875   3.884  16.219  0.00  0.00    +0.000 N 
ATOM      3  C   UNL     1       3.419   4.129  17.489  0.00  0.00    +0.000 A 
ATOM      4  C   UNL     1       2.206   3.760  18.093  0.00  0.00    +0.000 A 
ATOM      5  C   UNL     1       1.990   4.137  19.420  0.00  0.00    +0.000 A 
ATOM      6  C   UNL     1       2.955   4.854  20.115  0.00  0.00    +0.000 A 
ATOM      7  C   UNL     1       4.156   5.209  19.497  0.00  0.00    +0.000 A 
ATOM      8  C   UNL     1       4.408   4.850  18.153  0.00  0.00    +0.000 A 
ATOM      9  C   UNL     1       5.486   5.053  17.212  0.00  0.00    +0.000 A 
ATOM     10  H   UNL     1       3.361   3.356  15.531  0.00  0.00    +0.000 HD
ENDROOT
BRANCH   1  17
ATOM     11  C   UNL     1       5.470   2.289  11.483  0.00  0.00    +0.000 C 
ATOM     12  C   UNL     1       5.982   3.293  12.475  0.00  0.00    +0.000 A 
ATOM     13  C   UNL     1       7.080   4.104  12.186  0.00  0.00    +0.000 A 
ATOM     14  C   UNL     1       7.548   5.020  13.133  0.00  0.00    +0.000 A 
ATOM     15  C   UNL     1       8.703   5.926  12.812  0.00  0.00    +0.000 C 
ATOM     16  C   UNL     1       6.920   5.102  14.388  0.00  0.00    +0.000 A 
ATOM     17  C   UNL     1       5.802   4.312  14.700  0.00  0.00    +0.000 A 
ATOM     18  C   UNL     1       5.345   3.423  13.719  0.00  0.00    +0.000 A 
ENDBRANCH   1  17
BRANCH   9  19
ATOM     19  C   UNL     1       6.769   5.813  17.419  0.00  0.00    +0.000 C 
BRANCH  19  20
ATOM     20  C   UNL     1       6.661   7.304  17.737  0.00  0.00    +0.000 C 
BRANCH  20  21
ATOM     21  N   UNL     1       7.802   8.101  17.278  0.00  0.00    +0.000 NA
ATOM     22  H   UNL     1       7.493   8.785  16.588  0.00  0.00    +0.000 HD
BRANCH  21  23
ATOM     23  C   UNL     1       8.470   8.776  18.385  0.00  0.00    +0.000 C 
BRANCH  23  24
ATOM     24  C   UNL     1       8.717  10.226  18.006  0.00  0.00    +0.000 C 
BRANCH  24  25
ATOM     25  C   UNL     1       9.718  10.852  18.972  0.00  0.00    +0.000 C 
BRANCH  25  26
ATOM     26  C   UNL     1      10.318  12.091  18.369  0.00  0.00    +0.000 A 
ATOM     27  C   UNL     1       9.580  13.283  18.326  0.00  0.00    +0.000 A 
ATOM     28  C   UNL     1      10.113  14.418  17.717  0.00  0.00    +0.000 A 
ATOM     29  C   UNL     1      11.382  14.356  17.148  0.00  0.00    +0.000 A 
ATOM     30  C   UNL     1      12.122  13.180  17.178  0.00  0.00    +0.000 A 
ATOM     31  C   UNL     1      11.590  12.045  17.785  0.00  0.00    +0.000 A 
BRANCH  29  32
ATOM     32  O   UNL     1      11.937  15.441  16.539  0.00  0.00    +0.000 OA
ATOM     33  H   UNL     1      12.521  15.884  17.176  0.00  0.00    +0.000 HD
ENDBRANCH  29  32
ENDBRANCH  25  26
ENDBRANCH  24  25
ENDBRANCH  23  24
ENDBRANCH  21  23
ENDBRANCH  20  21
ENDBRANCH  19  20
ENDBRANCH   9  19
TORSDOF 9
ENDMDL
MODEL 7
REMARK VINA RESULT:      -8.2      5.189     10.068
REMARK  Name = 
REMARK  11 active torsions:
REMARK  status: ('A' for Active; 'I' for Inactive)
REMARK    1  A    between atoms: C_1  and  C_2
REMARK    2  A    between atoms: C_4  and  C_5
REMARK    3  A    between atoms: C_7  and  C_8
REMARK    4  A    between atoms: C_16  and  C_17
REMARK    5  A    between atoms: C_17  and  C_18
REMARK    6  A    between atoms: C_18  and  N_19
REMARK    7  A    between atoms: N_19  and  C_20
REMARK    8  A    between atoms: C_20  and  C_21
REMARK    9  A    between atoms: C_21  and  C_22
REMARK   10  A    between atoms: C_22  and  C_23
REMARK   11  A    between atoms: C_26  and  O_27
REMARK                            x       y       z     vdW  Elec       q    Type
REMARK                         _______ _______ _______ _____ _____    ______ ____
ROOT
ATOM      1  C   UNL     1       6.809   5.326  15.631  0.00  0.00    +0.000 A 
ATOM      2  N   UNL     1       7.590   5.215  14.502  0.00  0.00    +0.000 N 
ATOM      3  C   UNL     1       6.944   4.535  13.501  0.00  0.00    +0.000 A 
ATOM      4  C   UNL     1       7.378   4.228  12.202  0.00  0.00    +0.000 A 
ATOM      5  C   UNL     1       6.513   3.511  11.372  0.00  0.00    +0.000 A 
ATOM      6  C   UNL     1       5.264   3.114  11.830  0.00  0.00    +0.000 A 
ATOM      7  C   UNL     1       4.852   3.429  13.127  0.00  0.00    +0.000 A 
ATOM      8  C   UNL     1       5.698   4.159  13.994  0.00  0.00    +0.000 A 
ATOM      9  C   UNL     1       5.607   4.664  15.345  0.00  0.00    +0.000 A 
ATOM     10  H   UNL     1       8.526   5.581  14.418  0.00  0.00    +0.000 HD
ENDROOT
BRANCH   1  17
ATOM     11  C   UNL     1       8.308   5.213  20.422  0.00  0.00    +0.000 C 
ATOM     12  C   UNL     1       8.055   6.002  19.170  0.00  0.00    +0.000 A 
ATOM     13  C   UNL     1       8.274   7.379  19.124  0.00  0.00    +0.000 A 
ATOM     14  C   UNL     1       8.015   8.095  17.951  0.00  0.00    +0.000 A 
ATOM     15  C   UNL     1       8.289   9.571  17.881  0.00  0.00    +0.000 C 
ATOM     16  C   UNL     1       7.509   7.422  16.825  0.00  0.00    +0.000 A 
ATOM     17  C   UNL     1       7.297   6.034  16.836  0.00  0.00    +0.000 A 
ATOM     18  C   UNL     1       7.590   5.345  18.020  0.00  0.00    +0.000 A 
ENDBRANCH   1  17
BRANCH   9  19
ATOM     19  C   UNL     1       4.445   4.567  16.297  0.00  0.00    +0.000 C 
BRANCH  19  20
ATOM     20  C   UNL     1       4.560   3.570  17.451  0.00  0.00    +0.000 C 
BRANCH  20  21
ATOM     21  N   UNL     1       3.292   3.286  18.129  0.00  0.00    +0.000 NA
ATOM     22  H   UNL     1       3.057   2.300  18.026  0.00  0.00    +0.000 HD
BRANCH  21  23
ATOM     23  C   UNL     1       3.344   3.643  19.542  0.00  0.00    +0.000 C 
BRANCH  23  24
ATOM     24  C   UNL     1       3.582   5.138  19.667  0.00  0.00    +0.000 C 
BRANCH  24  25
ATOM     25  C   UNL     1       2.372   5.804  20.315  0.00  0.00    +0.000 C 
BRANCH  25  26
ATOM     26  C   UNL     1       2.121   7.148  19.691  0.00  0.00    +0.000 A 
ATOM     27  C   UNL     1       1.409   8.131  20.394  0.00  0.00    +0.000 A 
ATOM     28  C   UNL     1       1.127   9.357  19.796  0.00  0.00    +0.000 A 
ATOM     29  C   UNL     1       1.553   9.596  18.492  0.00  0.00    +0.000 A 
ATOM     30  C   UNL     1       2.253   8.629  17.781  0.00  0.00    +0.000 A 
ATOM     31  C   UNL     1       2.535   7.403  18.378  0.00  0.00    +0.000 A 
BRANCH  29  32
ATOM     32  O   UNL     1       1.293  10.780  17.869  0.00  0.00    +0.000 OA
ATOM     33  H   UNL     1       1.370  11.493  18.523  0.00  0.00    +0.000 HD
ENDBRANCH  29  32
ENDBRANCH  25  26
ENDBRANCH  24  25
ENDBRANCH  23  24
ENDBRANCH  21  23
ENDBRANCH  20  21
ENDBRANCH  19  20
ENDBRANCH   9  19
TORSDOF 9
ENDMDL
MODEL 8
REMARK VINA RESULT:      -8.1      8.185     11.965
REMARK  Name = 
REMARK  11 active torsions:
REMARK  status: ('A' for Active; 'I' for Inactive)
REMARK    1  A    between atoms: C_1  and  C_2
REMARK    2  A    between atoms: C_4  and  C_5
REMARK    3  A    between atoms: C_7  and  C_8
REMARK    4  A    between atoms: C_16  and  C_17
REMARK    5  A    between atoms: C_17  and  C_18
REMARK    6  A    between atoms: C_18  and  N_19
REMARK    7  A    between atoms: N_19  and  C_20
REMARK    8  A    between atoms: C_20  and  C_21
REMARK    9  A    between atoms: C_21  and  C_22
REMARK   10  A    between atoms: C_22  and  C_23
REMARK   11  A    between atoms: C_26  and  O_27
REMARK                            x       y       z     vdW  Elec       q    Type
REMARK                         _______ _______ _______ _____ _____    ______ ____
ROOT
ATOM      1  C   UNL     1       4.990   4.554  16.192  0.00  0.00    +0.000 A 
ATOM      2  N   UNL     1       3.932   3.726  16.495  0.00  0.00    +0.000 N 
ATOM      3  C   UNL     1       3.395   4.016  17.723  0.00  0.00    +0.000 A 
ATOM      4  C   UNL     1       2.307   3.429  18.387  0.00  0.00    +0.000 A 
ATOM      5  C   UNL     1       1.965   3.917  19.651  0.00  0.00    +0.000 A 
ATOM      6  C   UNL     1       2.690   4.952  20.226  0.00  0.00    +0.000 A 
ATOM      7  C   UNL     1       3.770   5.522  19.549  0.00  0.00    +0.000 A 
ATOM      8  C   UNL     1       4.143   5.058  18.266  0.00  0.00    +0.000 A 
ATOM      9  C   UNL     1       5.154   5.405  17.293  0.00  0.00    +0.000 A 
ATOM     10  H   UNL     1       3.593   2.991  15.894  0.00  0.00    +0.000 HD
ENDROOT
BRANCH   1  17
ATOM     11  C   UNL     1       5.402   2.533  11.614  0.00  0.00    +0.000 C 
ATOM     12  C   UNL     1       5.928   3.475  12.657  0.00  0.00    +0.000 A 
ATOM     13  C   UNL     1       7.079   4.233  12.437  0.00  0.00    +0.000 A 
ATOM     14  C   UNL     1       7.558   5.091  13.431  0.00  0.00    +0.000 A 
ATOM     15  C   UNL     1       8.772   5.942  13.184  0.00  0.00    +0.000 C 
ATOM     16  C   UNL     1       6.887   5.168  14.664  0.00  0.00    +0.000 A 
ATOM     17  C   UNL     1       5.717   4.432  14.908  0.00  0.00    +0.000 A 
ATOM     18  C   UNL     1       5.251   3.600  13.880  0.00  0.00    +0.000 A 
ENDBRANCH   1  17
BRANCH   9  19
ATOM     19  C   UNL     1       6.185   6.498  17.375  0.00  0.00    +0.000 C 
BRANCH  19  20
ATOM     20  C   UNL     1       7.448   6.216  18.190  0.00  0.00    +0.000 C 
BRANCH  20  21
ATOM     21  N   UNL     1       8.191   7.417  18.581  0.00  0.00    +0.000 NA
ATOM     22  H   UNL     1       9.151   7.169  18.818  0.00  0.00    +0.000 HD
BRANCH  21  23
ATOM     23  C   UNL     1       8.181   8.426  17.528  0.00  0.00    +0.000 C 
BRANCH  23  24
ATOM     24  C   UNL     1       8.198   9.806  18.163  0.00  0.00    +0.000 C 
BRANCH  24  25
ATOM     25  C   UNL     1       9.386   9.927  19.111  0.00  0.00    +0.000 C 
BRANCH  25  26
ATOM     26  C   UNL     1      10.137  11.202  18.846  0.00  0.00    +0.000 A 
ATOM     27  C   UNL     1      11.243  11.547  19.635  0.00  0.00    +0.000 A 
ATOM     28  C   UNL     1      11.905  12.755  19.427  0.00  0.00    +0.000 A 
ATOM     29  C   UNL     1      11.456  13.618  18.431  0.00  0.00    +0.000 A 
ATOM     30  C   UNL     1      10.357  13.293  17.645  0.00  0.00    +0.000 A 
ATOM     31  C   UNL     1       9.694  12.085  17.853  0.00  0.00    +0.000 A 
BRANCH  29  32
ATOM     32  O   UNL     1      12.072  14.811  18.199  0.00  0.00    +0.000 OA
ATOM     33  H   UNL     1      12.530  15.082  19.011  0.00  0.00    +0.000 HD
ENDBRANCH  29  32
ENDBRANCH  25  26
ENDBRANCH  24  25
ENDBRANCH  23  24
ENDBRANCH  21  23
ENDBRANCH  20  21
ENDBRANCH  19  20
ENDBRANCH   9  19
TORSDOF 9
ENDMDL
MODEL 9
REMARK VINA RESULT:      -8.1      8.300     12.075
REMARK  Name = 
REMARK  11 active torsions:
REMARK  status: ('A' for Active; 'I' for Inactive)
REMARK    1  A    between atoms: C_1  and  C_2
REMARK    2  A    between atoms: C_4  and  C_5
REMARK    3  A    between atoms: C_7  and  C_8
REMARK    4  A    between atoms: C_16  and  C_17
REMARK    5  A    between atoms: C_17  and  C_18
REMARK    6  A    between atoms: C_18  and  N_19
REMARK    7  A    between atoms: N_19  and  C_20
REMARK    8  A    between atoms: C_20  and  C_21
REMARK    9  A    between atoms: C_21  and  C_22
REMARK   10  A    between atoms: C_22  and  C_23
REMARK   11  A    between atoms: C_26  and  O_27
REMARK                            x       y       z     vdW  Elec       q    Type
REMARK                         _______ _______ _______ _____ _____    ______ ____
ROOT
ATOM      1  C   UNL     1       5.100   4.194  15.948  0.00  0.00    +0.000 A 
ATOM      2  N   UNL     1       4.793   3.021  16.602  0.00  0.00    +0.000 N 
ATOM      3  C   UNL     1       4.192   3.257  17.812  0.00  0.00    +0.000 A 
ATOM      4  C   UNL     1       3.710   2.346  18.765  0.00  0.00    +0.000 A 
ATOM      5  C   UNL     1       3.137   2.856  19.932  0.00  0.00    +0.000 A 
ATOM      6  C   UNL     1       3.054   4.227  20.135  0.00  0.00    +0.000 A 
ATOM      7  C   UNL     1       3.540   5.117  19.175  0.00  0.00    +0.000 A 
ATOM      8  C   UNL     1       4.122   4.637  17.978  0.00  0.00    +0.000 A 
ATOM      9  C   UNL     1       4.694   5.236  16.794  0.00  0.00    +0.000 A 
ATOM     10  H   UNL     1       4.990   2.100  16.243  0.00  0.00    +0.000 HD
ENDROOT
BRANCH   1  17
ATOM     11  C   UNL     1       8.676   5.864  12.843  0.00  0.00    +0.000 C 
ATOM     12  C   UNL     1       7.496   4.967  13.085  0.00  0.00    +0.000 A 
ATOM     13  C   UNL     1       7.004   4.130  12.083  0.00  0.00    +0.000 A 
ATOM     14  C   UNL     1       5.893   3.316  12.328  0.00  0.00    +0.000 A 
ATOM     15  C   UNL     1       5.385   2.380  11.268  0.00  0.00    +0.000 C 
ATOM     16  C   UNL     1       5.261   3.365  13.582  0.00  0.00    +0.000 A 
ATOM     17  C   UNL     1       5.745   4.184  14.615  0.00  0.00    +0.000 A 
ATOM     18  C   UNL     1       6.874   4.968  14.342  0.00  0.00    +0.000 A 
ENDBRANCH   1  17
BRANCH   9  19
ATOM     19  C   UNL     1       4.814   6.698  16.457  0.00  0.00    +0.000 C 
BRANCH  19  20
ATOM     20  C   UNL     1       5.644   7.572  17.397  0.00  0.00    +0.000 C 
BRANCH  20  21
ATOM     21  N   UNL     1       6.945   7.003  17.757  0.00  0.00    +0.000 NA
ATOM     22  H   UNL     1       7.049   6.081  17.334  0.00  0.00    +0.000 HD
BRANCH  21  23
ATOM     23  C   UNL     1       8.045   7.868  17.347  0.00  0.00    +0.000 C 
BRANCH  23  24
ATOM     24  C   UNL     1       7.835   9.251  17.940  0.00  0.00    +0.000 C 
BRANCH  24  25
ATOM     25  C   UNL     1       9.065   9.664  18.742  0.00  0.00    +0.000 C 
BRANCH  25  26
ATOM     26  C   UNL     1       9.559  11.008  18.283  0.00  0.00    +0.000 A 
ATOM     27  C   UNL     1       8.647  11.996  17.884  0.00  0.00    +0.000 A 
ATOM     28  C   UNL     1       9.105  13.222  17.405  0.00  0.00    +0.000 A 
ATOM     29  C   UNL     1      10.475  13.455  17.322  0.00  0.00    +0.000 A 
ATOM     30  C   UNL     1      11.390  12.483  17.707  0.00  0.00    +0.000 A 
ATOM     31  C   UNL     1      10.934  11.257  18.185  0.00  0.00    +0.000 A 
BRANCH  29  32
ATOM     32  O   UNL     1      10.963  14.638  16.855  0.00  0.00    +0.000 OA
ATOM     33  H   UNL     1      11.930  14.627  16.942  0.00  0.00    +0.000 HD
ENDBRANCH  29  32
ENDBRANCH  25  26
ENDBRANCH  24  25
ENDBRANCH  23  24
ENDBRANCH  21  23
ENDBRANCH  20  21
ENDBRANCH  19  20
ENDBRANCH   9  19
TORSDOF 9
ENDMDL
