MODEL 1
REMARK VINA RESULT:      -7.6      0.000      0.000
REMARK  Name = 
REMARK  5 active torsions:
REMARK  status: ('A' for Active; 'I' for Inactive)
REMARK    1  A    between atoms: C_1  and  S_2
REMARK    2  A    between atoms: S_2  and  N_5
REMARK    3  A    between atoms: N_5  and  C_6
REMARK    4  A    between atoms: C_11  and  N_12
REMARK    5  A    between atoms: N_12  and  C_13
REMARK                            x       y       z     vdW  Elec       q    Type
REMARK                         _______ _______ _______ _____ _____    ______ ____
ROOT
ATOM      1  C   UNL     1       6.536   4.325  17.336  0.00  0.00    +0.000 A 
ATOM      2  C   UNL     1       7.746   4.891  17.736  0.00  0.00    +0.000 A 
ATOM      3  C   UNL     1       7.815   5.472  18.985  0.00  0.00    +0.000 A 
ATOM      4  N   UNL     1       6.799   5.480  19.861  0.00  0.00    +0.000 NA
ATOM      5  C   UNL     1       5.634   4.914  19.445  0.00  0.00    +0.000 A 
ATOM      6  C   UNL     1       5.405   4.355  18.187  0.00  0.00    +0.000 A 
ENDROOT
BRANCH   1   7
ATOM      7  N   UNL     1       6.454   3.789  16.001  0.00  0.00    +0.000 N 
ATOM      8  H   UNL     1       7.197   3.108  15.833  0.00  0.00    +0.000 HD
BRANCH   7  10
ATOM      9  C   UNL     1       5.903   3.895  13.301  0.00  0.00    +0.000 C 
ATOM     10  S   UNL     1       6.426   4.872  14.705  0.00  0.00    +0.000 S 
ATOM     11  O   UNL     1       7.827   5.219  14.474  0.00  0.00    +0.000 OA
ATOM     12  O   UNL     1       5.449   5.904  14.963  0.00  0.00    +0.000 OA
ENDBRANCH   7  10
ENDBRANCH   1   7
BRANCH   6  13
ATOM     13  N   UNL     1       4.158   3.845  17.772  0.00  0.00    +0.000 N 
ATOM     14  H   UNL     1       3.909   3.032  18.339  0.00  0.00    +0.000 HD
BRANCH  13  15
ATOM     15  C   UNL     1       3.020   4.779  17.546  0.00  0.00    +0.000 C 
ATOM     16  C   UNL     1       1.813   4.322  18.376  0.00  0.00    +0.000 C 
ATOM     17  C   UNL     1       1.997   4.401  19.882  0.00  0.00    +0.000 C 
ATOM     18  C   UNL     1       1.710   5.755  20.519  0.00  0.00    +0.000 C 
ATOM     19  C   UNL     1       2.276   7.037  19.910  0.00  0.00    +0.000 C 
ATOM     20  C   UNL     1       2.396   7.171  18.394  0.00  0.00    +0.000 C 
ATOM     21  C   UNL     1       3.430   6.250  17.740  0.00  0.00    +0.000 C 
ENDBRANCH  13  15
ENDBRANCH   6  13
TORSDOF 4
ENDMDL
MODEL 2
REMARK VINA RESULT:      -7.6      0.858      1.504
REMARK  Name = 
REMARK  5 active torsions:
REMARK  status: ('A' for Active; 'I' for Inactive)
REMARK    1  A    between atoms: C_1  and  S_2
REMARK    2  A    between atoms: S_2  and  N_5
REMARK    3  A    between atoms: N_5  and  C_6
REMARK    4  A    between atoms: C_11  and  N_12
REMARK    5  A    between atoms: N_12  and  C_13
REMARK                            x       y       z     vdW  Elec       q    Type
REMARK                         _______ _______ _______ _____ _____    ______ ____
ROOT
ATOM      1  C   UNL     1       6.600   4.333  17.342  0.00  0.00    +0.000 A 
ATOM      2  C   UNL     1       7.868   4.743  17.752  0.00  0.00    +0.000 A 
ATOM      3  C   UNL     1       7.993   5.348  18.984  0.00  0.00    +0.000 A 
ATOM      4  N   UNL     1       6.971   5.521  19.837  0.00  0.00    +0.000 NA
ATOM      5  C   UNL     1       5.748   5.104  19.413  0.00  0.00    +0.000 A 
ATOM      6  C   UNL     1       5.468   4.542  18.166  0.00  0.00    +0.000 A 
ENDROOT
BRANCH   1   7
ATOM      7  N   UNL     1       6.470   3.771  16.021  0.00  0.00    +0.000 N 
ATOM      8  H   UNL     1       7.231   3.118  15.824  0.00  0.00    +0.000 HD
BRANCH   7  10
ATOM      9  C   UNL     1       5.946   3.781  13.313  0.00  0.00    +0.000 C 
ATOM     10  S   UNL     1       6.328   4.829  14.712  0.00  0.00    +0.000 S 
ATOM     11  O   UNL     1       7.680   5.341  14.493  0.00  0.00    +0.000 OA
ATOM     12  O   UNL     1       5.230   5.737  14.946  0.00  0.00    +0.000 OA
ENDBRANCH   7  10
ENDBRANCH   1   7
BRANCH   6  13
ATOM     13  N   UNL     1       4.171   4.192  17.739  0.00  0.00    +0.000 N 
ATOM     14  H   UNL     1       4.042   3.180  17.814  0.00  0.00    +0.000 HD
BRANCH  13  15
ATOM     15  C   UNL     1       3.001   4.976  18.222  0.00  0.00    +0.000 C 
ATOM     16  C   UNL     1       1.707   4.327  17.712  0.00  0.00    +0.000 C 
ATOM     17  C   UNL     1       1.416   2.944  18.267  0.00  0.00    +0.000 C 
ATOM     18  C   UNL     1       0.708   2.902  19.616  0.00  0.00    +0.000 C 
ATOM     19  C   UNL     1       1.183   3.780  20.772  0.00  0.00    +0.000 C 
ATOM     20  C   UNL     1       1.723   5.181  20.493  0.00  0.00    +0.000 C 
ATOM     21  C   UNL     1       3.057   5.224  19.740  0.00  0.00    +0.000 C 
ENDBRANCH  13  15
ENDBRANCH   6  13
TORSDOF 4
ENDMDL
MODEL 3
REMARK VINA RESULT:      -7.6      2.830      3.779
REMARK  Name = 
REMARK  5 active torsions:
REMARK  status: ('A' for Active; 'I' for Inactive)
REMARK    1  A    between atoms: C_1  and  S_2
REMARK    2  A    between atoms: S_2  and  N_5
REMARK    3  A    between atoms: N_5  and  C_6
REMARK    4  A    between atoms: C_11  and  N_12
REMARK    5  A    between atoms: N_12  and  C_13
REMARK                            x       y       z     vdW  Elec       q    Type
REMARK                         _______ _______ _______ _____ _____    ______ ____
ROOT
ATOM      1  C   UNL     1       6.708   4.401  16.791  0.00  0.00    +0.000 A 
ATOM      2  C   UNL     1       7.415   4.623  15.610  0.00  0.00    +0.000 A 
ATOM      3  C   UNL     1       6.709   4.681  14.427  0.00  0.00    +0.000 A 
ATOM      4  N   UNL     1       5.373   4.588  14.350  0.00  0.00    +0.000 NA
ATOM      5  C   UNL     1       4.710   4.380  15.519  0.00  0.00    +0.000 A 
ATOM      6  C   UNL     1       5.302   4.232  16.774  0.00  0.00    +0.000 A 
ENDROOT
BRANCH   1   7
ATOM      7  N   UNL     1       7.463   4.267  18.011  0.00  0.00    +0.000 N 
ATOM      8  H   UNL     1       7.231   3.395  18.491  0.00  0.00    +0.000 HD
BRANCH   7  10
ATOM      9  C   UNL     1       7.814   6.995  18.208  0.00  0.00    +0.000 C 
ATOM     10  S   UNL     1       7.396   5.525  19.137  0.00  0.00    +0.000 S 
ATOM     11  O   UNL     1       8.512   5.275  20.047  0.00  0.00    +0.000 OA
ATOM     12  O   UNL     1       6.049   5.643  19.644  0.00  0.00    +0.000 OA
ENDBRANCH   7  10
ENDBRANCH   1   7
BRANCH   6  13
ATOM     13  N   UNL     1       4.581   3.943  17.951  0.00  0.00    +0.000 N 
ATOM     14  H   UNL     1       4.322   4.813  18.421  0.00  0.00    +0.000 HD
BRANCH  13  15
ATOM     15  C   UNL     1       3.480   2.941  17.911  0.00  0.00    +0.000 C 
ATOM     16  C   UNL     1       3.647   1.955  19.076  0.00  0.00    +0.000 C 
ATOM     17  C   UNL     1       3.481   2.557  20.461  0.00  0.00    +0.000 C 
ATOM     18  C   UNL     1       2.051   2.663  20.975  0.00  0.00    +0.000 C 
ATOM     19  C   UNL     1       0.944   3.224  20.084  0.00  0.00    +0.000 C 
ATOM     20  C   UNL     1       0.955   2.940  18.584  0.00  0.00    +0.000 C 
ATOM     21  C   UNL     1       2.096   3.603  17.806  0.00  0.00    +0.000 C 
ENDBRANCH  13  15
ENDBRANCH   6  13
TORSDOF 4
ENDMDL
MODEL 4
REMARK VINA RESULT:      -7.5      1.537      2.026
REMARK  Name = 
REMARK  5 active torsions:
REMARK  status: ('A' for Active; 'I' for Inactive)
REMARK    1  A    between atoms: C_1  and  S_2
REMARK    2  A    between atoms: S_2  and  N_5
REMARK    3  A    between atoms: N_5  and  C_6
REMARK    4  A    between atoms: C_11  and  N_12
REMARK    5  A    between atoms: N_12  and  C_13
REMARK                            x       y       z     vdW  Elec       q    Type
REMARK                         _______ _______ _______ _____ _____    ______ ____
ROOT
ATOM      1  C   UNL     1       6.568   4.407  17.424  0.00  0.00    +0.000 A 
ATOM      2  C   UNL     1       7.871   4.771  17.761  0.00  0.00    +0.000 A 
ATOM      3  C   UNL     1       8.087   5.377  18.980  0.00  0.00    +0.000 A 
ATOM      4  N   UNL     1       7.122   5.594  19.887  0.00  0.00    +0.000 NA
ATOM      5  C   UNL     1       5.862   5.221  19.533  0.00  0.00    +0.000 A 
ATOM      6  C   UNL     1       5.492   4.664  18.309  0.00  0.00    +0.000 A 
ENDROOT
BRANCH   1   7
ATOM      7  N   UNL     1       6.344   3.844  16.117  0.00  0.00    +0.000 N 
ATOM      8  H   UNL     1       6.988   3.072  15.935  0.00  0.00    +0.000 HD
BRANCH   7  10
ATOM      9  C   UNL     1       5.877   3.862  13.399  0.00  0.00    +0.000 C 
ATOM     10  S   UNL     1       6.369   4.881  14.784  0.00  0.00    +0.000 S 
ATOM     11  O   UNL     1       7.781   5.203  14.585  0.00  0.00    +0.000 OA
ATOM     12  O   UNL     1       5.399   5.933  14.976  0.00  0.00    +0.000 OA
ENDBRANCH   7  10
ENDBRANCH   1   7
BRANCH   6  13
ATOM     13  N   UNL     1       4.161   4.361  17.956  0.00  0.00    +0.000 N 
ATOM     14  H   UNL     1       4.008   4.571  16.967  0.00  0.00    +0.000 HD
BRANCH  13  15
ATOM     15  C   UNL     1       3.563   3.068  18.387  0.00  0.00    +0.000 C 
ATOM     16  C   UNL     1       3.566   2.990  19.920  0.00  0.00    +0.000 C 
ATOM     17  C   UNL     1       2.676   4.003  20.619  0.00  0.00    +0.000 C 
ATOM     18  C   UNL     1       1.211   3.612  20.770  0.00  0.00    +0.000 C 
ATOM     19  C   UNL     1       0.432   3.043  19.585  0.00  0.00    +0.000 C 
ATOM     20  C   UNL     1       1.131   2.129  18.581  0.00  0.00    +0.000 C 
ATOM     21  C   UNL     1       2.200   2.808  17.720  0.00  0.00    +0.000 C 
ENDBRANCH  13  15
ENDBRANCH   6  13
TORSDOF 4
ENDMDL
MODEL 5
REMARK VINA RESULT:      -7.4      1.271      1.930
REMARK  Name = 
REMARK  5 active torsions:
REMARK  status: ('A' for Active; 'I' for Inactive)
REMARK    1  A    between atoms: C_1  and  S_2
REMARK    2  A    between atoms: S_2  and  N_5
REMARK    3  A    between atoms: N_5  and  C_6
REMARK    4  A    between atoms: C_11  and  N_12
REMARK    5  A    between atoms: N_12  and  C_13
REMARK                            x       y       z     vdW  Elec       q    Type
REMARK                         _______ _______ _______ _____ _____    ______ ____
ROOT
ATOM      1  C   UNL     1       6.564   4.324  17.355  0.00  0.00    +0.000 A 
ATOM      2  C   UNL     1       7.820   4.835  17.678  0.00  0.00    +0.000 A 
ATOM      3  C   UNL     1       7.984   5.438  18.908  0.00  0.00    +0.000 A 
ATOM      4  N   UNL     1       7.017   5.519  19.834  0.00  0.00    +0.000 NA
ATOM      5  C   UNL     1       5.805   5.005  19.493  0.00  0.00    +0.000 A 
ATOM      6  C   UNL     1       5.482   4.431  18.262  0.00  0.00    +0.000 A 
ENDROOT
BRANCH   1   7
ATOM      7  N   UNL     1       6.385   3.764  16.039  0.00  0.00    +0.000 N 
ATOM      8  H   UNL     1       7.105   3.069  15.836  0.00  0.00    +0.000 HD
BRANCH   7  10
ATOM      9  C   UNL     1       5.290   6.190  15.313  0.00  0.00    +0.000 C 
ATOM     10  S   UNL     1       6.284   4.823  14.727  0.00  0.00    +0.000 S 
ATOM     11  O   UNL     1       5.477   4.115  13.734  0.00  0.00    +0.000 OA
ATOM     12  O   UNL     1       7.605   5.298  14.391  0.00  0.00    +0.000 OA
ENDBRANCH   7  10
ENDBRANCH   1   7
BRANCH   6  13
ATOM     13  N   UNL     1       4.190   3.978  17.924  0.00  0.00    +0.000 N 
ATOM     14  H   UNL     1       4.107   2.981  18.133  0.00  0.00    +0.000 HD
BRANCH  13  15
ATOM     15  C   UNL     1       3.001   4.772  18.340  0.00  0.00    +0.000 C 
ATOM     16  C   UNL     1       1.732   4.131  17.761  0.00  0.00    +0.000 C 
ATOM     17  C   UNL     1       1.401   2.751  18.301  0.00  0.00    +0.000 C 
ATOM     18  C   UNL     1       0.619   2.717  19.609  0.00  0.00    +0.000 C 
ATOM     19  C   UNL     1       1.035   3.595  20.787  0.00  0.00    +0.000 C 
ATOM     20  C   UNL     1       1.600   4.991  20.536  0.00  0.00    +0.000 C 
ATOM     21  C   UNL     1       2.974   5.024  19.858  0.00  0.00    +0.000 C 
ENDBRANCH  13  15
ENDBRANCH   6  13
TORSDOF 4
ENDMDL
MODEL 6
REMARK VINA RESULT:      -7.4      2.218      3.545
REMARK  Name = 
REMARK  5 active torsions:
REMARK  status: ('A' for Active; 'I' for Inactive)
REMARK    1  A    between atoms: C_1  and  S_2
REMARK    2  A    between atoms: S_2  and  N_5
REMARK    3  A    between atoms: N_5  and  C_6
REMARK    4  A    between atoms: C_11  and  N_12
REMARK    5  A    between atoms: N_12  and  C_13
REMARK                            x       y       z     vdW  Elec       q    Type
REMARK                         _______ _______ _______ _____ _____    ______ ____
ROOT
ATOM      1  C   UNL     1       4.381   6.092  17.579  0.00  0.00    +0.000 A 
ATOM      2  C   UNL     1       3.724   7.260  17.193  0.00  0.00    +0.000 A 
ATOM      3  C   UNL     1       2.796   7.803  18.057  0.00  0.00    +0.000 A 
ATOM      4  N   UNL     1       2.525   7.303  19.272  0.00  0.00    +0.000 NA
ATOM      5  C   UNL     1       3.187   6.168  19.623  0.00  0.00    +0.000 A 
ATOM      6  C   UNL     1       4.096   5.476  18.821  0.00  0.00    +0.000 A 
ENDROOT
BRANCH   1   7
ATOM      7  N   UNL     1       5.291   5.492  16.637  0.00  0.00    +0.000 N 
ATOM      8  H   UNL     1       5.095   4.496  16.522  0.00  0.00    +0.000 HD
BRANCH   7  10
ATOM      9  C   UNL     1       7.129   7.334  17.552  0.00  0.00    +0.000 C 
ATOM     10  S   UNL     1       6.950   5.679  16.897  0.00  0.00    +0.000 S 
ATOM     11  O   UNL     1       7.541   5.694  15.559  0.00  0.00    +0.000 OA
ATOM     12  O   UNL     1       7.393   4.721  17.882  0.00  0.00    +0.000 OA
ENDBRANCH   7  10
ENDBRANCH   1   7
BRANCH   6  13
ATOM     13  N   UNL     1       4.705   4.261  19.197  0.00  0.00    +0.000 N 
ATOM     14  H   UNL     1       5.115   4.352  20.129  0.00  0.00    +0.000 HD
BRANCH  13  15
ATOM     15  C   UNL     1       3.974   2.979  18.995  0.00  0.00    +0.000 C 
ATOM     16  C   UNL     1       3.692   2.333  20.358  0.00  0.00    +0.000 C 
ATOM     17  C   UNL     1       2.741   3.106  21.255  0.00  0.00    +0.000 C 
ATOM     18  C   UNL     1       1.255   2.862  21.020  0.00  0.00    +0.000 C 
ATOM     19  C   UNL     1       0.679   2.874  19.605  0.00  0.00    +0.000 C 
ATOM     20  C   UNL     1       1.504   2.328  18.442  0.00  0.00    +0.000 C 
ATOM     21  C   UNL     1       2.745   3.150  18.084  0.00  0.00    +0.000 C 
ENDBRANCH  13  15
ENDBRANCH   6  13
TORSDOF 4
ENDMDL
MODEL 7
REMARK VINA RESULT:      -7.3      1.799      2.319
REMARK  Name = 
REMARK  5 active torsions:
REMARK  status: ('A' for Active; 'I' for Inactive)
REMARK    1  A    between atoms: C_1  and  S_2
REMARK    2  A    between atoms: S_2  and  N_5
REMARK    3  A    between atoms: N_5  and  C_6
REMARK    4  A    between atoms: C_11  and  N_12
REMARK    5  A    between atoms: N_12  and  C_13
REMARK                            x       y       z     vdW  Elec       q    Type
REMARK                         _______ _______ _______ _____ _____    ______ ____
ROOT
ATOM      1  C   UNL     1       6.471   4.367  17.424  0.00  0.00    +0.000 A 
ATOM      2  C   UNL     1       7.797   4.688  17.711  0.00  0.00    +0.000 A 
ATOM      3  C   UNL     1       8.076   5.301  18.914  0.00  0.00    +0.000 A 
ATOM      4  N   UNL     1       7.151   5.562  19.850  0.00  0.00    +0.000 NA
ATOM      5  C   UNL     1       5.868   5.230  19.545  0.00  0.00    +0.000 A 
ATOM      6  C   UNL     1       5.436   4.671  18.342  0.00  0.00    +0.000 A 
ENDROOT
BRANCH   1   7
ATOM      7  N   UNL     1       6.182   3.796  16.133  0.00  0.00    +0.000 N 
ATOM      8  H   UNL     1       6.793   3.000  15.939  0.00  0.00    +0.000 HD
BRANCH   7  10
ATOM      9  C   UNL     1       5.293   6.271  15.302  0.00  0.00    +0.000 C 
ATOM     10  S   UNL     1       6.196   4.815  14.786  0.00  0.00    +0.000 S 
ATOM     11  O   UNL     1       5.364   4.137  13.793  0.00  0.00    +0.000 OA
ATOM     12  O   UNL     1       7.558   5.179  14.474  0.00  0.00    +0.000 OA
ENDBRANCH   7  10
ENDBRANCH   1   7
BRANCH   6  13
ATOM     13  N   UNL     1       4.084   4.412  18.039  0.00  0.00    +0.000 N 
ATOM     14  H   UNL     1       3.881   4.702  17.080  0.00  0.00    +0.000 HD
BRANCH  13  15
ATOM     15  C   UNL     1       3.491   3.093  18.397  0.00  0.00    +0.000 C 
ATOM     16  C   UNL     1       3.564   2.897  19.917  0.00  0.00    +0.000 C 
ATOM     17  C   UNL     1       2.720   3.860  20.734  0.00  0.00    +0.000 C 
ATOM     18  C   UNL     1       1.259   3.471  20.923  0.00  0.00    +0.000 C 
ATOM     19  C   UNL     1       0.419   3.002  19.737  0.00  0.00    +0.000 C 
ATOM     20  C   UNL     1       1.060   2.163  18.634  0.00  0.00    +0.000 C 
ATOM     21  C   UNL     1       2.096   2.898  17.777  0.00  0.00    +0.000 C 
ENDBRANCH  13  15
ENDBRANCH   6  13
TORSDOF 4
ENDMDL
MODEL 8
REMARK VINA RESULT:      -7.3      1.228      1.791
REMARK  Name = 
REMARK  5 active torsions:
REMARK  status: ('A' for Active; 'I' for Inactive)
REMARK    1  A    between atoms: C_1  and  S_2
REMARK    2  A    between atoms: S_2  and  N_5
REMARK    3  A    between atoms: N_5  and  C_6
REMARK    4  A    between atoms: C_11  and  N_12
REMARK    5  A    between atoms: N_12  and  C_13
REMARK                            x       y       z     vdW  Elec       q    Type
REMARK                         _______ _______ _______ _____ _____    ______ ____
ROOT
ATOM      1  C   UNL     1       6.280   5.703  17.140  0.00  0.00    +0.000 A 
ATOM      2  C   UNL     1       7.489   6.257  17.558  0.00  0.00    +0.000 A 
ATOM      3  C   UNL     1       7.818   6.174  18.895  0.00  0.00    +0.000 A 
ATOM      4  N   UNL     1       7.066   5.547  19.811  0.00  0.00    +0.000 NA
ATOM      5  C   UNL     1       5.896   5.010  19.372  0.00  0.00    +0.000 A 
ATOM      6  C   UNL     1       5.408   5.081  18.066  0.00  0.00    +0.000 A 
ENDROOT
BRANCH   1   7
ATOM      7  N   UNL     1       5.911   5.862  15.756  0.00  0.00    +0.000 N 
ATOM      8  H   UNL     1       4.896   5.868  15.646  0.00  0.00    +0.000 HD
BRANCH   7  10
ATOM      9  C   UNL     1       5.175   4.295  13.609  0.00  0.00    +0.000 C 
ATOM     10  S   UNL     1       6.561   4.786  14.627  0.00  0.00    +0.000 S 
ATOM     11  O   UNL     1       6.945   3.610  15.405  0.00  0.00    +0.000 OA
ATOM     12  O   UNL     1       7.535   5.475  13.813  0.00  0.00    +0.000 OA
ENDBRANCH   7  10
ENDBRANCH   1   7
BRANCH   6  13
ATOM     13  N   UNL     1       4.153   4.574  17.670  0.00  0.00    +0.000 N 
ATOM     14  H   UNL     1       4.145   3.556  17.764  0.00  0.00    +0.000 HD
BRANCH  13  15
ATOM     15  C   UNL     1       2.908   5.225  18.165  0.00  0.00    +0.000 C 
ATOM     16  C   UNL     1       1.690   4.419  17.694  0.00  0.00    +0.000 C 
ATOM     17  C   UNL     1       1.575   3.022  18.278  0.00  0.00    +0.000 C 
ATOM     18  C   UNL     1       0.902   2.923  19.642  0.00  0.00    +0.000 C 
ATOM     19  C   UNL     1       1.293   3.873  20.773  0.00  0.00    +0.000 C 
ATOM     20  C   UNL     1       1.659   5.322  20.458  0.00  0.00    +0.000 C 
ATOM     21  C   UNL     1       2.963   5.507  19.677  0.00  0.00    +0.000 C 
ENDBRANCH  13  15
ENDBRANCH   6  13
TORSDOF 4
ENDMDL
MODEL 9
REMARK VINA RESULT:      -7.2      0.871      1.068
REMARK  Name = 
REMARK  5 active torsions:
REMARK  status: ('A' for Active; 'I' for Inactive)
REMARK    1  A    between atoms: C_1  and  S_2
REMARK    2  A    between atoms: S_2  and  N_5
REMARK    3  A    between atoms: N_5  and  C_6
REMARK    4  A    between atoms: C_11  and  N_12
REMARK    5  A    between atoms: N_12  and  C_13
REMARK                            x       y       z     vdW  Elec       q    Type
REMARK                         _______ _______ _______ _____ _____    ______ ____
ROOT
ATOM      1  C   UNL     1       6.416   4.251  17.321  0.00  0.00    +0.000 A 
ATOM      2  C   UNL     1       7.650   4.808  17.654  0.00  0.00    +0.000 A 
ATOM      3  C   UNL     1       7.784   5.412  18.887  0.00  0.00    +0.000 A 
ATOM      4  N   UNL     1       6.809   5.451  19.808  0.00  0.00    +0.000 NA
ATOM      5  C   UNL     1       5.620   4.892  19.458  0.00  0.00    +0.000 A 
ATOM      6  C   UNL     1       5.326   4.312  18.222  0.00  0.00    +0.000 A 
ENDROOT
BRANCH   1   7
ATOM      7  N   UNL     1       6.266   3.691  16.002  0.00  0.00    +0.000 N 
ATOM      8  H   UNL     1       6.928   2.927  15.851  0.00  0.00    +0.000 HD
BRANCH   7  10
ATOM      9  C   UNL     1       5.312   6.123  15.117  0.00  0.00    +0.000 C 
ATOM     10  S   UNL     1       6.349   4.734  14.676  0.00  0.00    +0.000 S 
ATOM     11  O   UNL     1       5.662   4.025  13.597  0.00  0.00    +0.000 OA
ATOM     12  O   UNL     1       7.710   5.184  14.504  0.00  0.00    +0.000 OA
ENDBRANCH   7  10
ENDBRANCH   1   7
BRANCH   6  13
ATOM     13  N   UNL     1       4.055   3.810  17.875  0.00  0.00    +0.000 N 
ATOM     14  H   UNL     1       3.817   3.021  18.479  0.00  0.00    +0.000 HD
BRANCH  13  15
ATOM     15  C   UNL     1       2.924   4.757  17.664  0.00  0.00    +0.000 C 
ATOM     16  C   UNL     1       1.713   4.295  18.487  0.00  0.00    +0.000 C 
ATOM     17  C   UNL     1       1.898   4.348  19.994  0.00  0.00    +0.000 C 
ATOM     18  C   UNL     1       1.622   5.694  20.653  0.00  0.00    +0.000 C 
ATOM     19  C   UNL     1       2.196   6.982  20.064  0.00  0.00    +0.000 C 
ATOM     20  C   UNL     1       2.318   7.139  18.550  0.00  0.00    +0.000 C 
ATOM     21  C   UNL     1       3.345   6.221  17.881  0.00  0.00    +0.000 C 
ENDBRANCH  13  15
ENDBRANCH   6  13
TORSDOF 4
ENDMDL
