MODEL 1
REMARK VINA RESULT:      -7.9      0.000      0.000
REMARK  Name = 
REMARK  3 active torsions:
REMARK  status: ('A' for Active; 'I' for Inactive)
REMARK    1  A    between atoms: C_2  and  C_3
REMARK    2  A    between atoms: C_2  and  C_4
REMARK    3  A    between atoms: C_7  and  C_8
REMARK                            x       y       z     vdW  Elec       q    Type
REMARK                         _______ _______ _______ _____ _____    ______ ____
ROOT
ATOM      1  C   UNL     1       6.386   4.282  15.249  0.00  0.00    +0.000 C 
ATOM      2  C   UNL     1       4.908   4.585  15.636  0.00  0.00    +0.000 C 
ATOM      3  C   UNL     1       4.323   3.382  16.352  0.00  0.00    +0.000 C 
ATOM      4  C   UNL     1       3.882   3.264  17.620  0.00  0.00    +0.000 C 
ATOM      5  C   UNL     1       3.437   1.919  18.147  0.00  0.00    +0.000 C 
ATOM      6  C   UNL     1       3.750   4.375  18.631  0.00  0.00    +0.000 C 
ATOM      7  F   UNL     1       3.355   5.541  18.049  0.00  0.00    +0.000 F 
ATOM      8  C   UNL     1       5.005   4.598  19.489  0.00  0.00    +0.000 C 
ATOM      9  C   UNL     1       5.907   5.747  19.019  0.00  0.00    +0.000 C 
ATOM     10  C   UNL     1       7.238   5.459  18.353  0.00  0.00    +0.000 C 
ATOM     11  C   UNL     1       7.481   4.475  17.483  0.00  0.00    +0.000 C 
ATOM     12  C   UNL     1       7.482   5.001  16.082  0.00  0.00    +0.000 C 
ATOM     13  O   UNL     1       7.350   6.408  16.245  0.00  0.00    +0.000 OA
ATOM     14  C   UNL     1       7.588   6.669  17.554  0.00  0.00    +0.000 C 
ATOM     15  O   UNL     1       7.961   7.729  18.035  0.00  0.00    +0.000 OA
ENDROOT
BRANCH   1  17
ATOM     16  C   UNL     1       5.819   3.580  12.934  0.00  0.00    +0.000 C 
ATOM     17  C   UNL     1       6.626   4.310  13.741  0.00  0.00    +0.000 C 
ATOM     18  C   UNL     1       7.730   5.144  13.174  0.00  0.00    +0.000 C 
ENDBRANCH   1  17
TORSDOF 1
ENDMDL
MODEL 2
REMARK VINA RESULT:      -7.2      3.265      5.791
REMARK  Name = 
REMARK  3 active torsions:
REMARK  status: ('A' for Active; 'I' for Inactive)
REMARK    1  A    between atoms: C_2  and  C_3
REMARK    2  A    between atoms: C_2  and  C_4
REMARK    3  A    between atoms: C_7  and  C_8
REMARK                            x       y       z     vdW  Elec       q    Type
REMARK                         _______ _______ _______ _____ _____    ______ ____
ROOT
ATOM      1  C   UNL     1       3.073   6.905  18.774  0.00  0.00    +0.000 C 
ATOM      2  C   UNL     1       3.690   7.208  17.376  0.00  0.00    +0.000 C 
ATOM      3  C   UNL     1       5.182   7.438  17.527  0.00  0.00    +0.000 C 
ATOM      4  C   UNL     1       6.218   6.729  17.038  0.00  0.00    +0.000 C 
ATOM      5  C   UNL     1       7.635   7.094  17.417  0.00  0.00    +0.000 C 
ATOM      6  C   UNL     1       6.136   5.560  16.089  0.00  0.00    +0.000 C 
ATOM      7  F   UNL     1       5.139   5.723  15.176  0.00  0.00    +0.000 F 
ATOM      8  C   UNL     1       6.017   4.193  16.781  0.00  0.00    +0.000 C 
ATOM      9  C   UNL     1       4.588   3.640  16.865  0.00  0.00    +0.000 C 
ATOM     10  C   UNL     1       3.848   3.617  18.188  0.00  0.00    +0.000 C 
ATOM     11  C   UNL     1       3.886   4.571  19.123  0.00  0.00    +0.000 C 
ATOM     12  C   UNL     1       2.664   5.432  19.046  0.00  0.00    +0.000 C 
ATOM     13  O   UNL     1       1.858   4.794  18.063  0.00  0.00    +0.000 OA
ATOM     14  C   UNL     1       2.393   3.564  17.865  0.00  0.00    +0.000 C 
ATOM     15  O   UNL     1       1.819   2.576  17.429  0.00  0.00    +0.000 OA
ENDROOT
BRANCH   1  17
ATOM     16  C   UNL     1       1.559   7.904  20.472  0.00  0.00    +0.000 C 
ATOM     17  C   UNL     1       2.031   7.935  19.202  0.00  0.00    +0.000 C 
ATOM     18  C   UNL     1       1.553   8.965  18.229  0.00  0.00    +0.000 C 
ENDBRANCH   1  17
TORSDOF 1
ENDMDL
MODEL 3
REMARK VINA RESULT:      -7.1      3.090      4.835
REMARK  Name = 
REMARK  3 active torsions:
REMARK  status: ('A' for Active; 'I' for Inactive)
REMARK    1  A    between atoms: C_2  and  C_3
REMARK    2  A    between atoms: C_2  and  C_4
REMARK    3  A    between atoms: C_7  and  C_8
REMARK                            x       y       z     vdW  Elec       q    Type
REMARK                         _______ _______ _______ _____ _____    ______ ____
ROOT
ATOM      1  C   UNL     1       2.627   6.340  18.756  0.00  0.00    +0.000 C 
ATOM      2  C   UNL     1       2.170   5.483  19.974  0.00  0.00    +0.000 C 
ATOM      3  C   UNL     1       1.244   4.382  19.491  0.00  0.00    +0.000 C 
ATOM      4  C   UNL     1       1.406   3.045  19.520  0.00  0.00    +0.000 C 
ATOM      5  C   UNL     1       0.381   2.141  18.873  0.00  0.00    +0.000 C 
ATOM      6  C   UNL     1       2.538   2.293  20.174  0.00  0.00    +0.000 C 
ATOM      7  F   UNL     1       2.939   2.891  21.329  0.00  0.00    +0.000 F 
ATOM      8  C   UNL     1       3.740   2.038  19.252  0.00  0.00    +0.000 C 
ATOM      9  C   UNL     1       4.901   3.027  19.425  0.00  0.00    +0.000 C 
ATOM     10  C   UNL     1       5.178   4.082  18.373  0.00  0.00    +0.000 C 
ATOM     11  C   UNL     1       4.256   4.774  17.697  0.00  0.00    +0.000 C 
ATOM     12  C   UNL     1       4.092   6.142  18.282  0.00  0.00    +0.000 C 
ATOM     13  O   UNL     1       5.108   6.213  19.275  0.00  0.00    +0.000 OA
ATOM     14  C   UNL     1       5.943   5.170  19.047  0.00  0.00    +0.000 C 
ATOM     15  O   UNL     1       7.114   5.080  19.387  0.00  0.00    +0.000 OA
ENDROOT
BRANCH   1  17
ATOM     16  C   UNL     1       2.325   8.602  17.773  0.00  0.00    +0.000 C 
ATOM     17  C   UNL     1       2.192   7.800  18.857  0.00  0.00    +0.000 C 
ATOM     18  C   UNL     1       1.619   8.324  20.135  0.00  0.00    +0.000 C 
ENDBRANCH   1  17
TORSDOF 1
ENDMDL
MODEL 4
REMARK VINA RESULT:      -7.0      2.999      5.467
REMARK  Name = 
REMARK  3 active torsions:
REMARK  status: ('A' for Active; 'I' for Inactive)
REMARK    1  A    between atoms: C_2  and  C_3
REMARK    2  A    between atoms: C_2  and  C_4
REMARK    3  A    between atoms: C_7  and  C_8
REMARK                            x       y       z     vdW  Elec       q    Type
REMARK                         _______ _______ _______ _____ _____    ______ ____
ROOT
ATOM      1  C   UNL     1       3.561   3.743  19.341  0.00  0.00    +0.000 C 
ATOM      2  C   UNL     1       5.008   4.272  19.108  0.00  0.00    +0.000 C 
ATOM      3  C   UNL     1       5.445   3.925  17.696  0.00  0.00    +0.000 C 
ATOM      4  C   UNL     1       5.748   4.736  16.664  0.00  0.00    +0.000 C 
ATOM      5  C   UNL     1       6.057   4.151  15.304  0.00  0.00    +0.000 C 
ATOM      6  C   UNL     1       5.842   6.241  16.703  0.00  0.00    +0.000 C 
ATOM      7  F   UNL     1       6.362   6.682  17.881  0.00  0.00    +0.000 F 
ATOM      8  C   UNL     1       4.522   6.963  16.391  0.00  0.00    +0.000 C 
ATOM      9  C   UNL     1       3.742   7.434  17.625  0.00  0.00    +0.000 C 
ATOM     10  C   UNL     1       2.471   6.726  18.050  0.00  0.00    +0.000 C 
ATOM     11  C   UNL     1       2.259   5.407  18.012  0.00  0.00    +0.000 C 
ATOM     12  C   UNL     1       2.431   4.808  19.373  0.00  0.00    +0.000 C 
ATOM     13  O   UNL     1       2.629   5.934  20.219  0.00  0.00    +0.000 OA
ATOM     14  C   UNL     1       2.276   7.026  19.498  0.00  0.00    +0.000 C 
ATOM     15  O   UNL     1       1.919   8.111  19.935  0.00  0.00    +0.000 OA
ENDROOT
BRANCH   1  17
ATOM     16  C   UNL     1       4.505   1.838  20.627  0.00  0.00    +0.000 C 
ATOM     17  C   UNL     1       3.478   2.706  20.458  0.00  0.00    +0.000 C 
ATOM     18  C   UNL     1       2.281   2.666  21.354  0.00  0.00    +0.000 C 
ENDBRANCH   1  17
TORSDOF 1
ENDMDL
MODEL 5
REMARK VINA RESULT:      -6.9      3.046      4.914
REMARK  Name = 
REMARK  3 active torsions:
REMARK  status: ('A' for Active; 'I' for Inactive)
REMARK    1  A    between atoms: C_2  and  C_3
REMARK    2  A    between atoms: C_2  and  C_4
REMARK    3  A    between atoms: C_7  and  C_8
REMARK                            x       y       z     vdW  Elec       q    Type
REMARK                         _______ _______ _______ _____ _____    ______ ____
ROOT
ATOM      1  C   UNL     1       4.031   5.478  17.479  0.00  0.00    +0.000 C 
ATOM      2  C   UNL     1       4.140   5.739  19.011  0.00  0.00    +0.000 C 
ATOM      3  C   UNL     1       2.960   6.582  19.459  0.00  0.00    +0.000 C 
ATOM      4  C   UNL     1       1.955   6.280  20.305  0.00  0.00    +0.000 C 
ATOM      5  C   UNL     1       0.820   7.255  20.515  0.00  0.00    +0.000 C 
ATOM      6  C   UNL     1       1.826   5.025  21.131  0.00  0.00    +0.000 C 
ATOM      7  F   UNL     1       3.036   4.593  21.583  0.00  0.00    +0.000 F 
ATOM      8  C   UNL     1       1.073   3.884  20.429  0.00  0.00    +0.000 C 
ATOM      9  C   UNL     1       1.975   2.822  19.785  0.00  0.00    +0.000 C 
ATOM     10  C   UNL     1       2.120   2.746  18.278  0.00  0.00    +0.000 C 
ATOM     11  C   UNL     1       2.194   3.789  17.445  0.00  0.00    +0.000 C 
ATOM     12  C   UNL     1       3.614   4.045  17.049  0.00  0.00    +0.000 C 
ATOM     13  O   UNL     1       4.332   2.962  17.630  0.00  0.00    +0.000 OA
ATOM     14  C   UNL     1       3.407   2.044  18.005  0.00  0.00    +0.000 C 
ATOM     15  O   UNL     1       3.587   0.846  18.168  0.00  0.00    +0.000 OA
ENDROOT
BRANCH   1  17
ATOM     16  C   UNL     1       6.008   6.970  17.283  0.00  0.00    +0.000 C 
ATOM     17  C   UNL     1       5.206   6.053  16.691  0.00  0.00    +0.000 C 
ATOM     18  C   UNL     1       5.463   5.594  15.292  0.00  0.00    +0.000 C 
ENDBRANCH   1  17
TORSDOF 1
ENDMDL
MODEL 6
REMARK VINA RESULT:      -6.9      2.850      4.417
REMARK  Name = 
REMARK  3 active torsions:
REMARK  status: ('A' for Active; 'I' for Inactive)
REMARK    1  A    between atoms: C_2  and  C_3
REMARK    2  A    between atoms: C_2  and  C_4
REMARK    3  A    between atoms: C_7  and  C_8
REMARK                            x       y       z     vdW  Elec       q    Type
REMARK                         _______ _______ _______ _____ _____    ______ ____
ROOT
ATOM      1  C   UNL     1       4.739   4.700  16.386  0.00  0.00    +0.000 C 
ATOM      2  C   UNL     1       4.922   5.619  17.630  0.00  0.00    +0.000 C 
ATOM      3  C   UNL     1       3.989   6.811  17.512  0.00  0.00    +0.000 C 
ATOM      4  C   UNL     1       2.949   7.173  18.288  0.00  0.00    +0.000 C 
ATOM      5  C   UNL     1       2.091   8.357  17.905  0.00  0.00    +0.000 C 
ATOM      6  C   UNL     1       2.522   6.517  19.577  0.00  0.00    +0.000 C 
ATOM      7  F   UNL     1       3.592   6.093  20.305  0.00  0.00    +0.000 F 
ATOM      8  C   UNL     1       1.505   5.379  19.398  0.00  0.00    +0.000 C 
ATOM      9  C   UNL     1       2.112   3.970  19.413  0.00  0.00    +0.000 C 
ATOM     10  C   UNL     1       2.221   3.165  18.133  0.00  0.00    +0.000 C 
ATOM     11  C   UNL     1       2.542   3.647  16.930  0.00  0.00    +0.000 C 
ATOM     12  C   UNL     1       3.978   3.366  16.617  0.00  0.00    +0.000 C 
ATOM     13  O   UNL     1       4.412   2.555  17.702  0.00  0.00    +0.000 OA
ATOM     14  C   UNL     1       3.293   2.152  18.353  0.00  0.00    +0.000 C 
ATOM     15  O   UNL     1       3.174   1.165  19.065  0.00  0.00    +0.000 OA
ENDROOT
BRANCH   1  17
ATOM     16  C   UNL     1       7.209   4.812  16.139  0.00  0.00    +0.000 C 
ATOM     17  C   UNL     1       6.012   4.561  15.555  0.00  0.00    +0.000 C 
ATOM     18  C   UNL     1       5.928   4.143  14.122  0.00  0.00    +0.000 C 
ENDBRANCH   1  17
TORSDOF 1
ENDMDL
MODEL 7
REMARK VINA RESULT:      -6.8      3.853      6.138
REMARK  Name = 
REMARK  3 active torsions:
REMARK  status: ('A' for Active; 'I' for Inactive)
REMARK    1  A    between atoms: C_2  and  C_3
REMARK    2  A    between atoms: C_2  and  C_4
REMARK    3  A    between atoms: C_7  and  C_8
REMARK                            x       y       z     vdW  Elec       q    Type
REMARK                         _______ _______ _______ _____ _____    ______ ____
ROOT
ATOM      1  C   UNL     1       2.572   6.444  19.463  0.00  0.00    +0.000 C 
ATOM      2  C   UNL     1       2.377   5.855  18.034  0.00  0.00    +0.000 C 
ATOM      3  C   UNL     1       3.736   5.664  17.384  0.00  0.00    +0.000 C 
ATOM      4  C   UNL     1       4.352   4.532  16.992  0.00  0.00    +0.000 C 
ATOM      5  C   UNL     1       5.767   4.582  16.461  0.00  0.00    +0.000 C 
ATOM      6  C   UNL     1       3.765   3.143  16.998  0.00  0.00    +0.000 C 
ATOM      7  F   UNL     1       2.443   3.154  16.675  0.00  0.00    +0.000 F 
ATOM      8  C   UNL     1       3.996   2.367  18.304  0.00  0.00    +0.000 C 
ATOM      9  C   UNL     1       2.809   2.381  19.276  0.00  0.00    +0.000 C 
ATOM     10  C   UNL     1       2.864   3.205  20.547  0.00  0.00    +0.000 C 
ATOM     11  C   UNL     1       3.401   4.422  20.669  0.00  0.00    +0.000 C 
ATOM     12  C   UNL     1       2.335   5.472  20.651  0.00  0.00    +0.000 C 
ATOM     13  O   UNL     1       1.122   4.727  20.644  0.00  0.00    +0.000 OA
ATOM     14  C   UNL     1       1.452   3.451  20.960  0.00  0.00    +0.000 C 
ATOM     15  O   UNL     1       0.716   2.601  21.441  0.00  0.00    +0.000 OA
ENDROOT
BRANCH   1  17
ATOM     16  C   UNL     1       1.441   8.165  20.853  0.00  0.00    +0.000 C 
ATOM     17  C   UNL     1       1.924   7.815  19.636  0.00  0.00    +0.000 C 
ATOM     18  C   UNL     1       1.840   8.755  18.476  0.00  0.00    +0.000 C 
ENDBRANCH   1  17
TORSDOF 1
ENDMDL
MODEL 8
REMARK VINA RESULT:      -6.8      2.601      3.658
REMARK  Name = 
REMARK  3 active torsions:
REMARK  status: ('A' for Active; 'I' for Inactive)
REMARK    1  A    between atoms: C_2  and  C_3
REMARK    2  A    between atoms: C_2  and  C_4
REMARK    3  A    between atoms: C_7  and  C_8
REMARK                            x       y       z     vdW  Elec       q    Type
REMARK                         _______ _______ _______ _____ _____    ______ ____
ROOT
ATOM      1  C   UNL     1       4.544   4.939  17.058  0.00  0.00    +0.000 C 
ATOM      2  C   UNL     1       3.370   3.937  16.849  0.00  0.00    +0.000 C 
ATOM      3  C   UNL     1       3.712   2.620  17.521  0.00  0.00    +0.000 C 
ATOM      4  C   UNL     1       3.114   1.999  18.557  0.00  0.00    +0.000 C 
ATOM      5  C   UNL     1       3.706   0.732  19.128  0.00  0.00    +0.000 C 
ATOM      6  C   UNL     1       1.840   2.427  19.243  0.00  0.00    +0.000 C 
ATOM      7  F   UNL     1       0.945   2.951  18.362  0.00  0.00    +0.000 F 
ATOM      8  C   UNL     1       2.054   3.381  20.429  0.00  0.00    +0.000 C 
ATOM      9  C   UNL     1       1.839   4.865  20.103  0.00  0.00    +0.000 C 
ATOM     10  C   UNL     1       3.020   5.810  20.002  0.00  0.00    +0.000 C 
ATOM     11  C   UNL     1       4.207   5.524  19.460  0.00  0.00    +0.000 C 
ATOM     12  C   UNL     1       4.303   6.085  18.076  0.00  0.00    +0.000 C 
ATOM     13  O   UNL     1       3.105   6.838  17.929  0.00  0.00    +0.000 OA
ATOM     14  C   UNL     1       2.575   6.966  19.171  0.00  0.00    +0.000 C 
ATOM     15  O   UNL     1       1.803   7.833  19.554  0.00  0.00    +0.000 OA
ENDROOT
BRANCH   1  17
ATOM     16  C   UNL     1       5.248   6.712  15.467  0.00  0.00    +0.000 C 
ATOM     17  C   UNL     1       5.186   5.388  15.747  0.00  0.00    +0.000 C 
ATOM     18  C   UNL     1       5.743   4.374  14.800  0.00  0.00    +0.000 C 
ENDBRANCH   1  17
TORSDOF 1
ENDMDL
MODEL 9
REMARK VINA RESULT:      -6.6      3.550      6.069
REMARK  Name = 
REMARK  3 active torsions:
REMARK  status: ('A' for Active; 'I' for Inactive)
REMARK    1  A    between atoms: C_2  and  C_3
REMARK    2  A    between atoms: C_2  and  C_4
REMARK    3  A    between atoms: C_7  and  C_8
REMARK                            x       y       z     vdW  Elec       q    Type
REMARK                         _______ _______ _______ _____ _____    ______ ____
ROOT
ATOM      1  C   UNL     1       2.709   6.238  19.338  0.00  0.00    +0.000 C 
ATOM      2  C   UNL     1       3.237   6.145  17.876  0.00  0.00    +0.000 C 
ATOM      3  C   UNL     1       4.750   6.022  17.899  0.00  0.00    +0.000 C 
ATOM      4  C   UNL     1       5.539   5.008  17.491  0.00  0.00    +0.000 C 
ATOM      5  C   UNL     1       7.032   5.070  17.716  0.00  0.00    +0.000 C 
ATOM      6  C   UNL     1       5.093   3.756  16.778  0.00  0.00    +0.000 C 
ATOM      7  F   UNL     1       4.077   4.007  15.908  0.00  0.00    +0.000 F 
ATOM      8  C   UNL     1       4.729   2.594  17.715  0.00  0.00    +0.000 C 
ATOM      9  C   UNL     1       3.226   2.432  17.979  0.00  0.00    +0.000 C 
ATOM     10  C   UNL     1       2.635   2.811  19.323  0.00  0.00    +0.000 C 
ATOM     11  C   UNL     1       2.986   3.866  20.063  0.00  0.00    +0.000 C 
ATOM     12  C   UNL     1       1.997   4.977  19.898  0.00  0.00    +0.000 C 
ATOM     13  O   UNL     1       0.971   4.404  19.096  0.00  0.00    +0.000 OA
ATOM     14  C   UNL     1       1.183   3.065  19.097  0.00  0.00    +0.000 C 
ATOM     15  O   UNL     1       0.355   2.191  18.883  0.00  0.00    +0.000 OA
ENDROOT
BRANCH   1  17
ATOM     16  C   UNL     1       1.458   7.752  20.861  0.00  0.00    +0.000 C 
ATOM     17  C   UNL     1       1.982   7.549  19.627  0.00  0.00    +0.000 C 
ATOM     18  C   UNL     1       1.866   8.591  18.562  0.00  0.00    +0.000 C 
ENDBRANCH   1  17
TORSDOF 1
ENDMDL
