MODEL 1
REMARK VINA RESULT:      -8.8      0.000      0.000
REMARK  Name = 
REMARK  6 active torsions:
REMARK  status: ('A' for Active; 'I' for Inactive)
REMARK    1  A    between atoms: C_1  and  C_2
REMARK    2  A    between atoms: C_4  and  C_5
REMARK    3  A    between atoms: C_7  and  O_8
REMARK    4  A    between atoms: O_8  and  C_9
REMARK    5  A    between atoms: C_9  and  C_10
REMARK    6  A    between atoms: C_17  and  C_18
REMARK                            x       y       z     vdW  Elec       q    Type
REMARK                         _______ _______ _______ _____ _____    ______ ____
ROOT
ATOM      1  C   UNL     1       7.658   7.422  17.679  0.00  0.00    +0.000 C 
ATOM      2  O   UNL     1       7.758   6.583  18.571  0.00  0.00    +0.000 OA
ATOM      3  N   UNL     1       7.241   7.154  16.386  0.00  0.00    +0.000 N 
ATOM      4  C   UNL     1       6.911   5.860  16.024  0.00  0.00    +0.000 A 
ATOM      5  N   UNL     1       7.406   5.330  14.904  0.00  0.00    +0.000 NA
ATOM      6  O   UNL     1       6.965   4.012  14.912  0.00  0.00    +0.000 OA
ATOM      7  N   UNL     1       6.102   3.772  15.969  0.00  0.00    +0.000 NA
ATOM      8  C   UNL     1       6.020   4.930  16.638  0.00  0.00    +0.000 A 
ATOM      9  H   UNL     1       7.687   7.693  15.652  0.00  0.00    +0.000 HD
ENDROOT
BRANCH   8  10
ATOM     10  C   UNL     1       5.012   5.125  17.684  0.00  0.00    +0.000 A 
ATOM     11  C   UNL     1       4.925   4.251  18.780  0.00  0.00    +0.000 A 
ATOM     12  C   UNL     1       3.890   4.384  19.714  0.00  0.00    +0.000 A 
ATOM     13  C   UNL     1       2.941   5.384  19.557  0.00  0.00    +0.000 A 
ATOM     14 BR   UNL     1       1.514   5.542  20.790  0.00  0.00    +0.000 Br
ATOM     15  C   UNL     1       3.008   6.264  18.477  0.00  0.00    +0.000 A 
ATOM     16  C   UNL     1       4.039   6.127  17.546  0.00  0.00    +0.000 A 
ENDBRANCH   8  10
BRANCH   1  17
ATOM     17  C   UNL     1       7.993   8.892  17.907  0.00  0.00    +0.000 C 
BRANCH  17  18
ATOM     18  O   UNL     1       8.906   9.006  18.992  0.00  0.00    +0.000 OA
BRANCH  18  25
ATOM     19  C   UNL     1       9.535  12.902  22.004  0.00  0.00    +0.000 C 
ATOM     20  C   UNL     1       9.668  12.236  20.665  0.00  0.00    +0.000 A 
ATOM     21  C   UNL     1      10.177  12.934  19.565  0.00  0.00    +0.000 A 
ATOM     22  C   UNL     1      10.270  12.321  18.311  0.00  0.00    +0.000 A 
ATOM     23  C   UNL     1      10.817  13.068  17.129  0.00  0.00    +0.000 C 
ATOM     24  C   UNL     1       9.843  10.993  18.167  0.00  0.00    +0.000 A 
ATOM     25  C   UNL     1       9.343  10.278  19.260  0.00  0.00    +0.000 A 
ATOM     26  C   UNL     1       9.255  10.904  20.505  0.00  0.00    +0.000 A 
ENDBRANCH  18  25
ENDBRANCH  17  18
ENDBRANCH   1  17
TORSDOF 4
ENDMDL
MODEL 2
REMARK VINA RESULT:      -8.8      0.545      1.118
REMARK  Name = 
REMARK  6 active torsions:
REMARK  status: ('A' for Active; 'I' for Inactive)
REMARK    1  A    between atoms: C_1  and  C_2
REMARK    2  A    between atoms: C_4  and  C_5
REMARK    3  A    between atoms: C_7  and  O_8
REMARK    4  A    between atoms: O_8  and  C_9
REMARK    5  A    between atoms: C_9  and  C_10
REMARK    6  A    between atoms: C_17  and  C_18
REMARK                            x       y       z     vdW  Elec       q    Type
REMARK                         _______ _______ _______ _____ _____    ______ ____
ROOT
ATOM      1  C   UNL     1       7.662   7.445  17.723  0.00  0.00    +0.000 C 
ATOM      2  O   UNL     1       7.533   6.728  18.712  0.00  0.00    +0.000 OA
ATOM      3  N   UNL     1       7.364   7.061  16.425  0.00  0.00    +0.000 N 
ATOM      4  C   UNL     1       6.892   5.784  16.177  0.00  0.00    +0.000 A 
ATOM      5  N   UNL     1       7.430   5.048  15.204  0.00  0.00    +0.000 NA
ATOM      6  O   UNL     1       6.804   3.813  15.307  0.00  0.00    +0.000 OA
ATOM      7  N   UNL     1       5.797   3.833  16.260  0.00  0.00    +0.000 NA
ATOM      8  C   UNL     1       5.809   5.071  16.771  0.00  0.00    +0.000 A 
ATOM      9  H   UNL     1       7.966   7.433  15.699  0.00  0.00    +0.000 HD
ENDROOT
BRANCH   8  10
ATOM     10  C   UNL     1       4.725   5.536  17.641  0.00  0.00    +0.000 A 
ATOM     11  C   UNL     1       3.978   6.682  17.319  0.00  0.00    +0.000 A 
ATOM     12  C   UNL     1       3.019   7.178  18.212  0.00  0.00    +0.000 A 
ATOM     13  C   UNL     1       2.805   6.536  19.423  0.00  0.00    +0.000 A 
ATOM     14 BR   UNL     1       1.543   7.226  20.654  0.00  0.00    +0.000 Br
ATOM     15  C   UNL     1       3.534   5.396  19.763  0.00  0.00    +0.000 A 
ATOM     16  C   UNL     1       4.491   4.907  18.874  0.00  0.00    +0.000 A 
ENDBRANCH   8  10
BRANCH   1  17
ATOM     17  C   UNL     1       8.180   8.876  17.819  0.00  0.00    +0.000 C 
BRANCH  17  18
ATOM     18  O   UNL     1       8.950   9.020  19.007  0.00  0.00    +0.000 OA
BRANCH  18  25
ATOM     19  C   UNL     1       9.530  12.922  22.022  0.00  0.00    +0.000 C 
ATOM     20  C   UNL     1       9.678  12.256  20.684  0.00  0.00    +0.000 A 
ATOM     21  C   UNL     1      10.192  12.957  19.588  0.00  0.00    +0.000 A 
ATOM     22  C   UNL     1      10.298  12.343  18.336  0.00  0.00    +0.000 A 
ATOM     23  C   UNL     1      10.850  13.093  17.157  0.00  0.00    +0.000 C 
ATOM     24  C   UNL     1       9.880  11.012  18.189  0.00  0.00    +0.000 A 
ATOM     25  C   UNL     1       9.376  10.295  19.278  0.00  0.00    +0.000 A 
ATOM     26  C   UNL     1       9.275  10.921  20.522  0.00  0.00    +0.000 A 
ENDBRANCH  18  25
ENDBRANCH  17  18
ENDBRANCH   1  17
TORSDOF 4
ENDMDL
MODEL 3
REMARK VINA RESULT:      -8.6      0.619      2.065
REMARK  Name = 
REMARK  6 active torsions:
REMARK  status: ('A' for Active; 'I' for Inactive)
REMARK    1  A    between atoms: C_1  and  C_2
REMARK    2  A    between atoms: C_4  and  C_5
REMARK    3  A    between atoms: C_7  and  O_8
REMARK    4  A    between atoms: O_8  and  C_9
REMARK    5  A    between atoms: C_9  and  C_10
REMARK    6  A    between atoms: C_17  and  C_18
REMARK                            x       y       z     vdW  Elec       q    Type
REMARK                         _______ _______ _______ _____ _____    ______ ____
ROOT
ATOM      1  C   UNL     1       7.590   7.484  17.703  0.00  0.00    +0.000 C 
ATOM      2  O   UNL     1       7.475   6.770  18.696  0.00  0.00    +0.000 OA
ATOM      3  N   UNL     1       7.282   7.094  16.410  0.00  0.00    +0.000 N 
ATOM      4  C   UNL     1       6.815   5.813  16.170  0.00  0.00    +0.000 A 
ATOM      5  N   UNL     1       7.349   5.077  15.195  0.00  0.00    +0.000 NA
ATOM      6  O   UNL     1       6.730   3.838  15.310  0.00  0.00    +0.000 OA
ATOM      7  N   UNL     1       5.732   3.856  16.271  0.00  0.00    +0.000 NA
ATOM      8  C   UNL     1       5.742   5.096  16.778  0.00  0.00    +0.000 A 
ATOM      9  H   UNL     1       7.876   7.466  15.677  0.00  0.00    +0.000 HD
ENDROOT
BRANCH   8  10
ATOM     10  C   UNL     1       4.664   5.558  17.657  0.00  0.00    +0.000 A 
ATOM     11  C   UNL     1       3.914   6.704  17.343  0.00  0.00    +0.000 A 
ATOM     12  C   UNL     1       2.961   7.198  18.243  0.00  0.00    +0.000 A 
ATOM     13  C   UNL     1       2.755   6.553  19.454  0.00  0.00    +0.000 A 
ATOM     14 BR   UNL     1       1.501   7.239  20.695  0.00  0.00    +0.000 Br
ATOM     15  C   UNL     1       3.488   5.413  19.787  0.00  0.00    +0.000 A 
ATOM     16  C   UNL     1       4.439   4.927  18.889  0.00  0.00    +0.000 A 
ENDBRANCH   8  10
BRANCH   1  17
ATOM     17  C   UNL     1       8.101   8.918  17.789  0.00  0.00    +0.000 C 
BRANCH  17  18
ATOM     18  O   UNL     1       8.925   9.058  18.940  0.00  0.00    +0.000 OA
BRANCH  18  25
ATOM     19  C   UNL     1      11.703  12.910  17.492  0.00  0.00    +0.000 C 
ATOM     20  C   UNL     1      10.828  12.220  18.499  0.00  0.00    +0.000 A 
ATOM     21  C   UNL     1      10.589  12.793  19.753  0.00  0.00    +0.000 A 
ATOM     22  C   UNL     1       9.799  12.133  20.699  0.00  0.00    +0.000 A 
ATOM     23  C   UNL     1       9.540  12.746  22.046  0.00  0.00    +0.000 C 
ATOM     24  C   UNL     1       9.248  10.883  20.378  0.00  0.00    +0.000 A 
ATOM     25  C   UNL     1       9.468  10.304  19.125  0.00  0.00    +0.000 A 
ATOM     26  C   UNL     1      10.260  10.974  18.190  0.00  0.00    +0.000 A 
ENDBRANCH  18  25
ENDBRANCH  17  18
ENDBRANCH   1  17
TORSDOF 4
ENDMDL
MODEL 4
REMARK VINA RESULT:      -8.5      1.145      1.307
REMARK  Name = 
REMARK  6 active torsions:
REMARK  status: ('A' for Active; 'I' for Inactive)
REMARK    1  A    between atoms: C_1  and  C_2
REMARK    2  A    between atoms: C_4  and  C_5
REMARK    3  A    between atoms: C_7  and  O_8
REMARK    4  A    between atoms: O_8  and  C_9
REMARK    5  A    between atoms: C_9  and  C_10
REMARK    6  A    between atoms: C_17  and  C_18
REMARK                            x       y       z     vdW  Elec       q    Type
REMARK                         _______ _______ _______ _____ _____    ______ ____
ROOT
ATOM      1  C   UNL     1       7.861   6.752  18.094  0.00  0.00    +0.000 C 
ATOM      2  O   UNL     1       7.835   5.711  18.744  0.00  0.00    +0.000 OA
ATOM      3  N   UNL     1       7.476   6.864  16.767  0.00  0.00    +0.000 N 
ATOM      4  C   UNL     1       7.032   5.747  16.083  0.00  0.00    +0.000 A 
ATOM      5  N   UNL     1       7.518   5.463  14.875  0.00  0.00    +0.000 NA
ATOM      6  O   UNL     1       6.946   4.242  14.541  0.00  0.00    +0.000 OA
ATOM      7  N   UNL     1       6.017   3.842  15.488  0.00  0.00    +0.000 NA
ATOM      8  C   UNL     1       6.025   4.796  16.427  0.00  0.00    +0.000 A 
ATOM      9  H   UNL     1       8.007   7.518  16.202  0.00  0.00    +0.000 HD
ENDROOT
BRANCH   8  10
ATOM     10  C   UNL     1       4.996   4.834  17.471  0.00  0.00    +0.000 A 
ATOM     11  C   UNL     1       4.921   3.829  18.451  0.00  0.00    +0.000 A 
ATOM     12  C   UNL     1       3.870   3.817  19.376  0.00  0.00    +0.000 A 
ATOM     13  C   UNL     1       2.894   4.802  19.326  0.00  0.00    +0.000 A 
ATOM     14 BR   UNL     1       1.446   4.767  20.545  0.00  0.00    +0.000 Br
ATOM     15  C   UNL     1       2.949   5.809  18.363  0.00  0.00    +0.000 A 
ATOM     16  C   UNL     1       3.995   5.816  17.440  0.00  0.00    +0.000 A 
ENDBRANCH   8  10
BRANCH   1  17
ATOM     17  C   UNL     1       8.334   8.072  18.692  0.00  0.00    +0.000 C 
BRANCH  17  18
ATOM     18  O   UNL     1       8.258   9.094  17.705  0.00  0.00    +0.000 OA
BRANCH  18  25
ATOM     19  C   UNL     1      11.468  11.957  20.183  0.00  0.00    +0.000 C 
ATOM     20  C   UNL     1      10.279  11.784  19.282  0.00  0.00    +0.000 A 
ATOM     21  C   UNL     1       9.547  12.892  18.841  0.00  0.00    +0.000 A 
ATOM     22  C   UNL     1       8.422  12.724  18.027  0.00  0.00    +0.000 A 
ATOM     23  C   UNL     1       7.634  13.911  17.551  0.00  0.00    +0.000 C 
ATOM     24  C   UNL     1       8.032  11.428  17.658  0.00  0.00    +0.000 A 
ATOM     25  C   UNL     1       8.760  10.312  18.081  0.00  0.00    +0.000 A 
ATOM     26  C   UNL     1       9.881  10.495  18.894  0.00  0.00    +0.000 A 
ENDBRANCH  18  25
ENDBRANCH  17  18
ENDBRANCH   1  17
TORSDOF 4
ENDMDL
MODEL 5
REMARK VINA RESULT:      -8.5      0.758      1.876
REMARK  Name = 
REMARK  6 active torsions:
REMARK  status: ('A' for Active; 'I' for Inactive)
REMARK    1  A    between atoms: C_1  and  C_2
REMARK    2  A    between atoms: C_4  and  C_5
REMARK    3  A    between atoms: C_7  and  O_8
REMARK    4  A    between atoms: O_8  and  C_9
REMARK    5  A    between atoms: C_9  and  C_10
REMARK    6  A    between atoms: C_17  and  C_18
REMARK                            x       y       z     vdW  Elec       q    Type
REMARK                         _______ _______ _______ _____ _____    ______ ____
ROOT
ATOM      1  C   UNL     1       7.874   6.581  18.183  0.00  0.00    +0.000 C 
ATOM      2  O   UNL     1       7.807   5.502  18.765  0.00  0.00    +0.000 OA
ATOM      3  N   UNL     1       7.491   6.795  16.869  0.00  0.00    +0.000 N 
ATOM      4  C   UNL     1       6.999   5.743  16.116  0.00  0.00    +0.000 A 
ATOM      5  N   UNL     1       7.470   5.518  14.889  0.00  0.00    +0.000 NA
ATOM      6  O   UNL     1       6.846   4.346  14.480  0.00  0.00    +0.000 OA
ATOM      7  N   UNL     1       5.904   3.924  15.405  0.00  0.00    +0.000 NA
ATOM      8  C   UNL     1       5.954   4.814  16.403  0.00  0.00    +0.000 A 
ATOM      9  H   UNL     1       8.046   7.461  16.344  0.00  0.00    +0.000 HD
ENDROOT
BRANCH   8  10
ATOM     10  C   UNL     1       4.931   4.826  17.453  0.00  0.00    +0.000 A 
ATOM     11  C   UNL     1       4.813   3.761  18.363  0.00  0.00    +0.000 A 
ATOM     12  C   UNL     1       3.765   3.733  19.291  0.00  0.00    +0.000 A 
ATOM     13  C   UNL     1       2.833   4.761  19.313  0.00  0.00    +0.000 A 
ATOM     14 BR   UNL     1       1.388   4.708  20.534  0.00  0.00    +0.000 Br
ATOM     15  C   UNL     1       2.931   5.829  18.420  0.00  0.00    +0.000 A 
ATOM     16  C   UNL     1       3.975   5.852  17.494  0.00  0.00    +0.000 A 
ENDBRANCH   8  10
BRANCH   1  17
ATOM     17  C   UNL     1       8.403   7.839  18.863  0.00  0.00    +0.000 C 
BRANCH  17  18
ATOM     18  O   UNL     1       8.361   8.926  17.945  0.00  0.00    +0.000 OA
BRANCH  18  25
ATOM     19  C   UNL     1      11.266  12.868  17.131  0.00  0.00    +0.000 C 
ATOM     20  C   UNL     1      10.443  12.003  18.041  0.00  0.00    +0.000 A 
ATOM     21  C   UNL     1      10.369  12.272  19.412  0.00  0.00    +0.000 A 
ATOM     22  C   UNL     1       9.626  11.445  20.261  0.00  0.00    +0.000 A 
ATOM     23  C   UNL     1       9.544  11.732  21.733  0.00  0.00    +0.000 C 
ATOM     24  C   UNL     1       8.956  10.337  19.722  0.00  0.00    +0.000 A 
ATOM     25  C   UNL     1       9.010  10.063  18.353  0.00  0.00    +0.000 A 
ATOM     26  C   UNL     1       9.756  10.897  17.516  0.00  0.00    +0.000 A 
ENDBRANCH  18  25
ENDBRANCH  17  18
ENDBRANCH   1  17
TORSDOF 4
ENDMDL
MODEL 6
REMARK VINA RESULT:      -8.4      1.120      1.594
REMARK  Name = 
REMARK  6 active torsions:
REMARK  status: ('A' for Active; 'I' for Inactive)
REMARK    1  A    between atoms: C_1  and  C_2
REMARK    2  A    between atoms: C_4  and  C_5
REMARK    3  A    between atoms: C_7  and  O_8
REMARK    4  A    between atoms: O_8  and  C_9
REMARK    5  A    between atoms: C_9  and  C_10
REMARK    6  A    between atoms: C_17  and  C_18
REMARK                            x       y       z     vdW  Elec       q    Type
REMARK                         _______ _______ _______ _____ _____    ______ ____
ROOT
ATOM      1  C   UNL     1       7.927   6.869  18.114  0.00  0.00    +0.000 C 
ATOM      2  O   UNL     1       7.909   5.852  18.803  0.00  0.00    +0.000 OA
ATOM      3  N   UNL     1       7.522   6.934  16.791  0.00  0.00    +0.000 N 
ATOM      4  C   UNL     1       7.064   5.794  16.155  0.00  0.00    +0.000 A 
ATOM      5  N   UNL     1       7.531   5.465  14.950  0.00  0.00    +0.000 NA
ATOM      6  O   UNL     1       6.949   4.235  14.669  0.00  0.00    +0.000 OA
ATOM      7  N   UNL     1       6.034   3.872  15.645  0.00  0.00    +0.000 NA
ATOM      8  C   UNL     1       6.059   4.860  16.548  0.00  0.00    +0.000 A 
ATOM      9  H   UNL     1       8.045   7.565  16.194  0.00  0.00    +0.000 HD
ENDROOT
BRANCH   8  10
ATOM     10  C   UNL     1       5.048   4.939  17.606  0.00  0.00    +0.000 A 
ATOM     11  C   UNL     1       4.924   3.922  18.568  0.00  0.00    +0.000 A 
ATOM     12  C   UNL     1       3.885   3.954  19.507  0.00  0.00    +0.000 A 
ATOM     13  C   UNL     1       2.969   4.997  19.488  0.00  0.00    +0.000 A 
ATOM     14 BR   UNL     1       1.536   5.025  20.724  0.00  0.00    +0.000 Br
ATOM     15  C   UNL     1       3.073   6.018  18.542  0.00  0.00    +0.000 A 
ATOM     16  C   UNL     1       4.107   5.980  17.607  0.00  0.00    +0.000 A 
ENDBRANCH   8  10
BRANCH   1  17
ATOM     17  C   UNL     1       8.413   8.208  18.657  0.00  0.00    +0.000 C 
BRANCH  17  18
ATOM     18  O   UNL     1       8.039   9.246  17.759  0.00  0.00    +0.000 OA
BRANCH  18  25
ATOM     19  C   UNL     1       7.958  14.205  17.537  0.00  0.00    +0.000 C 
ATOM     20  C   UNL     1       8.595  12.915  17.966  0.00  0.00    +0.000 A 
ATOM     21  C   UNL     1       9.829  12.910  18.625  0.00  0.00    +0.000 A 
ATOM     22  C   UNL     1      10.434  11.705  18.996  0.00  0.00    +0.000 A 
ATOM     23  C   UNL     1      11.759  11.696  19.705  0.00  0.00    +0.000 C 
ATOM     24  C   UNL     1       9.790  10.496  18.696  0.00  0.00    +0.000 A 
ATOM     25  C   UNL     1       8.551  10.485  18.048  0.00  0.00    +0.000 A 
ATOM     26  C   UNL     1       7.959  11.696  17.684  0.00  0.00    +0.000 A 
ENDBRANCH  18  25
ENDBRANCH  17  18
ENDBRANCH   1  17
TORSDOF 4
ENDMDL
MODEL 7
REMARK VINA RESULT:      -8.4      0.777      1.230
REMARK  Name = 
REMARK  6 active torsions:
REMARK  status: ('A' for Active; 'I' for Inactive)
REMARK    1  A    between atoms: C_1  and  C_2
REMARK    2  A    between atoms: C_4  and  C_5
REMARK    3  A    between atoms: C_7  and  O_8
REMARK    4  A    between atoms: O_8  and  C_9
REMARK    5  A    between atoms: C_9  and  C_10
REMARK    6  A    between atoms: C_17  and  C_18
REMARK                            x       y       z     vdW  Elec       q    Type
REMARK                         _______ _______ _______ _____ _____    ______ ____
ROOT
ATOM      1  C   UNL     1       7.817   6.416  18.164  0.00  0.00    +0.000 C 
ATOM      2  O   UNL     1       7.651   5.324  18.701  0.00  0.00    +0.000 OA
ATOM      3  N   UNL     1       7.517   6.700  16.842  0.00  0.00    +0.000 N 
ATOM      4  C   UNL     1       6.999   5.709  16.026  0.00  0.00    +0.000 A 
ATOM      5  N   UNL     1       7.519   5.498  14.816  0.00  0.00    +0.000 NA
ATOM      6  O   UNL     1       6.845   4.383  14.333  0.00  0.00    +0.000 OA
ATOM      7  N   UNL     1       5.831   3.991  15.192  0.00  0.00    +0.000 NA
ATOM      8  C   UNL     1       5.884   4.841  16.225  0.00  0.00    +0.000 A 
ATOM      9  H   UNL     1       8.140   7.346  16.371  0.00  0.00    +0.000 HD
ENDROOT
BRANCH   8  10
ATOM     10  C   UNL     1       4.811   4.883  17.222  0.00  0.00    +0.000 A 
ATOM     11  C   UNL     1       4.097   6.068  17.470  0.00  0.00    +0.000 A 
ATOM     12  C   UNL     1       3.149   6.124  18.499  0.00  0.00    +0.000 A 
ATOM     13  C   UNL     1       2.912   5.004  19.282  0.00  0.00    +0.000 A 
ATOM     14 BR   UNL     1       1.665   5.084  20.704  0.00  0.00    +0.000 Br
ATOM     15  C   UNL     1       3.608   3.816  19.054  0.00  0.00    +0.000 A 
ATOM     16  C   UNL     1       4.555   3.765  18.030  0.00  0.00    +0.000 A 
ENDBRANCH   8  10
BRANCH   1  17
ATOM     17  C   UNL     1       8.388   7.613  18.918  0.00  0.00    +0.000 C 
BRANCH  17  18
ATOM     18  O   UNL     1       8.381   8.754  18.067  0.00  0.00    +0.000 OA
BRANCH  18  25
ATOM     19  C   UNL     1       9.442  11.851  21.799  0.00  0.00    +0.000 C 
ATOM     20  C   UNL     1       9.523  11.452  20.354  0.00  0.00    +0.000 A 
ATOM     21  C   UNL     1      10.154  12.277  19.417  0.00  0.00    +0.000 A 
ATOM     22  C   UNL     1      10.200  11.916  18.066  0.00  0.00    +0.000 A 
ATOM     23  C   UNL     1      10.878  12.799  17.058  0.00  0.00    +0.000 C 
ATOM     24  C   UNL     1       9.601  10.715  17.659  0.00  0.00    +0.000 A 
ATOM     25  C   UNL     1       8.977   9.874  18.585  0.00  0.00    +0.000 A 
ATOM     26  C   UNL     1       8.939  10.248  19.931  0.00  0.00    +0.000 A 
ENDBRANCH  18  25
ENDBRANCH  17  18
ENDBRANCH   1  17
TORSDOF 4
ENDMDL
MODEL 8
REMARK VINA RESULT:      -8.4      1.237      1.729
REMARK  Name = 
REMARK  6 active torsions:
REMARK  status: ('A' for Active; 'I' for Inactive)
REMARK    1  A    between atoms: C_1  and  C_2
REMARK    2  A    between atoms: C_4  and  C_5
REMARK    3  A    between atoms: C_7  and  O_8
REMARK    4  A    between atoms: O_8  and  C_9
REMARK    5  A    between atoms: C_9  and  C_10
REMARK    6  A    between atoms: C_17  and  C_18
REMARK                            x       y       z     vdW  Elec       q    Type
REMARK                         _______ _______ _______ _____ _____    ______ ____
ROOT
ATOM      1  C   UNL     1       7.785   6.897  18.200  0.00  0.00    +0.000 C 
ATOM      2  O   UNL     1       7.430   6.031  18.996  0.00  0.00    +0.000 OA
ATOM      3  N   UNL     1       7.547   6.860  16.836  0.00  0.00    +0.000 N 
ATOM      4  C   UNL     1       6.873   5.786  16.283  0.00  0.00    +0.000 A 
ATOM      5  N   UNL     1       7.356   5.175  15.201  0.00  0.00    +0.000 NA
ATOM      6  O   UNL     1       6.504   4.098  14.993  0.00  0.00    +0.000 OA
ATOM      7  N   UNL     1       5.431   4.123  15.870  0.00  0.00    +0.000 NA
ATOM      8  C   UNL     1       5.624   5.198  16.644  0.00  0.00    +0.000 A 
ATOM      9  H   UNL     1       8.276   7.245  16.245  0.00  0.00    +0.000 HD
ENDROOT
BRANCH   8  10
ATOM     10  C   UNL     1       4.566   5.682  17.537  0.00  0.00    +0.000 A 
ATOM     11  C   UNL     1       3.945   6.923  17.319  0.00  0.00    +0.000 A 
ATOM     12  C   UNL     1       3.014   7.423  18.239  0.00  0.00    +0.000 A 
ATOM     13  C   UNL     1       2.703   6.689  19.375  0.00  0.00    +0.000 A 
ATOM     14 BR   UNL     1       1.480   7.377  20.645  0.00  0.00    +0.000 Br
ATOM     15  C   UNL     1       3.307   5.454  19.611  0.00  0.00    +0.000 A 
ATOM     16  C   UNL     1       4.236   4.961  18.695  0.00  0.00    +0.000 A 
ENDBRANCH   8  10
BRANCH   1  17
ATOM     17  C   UNL     1       8.548   8.141  18.641  0.00  0.00    +0.000 C 
BRANCH  17  18
ATOM     18  O   UNL     1       8.167   9.243  17.825  0.00  0.00    +0.000 OA
BRANCH  18  25
ATOM     19  C   UNL     1      11.726  11.951  19.980  0.00  0.00    +0.000 C 
ATOM     20  C   UNL     1      10.463  11.835  19.176  0.00  0.00    +0.000 A 
ATOM     21  C   UNL     1       9.767  12.976  18.764  0.00  0.00    +0.000 A 
ATOM     22  C   UNL     1       8.575  12.862  18.043  0.00  0.00    +0.000 A 
ATOM     23  C   UNL     1       7.826  14.086  17.598  0.00  0.00    +0.000 C 
ATOM     24  C   UNL     1       8.080  11.585  17.737  0.00  0.00    +0.000 A 
ATOM     25  C   UNL     1       8.770  10.436  18.131  0.00  0.00    +0.000 A 
ATOM     26  C   UNL     1       9.960  10.565  18.852  0.00  0.00    +0.000 A 
ENDBRANCH  18  25
ENDBRANCH  17  18
ENDBRANCH   1  17
TORSDOF 4
ENDMDL
MODEL 9
REMARK VINA RESULT:      -8.3      1.250      1.949
REMARK  Name = 
REMARK  6 active torsions:
REMARK  status: ('A' for Active; 'I' for Inactive)
REMARK    1  A    between atoms: C_1  and  C_2
REMARK    2  A    between atoms: C_4  and  C_5
REMARK    3  A    between atoms: C_7  and  O_8
REMARK    4  A    between atoms: O_8  and  C_9
REMARK    5  A    between atoms: C_9  and  C_10
REMARK    6  A    between atoms: C_17  and  C_18
REMARK                            x       y       z     vdW  Elec       q    Type
REMARK                         _______ _______ _______ _____ _____    ______ ____
ROOT
ATOM      1  C   UNL     1       7.813   7.032  18.141  0.00  0.00    +0.000 C 
ATOM      2  O   UNL     1       7.479   6.184  18.963  0.00  0.00    +0.000 OA
ATOM      3  N   UNL     1       7.570   6.951  16.779  0.00  0.00    +0.000 N 
ATOM      4  C   UNL     1       6.913   5.849  16.262  0.00  0.00    +0.000 A 
ATOM      5  N   UNL     1       7.404   5.216  15.196  0.00  0.00    +0.000 NA
ATOM      6  O   UNL     1       6.571   4.117  15.023  0.00  0.00    +0.000 OA
ATOM      7  N   UNL     1       5.502   4.147  15.905  0.00  0.00    +0.000 NA
ATOM      8  C   UNL     1       5.678   5.248  16.647  0.00  0.00    +0.000 A 
ATOM      9  H   UNL     1       8.288   7.333  16.173  0.00  0.00    +0.000 HD
ENDROOT
BRANCH   8  10
ATOM     10  C   UNL     1       4.615   5.737  17.531  0.00  0.00    +0.000 A 
ATOM     11  C   UNL     1       3.971   6.960  17.282  0.00  0.00    +0.000 A 
ATOM     12  C   UNL     1       3.035   7.468  18.192  0.00  0.00    +0.000 A 
ATOM     13  C   UNL     1       2.742   6.761  19.349  0.00  0.00    +0.000 A 
ATOM     14 BR   UNL     1       1.512   7.462  20.606  0.00  0.00    +0.000 Br
ATOM     15  C   UNL     1       3.369   5.543  19.616  0.00  0.00    +0.000 A 
ATOM     16  C   UNL     1       4.304   5.042  18.709  0.00  0.00    +0.000 A 
ENDBRANCH   8  10
BRANCH   1  17
ATOM     17  C   UNL     1       8.554   8.304  18.541  0.00  0.00    +0.000 C 
BRANCH  17  18
ATOM     18  O   UNL     1       8.047   9.402  17.791  0.00  0.00    +0.000 OA
BRANCH  18  25
ATOM     19  C   UNL     1       8.092  14.364  17.650  0.00  0.00    +0.000 C 
ATOM     20  C   UNL     1       8.699  13.052  18.055  0.00  0.00    +0.000 A 
ATOM     21  C   UNL     1       9.935  13.004  18.707  0.00  0.00    +0.000 A 
ATOM     22  C   UNL     1      10.511  11.778  19.055  0.00  0.00    +0.000 A 
ATOM     23  C   UNL     1      11.839  11.724  19.756  0.00  0.00    +0.000 C 
ATOM     24  C   UNL     1       9.834  10.590  18.739  0.00  0.00    +0.000 A 
ATOM     25  C   UNL     1       8.592  10.622  18.098  0.00  0.00    +0.000 A 
ATOM     26  C   UNL     1       8.029  11.854  17.757  0.00  0.00    +0.000 A 
ENDBRANCH  18  25
ENDBRANCH  17  18
ENDBRANCH   1  17
TORSDOF 4
ENDMDL
