MODEL 1
REMARK VINA RESULT:      -7.6      0.000      0.000
REMARK  Name = 
REMARK  4 active torsions:
REMARK  status: ('A' for Active; 'I' for Inactive)
REMARK    1  A    between atoms: C_2  and  S_3
REMARK    2  A    between atoms: S_3  and  N_6
REMARK    3  A    between atoms: N_6  and  C_7
REMARK    4  A    between atoms: C_16  and  C_18
REMARK                            x       y       z     vdW  Elec       q    Type
REMARK                         _______ _______ _______ _____ _____    ______ ____
ROOT
ATOM      1  C   UNL     1      -0.593  10.759  18.683  0.00  0.00    +0.000 A 
ATOM      2  C   UNL     1      -0.873  10.395  20.001  0.00  0.00    +0.000 A 
ATOM      3  C   UNL     1      -0.077   9.445  20.649  0.00  0.00    +0.000 A 
ATOM      4  C   UNL     1       0.982   8.837  19.969  0.00  0.00    +0.000 A 
ATOM      5  C   UNL     1       1.264   9.220  18.645  0.00  0.00    +0.000 A 
ATOM      6  C   UNL     1       0.478  10.181  18.005  0.00  0.00    +0.000 A 
ATOM      7  C   UNL     1       2.401   8.523  17.952  0.00  0.00    +0.000 C 
ATOM      8  C   UNL     1       2.297   7.028  18.256  0.00  0.00    +0.000 C 
ATOM      9  N   UNL     1       2.169   6.683  19.680  0.00  0.00    +0.000 N 
ATOM     10  C   UNL     1       2.409   5.417  20.232  0.00  0.00    +0.000 C 
ATOM     11  O   UNL     1       2.482   5.253  21.452  0.00  0.00    +0.000 OA
ATOM     12  C   UNL     1       1.845   7.773  20.611  0.00  0.00    +0.000 C 
ENDROOT
BRANCH  10  13
ATOM     13  C   UNL     1       2.609   4.209  19.368  0.00  0.00    +0.000 A 
ATOM     14  C   UNL     1       1.536   3.314  19.221  0.00  0.00    +0.000 A 
ATOM     15  C   UNL     1       1.665   2.171  18.423  0.00  0.00    +0.000 A 
ATOM     16  C   UNL     1       2.869   1.899  17.779  0.00  0.00    +0.000 A 
ATOM     17  C   UNL     1       3.926   2.796  17.885  0.00  0.00    +0.000 A 
ATOM     18  C   UNL     1       3.777   3.963  18.639  0.00  0.00    +0.000 A 
ENDBRANCH  10  13
BRANCH   1  19
ATOM     19  N   UNL     1      -1.455  11.654  17.976  0.00  0.00    +0.000 N 
ATOM     20  H   UNL     1      -1.723  12.471  18.525  0.00  0.00    +0.000 HD
BRANCH  19  21
ATOM     21  S   UNL     1      -2.901  10.974  17.368  0.00  0.00    +0.000 S 
ATOM     22  O   UNL     1      -3.951  11.851  17.839  0.00  0.00    +0.000 OA
ATOM     23  O   UNL     1      -2.914   9.576  17.752  0.00  0.00    +0.000 OA
BRANCH  21  25
ATOM     24  C   UNL     1      -3.079  10.003  14.872  0.00  0.00    +0.000 C 
ATOM     25  C   UNL     1      -2.800  11.069  15.635  0.00  0.00    +0.000 C 
ENDBRANCH  21  25
ENDBRANCH  19  21
ENDBRANCH   1  19
TORSDOF 4
ENDMDL
MODEL 2
REMARK VINA RESULT:      -7.4      1.083      1.345
REMARK  Name = 
REMARK  4 active torsions:
REMARK  status: ('A' for Active; 'I' for Inactive)
REMARK    1  A    between atoms: C_2  and  S_3
REMARK    2  A    between atoms: S_3  and  N_6
REMARK    3  A    between atoms: N_6  and  C_7
REMARK    4  A    between atoms: C_16  and  C_18
REMARK                            x       y       z     vdW  Elec       q    Type
REMARK                         _______ _______ _______ _____ _____    ______ ____
ROOT
ATOM      1  C   UNL     1      -0.526  10.765  18.503  0.00  0.00    +0.000 A 
ATOM      2  C   UNL     1      -0.839  10.432  19.822  0.00  0.00    +0.000 A 
ATOM      3  C   UNL     1      -0.065   9.492  20.509  0.00  0.00    +0.000 A 
ATOM      4  C   UNL     1       1.005   8.862  19.867  0.00  0.00    +0.000 A 
ATOM      5  C   UNL     1       1.321   9.213  18.542  0.00  0.00    +0.000 A 
ATOM      6  C   UNL     1       0.556  10.165  17.863  0.00  0.00    +0.000 A 
ATOM      7  C   UNL     1       2.468   8.493  17.891  0.00  0.00    +0.000 C 
ATOM      8  C   UNL     1       2.346   7.006  18.227  0.00  0.00    +0.000 C 
ATOM      9  N   UNL     1       2.183   6.695  19.655  0.00  0.00    +0.000 N 
ATOM     10  C   UNL     1       2.402   5.439  20.240  0.00  0.00    +0.000 C 
ATOM     11  O   UNL     1       2.445   5.303  21.465  0.00  0.00    +0.000 OA
ATOM     12  C   UNL     1       1.845   7.807  20.554  0.00  0.00    +0.000 C 
ENDROOT
BRANCH  10  13
ATOM     13  C   UNL     1       2.612   4.211  19.409  0.00  0.00    +0.000 A 
ATOM     14  C   UNL     1       1.503   3.393  19.141  0.00  0.00    +0.000 A 
ATOM     15  C   UNL     1       1.640   2.235  18.367  0.00  0.00    +0.000 A 
ATOM     16  C   UNL     1       2.888   1.871  17.867  0.00  0.00    +0.000 A 
ATOM     17  C   UNL     1       3.987   2.692  18.092  0.00  0.00    +0.000 A 
ATOM     18  C   UNL     1       3.836   3.875  18.820  0.00  0.00    +0.000 A 
ENDBRANCH  10  13
BRANCH   1  19
ATOM     19  N   UNL     1      -1.366  11.649  17.756  0.00  0.00    +0.000 N 
ATOM     20  H   UNL     1      -1.711  12.436  18.307  0.00  0.00    +0.000 HD
BRANCH  19  21
ATOM     21  S   UNL     1      -2.727  10.934  17.009  0.00  0.00    +0.000 S 
ATOM     22  O   UNL     1      -2.708   9.555  17.443  0.00  0.00    +0.000 OA
ATOM     23  O   UNL     1      -2.650  11.238  15.594  0.00  0.00    +0.000 OA
BRANCH  21  25
ATOM     24  C   UNL     1      -4.223  11.969  18.984  0.00  0.00    +0.000 C 
ATOM     25  C   UNL     1      -4.125  11.730  17.668  0.00  0.00    +0.000 C 
ENDBRANCH  21  25
ENDBRANCH  19  21
ENDBRANCH   1  19
TORSDOF 4
ENDMDL
MODEL 3
REMARK VINA RESULT:      -7.3      1.049      1.570
REMARK  Name = 
REMARK  4 active torsions:
REMARK  status: ('A' for Active; 'I' for Inactive)
REMARK    1  A    between atoms: C_2  and  S_3
REMARK    2  A    between atoms: S_3  and  N_6
REMARK    3  A    between atoms: N_6  and  C_7
REMARK    4  A    between atoms: C_16  and  C_18
REMARK                            x       y       z     vdW  Elec       q    Type
REMARK                         _______ _______ _______ _____ _____    ______ ____
ROOT
ATOM      1  C   UNL     1      -0.522  10.759  18.537  0.00  0.00    +0.000 A 
ATOM      2  C   UNL     1      -0.823  10.440  19.862  0.00  0.00    +0.000 A 
ATOM      3  C   UNL     1      -0.055   9.494  20.547  0.00  0.00    +0.000 A 
ATOM      4  C   UNL     1       0.999   8.845  19.896  0.00  0.00    +0.000 A 
ATOM      5  C   UNL     1       1.303   9.182  18.565  0.00  0.00    +0.000 A 
ATOM      6  C   UNL     1       0.543  10.139  17.888  0.00  0.00    +0.000 A 
ATOM      7  C   UNL     1       2.431   8.441  17.905  0.00  0.00    +0.000 C 
ATOM      8  C   UNL     1       2.293   6.958  18.253  0.00  0.00    +0.000 C 
ATOM      9  N   UNL     1       2.143   6.659  19.685  0.00  0.00    +0.000 N 
ATOM     10  C   UNL     1       2.351   5.405  20.276  0.00  0.00    +0.000 C 
ATOM     11  O   UNL     1       2.408   5.276  21.501  0.00  0.00    +0.000 OA
ATOM     12  C   UNL     1       1.833   7.782  20.579  0.00  0.00    +0.000 C 
ENDROOT
BRANCH  10  13
ATOM     13  C   UNL     1       2.535   4.167  19.451  0.00  0.00    +0.000 A 
ATOM     14  C   UNL     1       3.816   3.889  18.949  0.00  0.00    +0.000 A 
ATOM     15  C   UNL     1       4.047   2.745  18.175  0.00  0.00    +0.000 A 
ATOM     16  C   UNL     1       2.998   1.878  17.879  0.00  0.00    +0.000 A 
ATOM     17  C   UNL     1       1.733   2.122  18.401  0.00  0.00    +0.000 A 
ATOM     18  C   UNL     1       1.518   3.235  19.217  0.00  0.00    +0.000 A 
ENDBRANCH  10  13
BRANCH   1  19
ATOM     19  N   UNL     1      -1.359  11.650  17.795  0.00  0.00    +0.000 N 
ATOM     20  H   UNL     1      -1.689  12.444  18.345  0.00  0.00    +0.000 HD
BRANCH  19  21
ATOM     21  S   UNL     1      -2.737  10.949  17.066  0.00  0.00    +0.000 S 
ATOM     22  O   UNL     1      -2.732   9.572  17.510  0.00  0.00    +0.000 OA
ATOM     23  O   UNL     1      -2.669  11.241  15.648  0.00  0.00    +0.000 OA
BRANCH  21  25
ATOM     24  C   UNL     1      -5.304  11.150  17.825  0.00  0.00    +0.000 C 
ATOM     25  C   UNL     1      -4.118  11.768  17.732  0.00  0.00    +0.000 C 
ENDBRANCH  21  25
ENDBRANCH  19  21
ENDBRANCH   1  19
TORSDOF 4
ENDMDL
MODEL 4
REMARK VINA RESULT:      -7.2      2.824      8.044
REMARK  Name = 
REMARK  4 active torsions:
REMARK  status: ('A' for Active; 'I' for Inactive)
REMARK    1  A    between atoms: C_2  and  S_3
REMARK    2  A    between atoms: S_3  and  N_6
REMARK    3  A    between atoms: N_6  and  C_7
REMARK    4  A    between atoms: C_16  and  C_18
REMARK                            x       y       z     vdW  Elec       q    Type
REMARK                         _______ _______ _______ _____ _____    ______ ____
ROOT
ATOM      1  C   UNL     1       2.537   6.851  19.315  0.00  0.00    +0.000 A 
ATOM      2  C   UNL     1       2.795   7.500  18.106  0.00  0.00    +0.000 A 
ATOM      3  C   UNL     1       2.305   8.791  17.887  0.00  0.00    +0.000 A 
ATOM      4  C   UNL     1       1.531   9.422  18.865  0.00  0.00    +0.000 A 
ATOM      5  C   UNL     1       1.286   8.764  20.084  0.00  0.00    +0.000 A 
ATOM      6  C   UNL     1       1.791   7.481  20.308  0.00  0.00    +0.000 A 
ATOM      7  C   UNL     1       0.431   9.477  21.094  0.00  0.00    +0.000 C 
ATOM      8  C   UNL     1      -0.763  10.087  20.359  0.00  0.00    +0.000 C 
ATOM      9  N   UNL     1      -0.428  10.903  19.183  0.00  0.00    +0.000 N 
ATOM     10  C   UNL     1      -1.282  11.832  18.571  0.00  0.00    +0.000 C 
ATOM     11  O   UNL     1      -0.866  12.623  17.722  0.00  0.00    +0.000 OA
ATOM     12  C   UNL     1       0.941  10.800  18.658  0.00  0.00    +0.000 C 
ENDROOT
BRANCH  10  13
ATOM     13  C   UNL     1      -2.734  11.920  18.932  0.00  0.00    +0.000 A 
ATOM     14  C   UNL     1      -3.659  11.224  18.136  0.00  0.00    +0.000 A 
ATOM     15  C   UNL     1      -5.027  11.268  18.429  0.00  0.00    +0.000 A 
ATOM     16  C   UNL     1      -5.489  12.020  19.506  0.00  0.00    +0.000 A 
ATOM     17  C   UNL     1      -4.580  12.682  20.325  0.00  0.00    +0.000 A 
ATOM     18  C   UNL     1      -3.211  12.593  20.062  0.00  0.00    +0.000 A 
ENDBRANCH  10  13
BRANCH   1  19
ATOM     19  N   UNL     1       2.947   5.496  19.515  0.00  0.00    +0.000 N 
ATOM     20  H   UNL     1       3.818   5.264  19.036  0.00  0.00    +0.000 HD
BRANCH  19  21
ATOM     21  S   UNL     1       1.810   4.297  19.075  0.00  0.00    +0.000 S 
ATOM     22  O   UNL     1       1.383   4.662  17.742  0.00  0.00    +0.000 OA
ATOM     23  O   UNL     1       0.830   4.222  20.141  0.00  0.00    +0.000 OA
BRANCH  21  25
ATOM     24  C   UNL     1       2.728   2.074  17.885  0.00  0.00    +0.000 C 
ATOM     25  C   UNL     1       2.677   2.792  19.016  0.00  0.00    +0.000 C 
ENDBRANCH  21  25
ENDBRANCH  19  21
ENDBRANCH   1  19
TORSDOF 4
ENDMDL
MODEL 5
REMARK VINA RESULT:      -7.2      2.968      7.908
REMARK  Name = 
REMARK  4 active torsions:
REMARK  status: ('A' for Active; 'I' for Inactive)
REMARK    1  A    between atoms: C_2  and  S_3
REMARK    2  A    between atoms: S_3  and  N_6
REMARK    3  A    between atoms: N_6  and  C_7
REMARK    4  A    between atoms: C_16  and  C_18
REMARK                            x       y       z     vdW  Elec       q    Type
REMARK                         _______ _______ _______ _____ _____    ______ ____
ROOT
ATOM      1  C   UNL     1       2.749   6.021  18.971  0.00  0.00    +0.000 A 
ATOM      2  C   UNL     1       3.155   6.770  17.864  0.00  0.00    +0.000 A 
ATOM      3  C   UNL     1       2.846   8.131  17.788  0.00  0.00    +0.000 A 
ATOM      4  C   UNL     1       2.105   8.738  18.806  0.00  0.00    +0.000 A 
ATOM      5  C   UNL     1       1.710   7.979  19.922  0.00  0.00    +0.000 A 
ATOM      6  C   UNL     1       2.035   6.623  20.004  0.00  0.00    +0.000 A 
ATOM      7  C   UNL     1       0.898   8.674  20.978  0.00  0.00    +0.000 C 
ATOM      8  C   UNL     1      -0.166   9.521  20.278  0.00  0.00    +0.000 C 
ATOM      9  N   UNL     1       0.336  10.419  19.228  0.00  0.00    +0.000 N 
ATOM     10  C   UNL     1      -0.358  11.519  18.703  0.00  0.00    +0.000 C 
ATOM     11  O   UNL     1       0.202  12.343  17.978  0.00  0.00    +0.000 OA
ATOM     12  C   UNL     1       1.707  10.198  18.749  0.00  0.00    +0.000 C 
ENDROOT
BRANCH  10  13
ATOM     13  C   UNL     1      -1.805  11.756  19.014  0.00  0.00    +0.000 A 
ATOM     14  C   UNL     1      -2.767  11.218  18.144  0.00  0.00    +0.000 A 
ATOM     15  C   UNL     1      -4.133  11.405  18.386  0.00  0.00    +0.000 A 
ATOM     16  C   UNL     1      -4.553  12.145  19.489  0.00  0.00    +0.000 A 
ATOM     17  C   UNL     1      -3.612  12.650  20.379  0.00  0.00    +0.000 A 
ATOM     18  C   UNL     1      -2.252  12.416  20.163  0.00  0.00    +0.000 A 
ENDBRANCH  10  13
BRANCH   1  19
ATOM     19  N   UNL     1       2.972   4.610  19.016  0.00  0.00    +0.000 N 
ATOM     20  H   UNL     1       3.851   4.327  18.582  0.00  0.00    +0.000 HD
BRANCH  19  21
ATOM     21  S   UNL     1       1.748   3.637  18.325  0.00  0.00    +0.000 S 
ATOM     22  O   UNL     1       2.441   2.474  17.816  0.00  0.00    +0.000 OA
ATOM     23  O   UNL     1       0.997   4.476  17.411  0.00  0.00    +0.000 OA
BRANCH  21  25
ATOM     24  C   UNL     1       1.153   3.103  20.887  0.00  0.00    +0.000 C 
ATOM     25  C   UNL     1       0.699   3.163  19.627  0.00  0.00    +0.000 C 
ENDBRANCH  21  25
ENDBRANCH  19  21
ENDBRANCH   1  19
TORSDOF 4
ENDMDL
MODEL 6
REMARK VINA RESULT:      -7.2      2.968      7.971
REMARK  Name = 
REMARK  4 active torsions:
REMARK  status: ('A' for Active; 'I' for Inactive)
REMARK    1  A    between atoms: C_2  and  S_3
REMARK    2  A    between atoms: S_3  and  N_6
REMARK    3  A    between atoms: N_6  and  C_7
REMARK    4  A    between atoms: C_16  and  C_18
REMARK                            x       y       z     vdW  Elec       q    Type
REMARK                         _______ _______ _______ _____ _____    ______ ____
ROOT
ATOM      1  C   UNL     1       2.689   6.211  19.050  0.00  0.00    +0.000 A 
ATOM      2  C   UNL     1       3.078   6.952  17.933  0.00  0.00    +0.000 A 
ATOM      3  C   UNL     1       2.726   8.301  17.831  0.00  0.00    +0.000 A 
ATOM      4  C   UNL     1       1.960   8.902  18.834  0.00  0.00    +0.000 A 
ATOM      5  C   UNL     1       1.584   8.151  19.961  0.00  0.00    +0.000 A 
ATOM      6  C   UNL     1       1.950   6.808  20.069  0.00  0.00    +0.000 A 
ATOM      7  C   UNL     1       0.744   8.838  21.001  0.00  0.00    +0.000 C 
ATOM      8  C   UNL     1      -0.342   9.638  20.281  0.00  0.00    +0.000 C 
ATOM      9  N   UNL     1       0.137  10.534  19.217  0.00  0.00    +0.000 N 
ATOM     10  C   UNL     1      -0.589  11.601  18.669  0.00  0.00    +0.000 C 
ATOM     11  O   UNL     1      -0.050  12.430  17.932  0.00  0.00    +0.000 OA
ATOM     12  C   UNL     1       1.517  10.347  18.749  0.00  0.00    +0.000 C 
ENDROOT
BRANCH  10  13
ATOM     13  C   UNL     1      -2.044  11.798  18.968  0.00  0.00    +0.000 A 
ATOM     14  C   UNL     1      -2.392  12.564  20.093  0.00  0.00    +0.000 A 
ATOM     15  C   UNL     1      -3.735  12.784  20.419  0.00  0.00    +0.000 A 
ATOM     16  C   UNL     1      -4.745  12.227  19.637  0.00  0.00    +0.000 A 
ATOM     17  C   UNL     1      -4.414  11.499  18.500  0.00  0.00    +0.000 A 
ATOM     18  C   UNL     1      -3.074  11.326  18.147  0.00  0.00    +0.000 A 
ENDBRANCH  10  13
BRANCH   1  19
ATOM     19  N   UNL     1       2.956   4.808  19.122  0.00  0.00    +0.000 N 
ATOM     20  H   UNL     1       3.897   4.561  18.813  0.00  0.00    +0.000 HD
BRANCH  19  21
ATOM     21  S   UNL     1       1.876   3.796  18.266  0.00  0.00    +0.000 S 
ATOM     22  O   UNL     1       2.717   2.796  17.645  0.00  0.00    +0.000 OA
ATOM     23  O   UNL     1       1.054   4.652  17.434  0.00  0.00    +0.000 OA
BRANCH  21  25
ATOM     24  C   UNL     1       1.085   3.218  20.765  0.00  0.00    +0.000 C 
ATOM     25  C   UNL     1       0.858   3.041  19.455  0.00  0.00    +0.000 C 
ENDBRANCH  21  25
ENDBRANCH  19  21
ENDBRANCH   1  19
TORSDOF 4
ENDMDL
MODEL 7
REMARK VINA RESULT:      -7.1      2.856      8.154
REMARK  Name = 
REMARK  4 active torsions:
REMARK  status: ('A' for Active; 'I' for Inactive)
REMARK    1  A    between atoms: C_2  and  S_3
REMARK    2  A    between atoms: S_3  and  N_6
REMARK    3  A    between atoms: N_6  and  C_7
REMARK    4  A    between atoms: C_16  and  C_18
REMARK                            x       y       z     vdW  Elec       q    Type
REMARK                         _______ _______ _______ _____ _____    ______ ____
ROOT
ATOM      1  C   UNL     1       2.503   6.848  19.453  0.00  0.00    +0.000 A 
ATOM      2  C   UNL     1       2.727   7.444  18.211  0.00  0.00    +0.000 A 
ATOM      3  C   UNL     1       2.237   8.728  17.952  0.00  0.00    +0.000 A 
ATOM      4  C   UNL     1       1.496   9.404  18.926  0.00  0.00    +0.000 A 
ATOM      5  C   UNL     1       1.286   8.800  20.178  0.00  0.00    +0.000 A 
ATOM      6  C   UNL     1       1.791   7.525  20.441  0.00  0.00    +0.000 A 
ATOM      7  C   UNL     1       0.467   9.561  21.183  0.00  0.00    +0.000 C 
ATOM      8  C   UNL     1      -0.747  10.147  20.460  0.00  0.00    +0.000 C 
ATOM      9  N   UNL     1      -0.443  10.911  19.240  0.00  0.00    +0.000 N 
ATOM     10  C   UNL     1      -1.312  11.818  18.616  0.00  0.00    +0.000 C 
ATOM     11  O   UNL     1      -0.918  12.570  17.722  0.00  0.00    +0.000 OA
ATOM     12  C   UNL     1       0.907  10.776  18.678  0.00  0.00    +0.000 C 
ENDROOT
BRANCH  10  13
ATOM     13  C   UNL     1      -2.751  11.931  19.018  0.00  0.00    +0.000 A 
ATOM     14  C   UNL     1      -3.059  12.644  20.188  0.00  0.00    +0.000 A 
ATOM     15  C   UNL     1      -4.387  12.784  20.609  0.00  0.00    +0.000 A 
ATOM     16  C   UNL     1      -5.418  12.201  19.878  0.00  0.00    +0.000 A 
ATOM     17  C   UNL     1      -5.131  11.525  18.697  0.00  0.00    +0.000 A 
ATOM     18  C   UNL     1      -3.810  11.432  18.251  0.00  0.00    +0.000 A 
ENDBRANCH  10  13
BRANCH   1  19
ATOM     19  N   UNL     1       2.912   5.500  19.698  0.00  0.00    +0.000 N 
ATOM     20  H   UNL     1       3.786   5.254  19.232  0.00  0.00    +0.000 HD
BRANCH  19  21
ATOM     21  S   UNL     1       1.778   4.288  19.287  0.00  0.00    +0.000 S 
ATOM     22  O   UNL     1       1.501   4.499  17.883  0.00  0.00    +0.000 OA
ATOM     23  O   UNL     1       0.696   4.369  20.248  0.00  0.00    +0.000 OA
BRANCH  21  25
ATOM     24  C   UNL     1       3.918   2.670  19.364  0.00  0.00    +0.000 C 
ATOM     25  C   UNL     1       2.587   2.764  19.496  0.00  0.00    +0.000 C 
ENDBRANCH  21  25
ENDBRANCH  19  21
ENDBRANCH   1  19
TORSDOF 4
ENDMDL
MODEL 8
REMARK VINA RESULT:      -6.9      3.116      8.451
REMARK  Name = 
REMARK  4 active torsions:
REMARK  status: ('A' for Active; 'I' for Inactive)
REMARK    1  A    between atoms: C_2  and  S_3
REMARK    2  A    between atoms: S_3  and  N_6
REMARK    3  A    between atoms: N_6  and  C_7
REMARK    4  A    between atoms: C_16  and  C_18
REMARK                            x       y       z     vdW  Elec       q    Type
REMARK                         _______ _______ _______ _____ _____    ______ ____
ROOT
ATOM      1  C   UNL     1       2.420   6.509  19.153  0.00  0.00    +0.000 A 
ATOM      2  C   UNL     1       2.690   7.189  17.964  0.00  0.00    +0.000 A 
ATOM      3  C   UNL     1       2.340   8.536  17.833  0.00  0.00    +0.000 A 
ATOM      4  C   UNL     1       1.694   9.197  18.882  0.00  0.00    +0.000 A 
ATOM      5  C   UNL     1       1.437   8.507  20.081  0.00  0.00    +0.000 A 
ATOM      6  C   UNL     1       1.802   7.165  20.215  0.00  0.00    +0.000 A 
ATOM      7  C   UNL     1       0.723   9.256  21.170  0.00  0.00    +0.000 C 
ATOM      8  C   UNL     1      -0.430  10.034  20.534  0.00  0.00    +0.000 C 
ATOM      9  N   UNL     1      -0.063  10.870  19.381  0.00  0.00    +0.000 N 
ATOM     10  C   UNL     1      -0.835  11.919  18.862  0.00  0.00    +0.000 C 
ATOM     11  O   UNL     1      -0.375  12.703  18.030  0.00  0.00    +0.000 OA
ATOM     12  C   UNL     1       1.256  10.642  18.774  0.00  0.00    +0.000 C 
ENDROOT
BRANCH  10  13
ATOM     13  C   UNL     1      -2.247  12.150  19.309  0.00  0.00    +0.000 A 
ATOM     14  C   UNL     1      -2.460  12.917  20.465  0.00  0.00    +0.000 A 
ATOM     15  C   UNL     1      -3.757  13.168  20.927  0.00  0.00    +0.000 A 
ATOM     16  C   UNL     1      -4.855  12.642  20.250  0.00  0.00    +0.000 A 
ATOM     17  C   UNL     1      -4.660  11.913  19.082  0.00  0.00    +0.000 A 
ATOM     18  C   UNL     1      -3.367  11.709  18.595  0.00  0.00    +0.000 A 
ENDBRANCH  10  13
BRANCH   1  19
ATOM     19  N   UNL     1       2.681   5.108  19.265  0.00  0.00    +0.000 N 
ATOM     20  H   UNL     1       2.452   4.728  20.184  0.00  0.00    +0.000 HD
BRANCH  19  21
ATOM     21  S   UNL     1       4.280   4.615  18.913  0.00  0.00    +0.000 S 
ATOM     22  O   UNL     1       5.121   5.509  19.678  0.00  0.00    +0.000 OA
ATOM     23  O   UNL     1       4.409   4.574  17.470  0.00  0.00    +0.000 OA
BRANCH  21  25
ATOM     24  C   UNL     1       3.750   1.985  18.989  0.00  0.00    +0.000 C 
ATOM     25  C   UNL     1       4.444   2.997  19.528  0.00  0.00    +0.000 C 
ENDBRANCH  21  25
ENDBRANCH  19  21
ENDBRANCH   1  19
TORSDOF 4
ENDMDL
MODEL 9
REMARK VINA RESULT:      -6.9      3.125      8.420
REMARK  Name = 
REMARK  4 active torsions:
REMARK  status: ('A' for Active; 'I' for Inactive)
REMARK    1  A    between atoms: C_2  and  S_3
REMARK    2  A    between atoms: S_3  and  N_6
REMARK    3  A    between atoms: N_6  and  C_7
REMARK    4  A    between atoms: C_16  and  C_18
REMARK                            x       y       z     vdW  Elec       q    Type
REMARK                         _______ _______ _______ _____ _____    ______ ____
ROOT
ATOM      1  C   UNL     1       2.415   6.600  19.183  0.00  0.00    +0.000 A 
ATOM      2  C   UNL     1       2.666   7.274  17.986  0.00  0.00    +0.000 A 
ATOM      3  C   UNL     1       2.299   8.616  17.849  0.00  0.00    +0.000 A 
ATOM      4  C   UNL     1       1.654   9.277  18.898  0.00  0.00    +0.000 A 
ATOM      5  C   UNL     1       1.417   8.593  20.104  0.00  0.00    +0.000 A 
ATOM      6  C   UNL     1       1.799   7.257  20.246  0.00  0.00    +0.000 A 
ATOM      7  C   UNL     1       0.702   9.342  21.194  0.00  0.00    +0.000 C 
ATOM      8  C   UNL     1      -0.465  10.101  20.562  0.00  0.00    +0.000 C 
ATOM      9  N   UNL     1      -0.119  10.932  19.399  0.00  0.00    +0.000 N 
ATOM     10  C   UNL     1      -0.909  11.967  18.880  0.00  0.00    +0.000 C 
ATOM     11  O   UNL     1      -0.465  12.750  18.037  0.00  0.00    +0.000 OA
ATOM     12  C   UNL     1       1.197  10.715  18.783  0.00  0.00    +0.000 C 
ENDROOT
BRANCH  10  13
ATOM     13  C   UNL     1      -2.320  12.184  19.337  0.00  0.00    +0.000 A 
ATOM     14  C   UNL     1      -3.360  11.671  18.545  0.00  0.00    +0.000 A 
ATOM     15  C   UNL     1      -4.696  11.840  18.925  0.00  0.00    +0.000 A 
ATOM     16  C   UNL     1      -5.010  12.539  20.089  0.00  0.00    +0.000 A 
ATOM     17  C   UNL     1      -3.989  13.019  20.901  0.00  0.00    +0.000 A 
ATOM     18  C   UNL     1      -2.655  12.802  20.547  0.00  0.00    +0.000 A 
ENDBRANCH  10  13
BRANCH   1  19
ATOM     19  N   UNL     1       2.695   5.203  19.304  0.00  0.00    +0.000 N 
ATOM     20  H   UNL     1       2.569   4.848  20.253  0.00  0.00    +0.000 HD
BRANCH  19  21
ATOM     21  S   UNL     1       4.249   4.705  18.794  0.00  0.00    +0.000 S 
ATOM     22  O   UNL     1       5.165   5.599  19.468  0.00  0.00    +0.000 OA
ATOM     23  O   UNL     1       4.232   4.660  17.345  0.00  0.00    +0.000 OA
BRANCH  21  25
ATOM     24  C   UNL     1       3.640   2.578  20.315  0.00  0.00    +0.000 C 
ATOM     25  C   UNL     1       4.470   3.088  19.394  0.00  0.00    +0.000 C 
ENDBRANCH  21  25
ENDBRANCH  19  21
ENDBRANCH   1  19
TORSDOF 4
ENDMDL
