MODEL 1
REMARK VINA RESULT:      -8.1      0.000      0.000
REMARK  Name = 
REMARK  7 active torsions:
REMARK  status: ('A' for Active; 'I' for Inactive)
REMARK    1  A    between atoms: C_1  and  N_2
REMARK    2  A    between atoms: N_2  and  C_13
REMARK    3  A    between atoms: C_3  and  C_5
REMARK    4  A    between atoms: C_5  and  C_6
REMARK    5  A    between atoms: C_6  and  C_7
REMARK    6  A    between atoms: N_17  and  C_18
REMARK    7  A    between atoms: C_18  and  C_19
REMARK                            x       y       z     vdW  Elec       q    Type
REMARK                         _______ _______ _______ _____ _____    ______ ____
ROOT
ATOM      1  C   UNL     1       6.284   5.858  17.381  0.00  0.00    +0.000 C 
ATOM      2  C   UNL     1       6.805   5.487  15.985  0.00  0.00    +0.000 C 
ATOM      3  C   UNL     1       5.766   4.670  15.218  0.00  0.00    +0.000 C 
ATOM      4  C   UNL     1       5.285   3.452  16.017  0.00  0.00    +0.000 C 
ATOM      5  N   UNL     1       4.737   3.847  17.325  0.00  0.00    +0.000 NA
ATOM      6  C   UNL     1       5.747   4.597  18.097  0.00  0.00    +0.000 C 
ENDROOT
BRANCH   1   8
ATOM      7  C   UNL     1       8.028   5.859  19.210  0.00  0.00    +0.000 C 
ATOM      8  N   UNL     1       7.316   6.590  18.163  0.00  0.00    +0.000 N 
ATOM      9  C   UNL     1       7.603   7.903  17.790  0.00  0.00    +0.000 C 
ATOM     10  O   UNL     1       7.056   8.438  16.824  0.00  0.00    +0.000 OA
BRANCH   9  11
ATOM     11  C   UNL     1       8.646   8.661  18.595  0.00  0.00    +0.000 C 
BRANCH  11  12
ATOM     12  C   UNL     1       8.489  10.172  18.420  0.00  0.00    +0.000 C 
BRANCH  12  13
ATOM     13  C   UNL     1       9.736  10.912  18.824  0.00  0.00    +0.000 A 
ATOM     14  C   UNL     1      10.688  11.300  17.881  0.00  0.00    +0.000 A 
ATOM     15  C   UNL     1      11.827  11.989  18.287  0.00  0.00    +0.000 A 
ATOM     16  C   UNL     1      11.981  12.258  19.636  0.00  0.00    +0.000 A 
ATOM     17  N   UNL     1      11.095  11.886  20.583  0.00  0.00    +0.000 NA
ATOM     18  C   UNL     1       9.994  11.223  20.159  0.00  0.00    +0.000 A 
ENDBRANCH  12  13
ENDBRANCH  11  12
ENDBRANCH   9  11
ENDBRANCH   1   8
BRANCH   5  19
ATOM     19  C   UNL     1       4.327   2.675  18.127  0.00  0.00    +0.000 C 
BRANCH  19  20
ATOM     20  C   UNL     1       3.040   2.836  18.902  0.00  0.00    +0.000 A 
ATOM     21  C   UNL     1       3.043   3.500  20.140  0.00  0.00    +0.000 A 
ATOM     22  C   UNL     1       1.852   3.712  20.832  0.00  0.00    +0.000 A 
ATOM     23  C   UNL     1       0.645   3.265  20.297  0.00  0.00    +0.000 A 
ATOM     24  C   UNL     1       0.631   2.600  19.073  0.00  0.00    +0.000 A 
ATOM     25  C   UNL     1       1.823   2.385  18.379  0.00  0.00    +0.000 A 
ENDBRANCH  19  20
ENDBRANCH   5  19
TORSDOF 6
ENDMDL
MODEL 2
REMARK VINA RESULT:      -8.0      1.378      1.769
REMARK  Name = 
REMARK  7 active torsions:
REMARK  status: ('A' for Active; 'I' for Inactive)
REMARK    1  A    between atoms: C_1  and  N_2
REMARK    2  A    between atoms: N_2  and  C_13
REMARK    3  A    between atoms: C_3  and  C_5
REMARK    4  A    between atoms: C_5  and  C_6
REMARK    5  A    between atoms: C_6  and  C_7
REMARK    6  A    between atoms: N_17  and  C_18
REMARK    7  A    between atoms: C_18  and  C_19
REMARK                            x       y       z     vdW  Elec       q    Type
REMARK                         _______ _______ _______ _____ _____    ______ ____
ROOT
ATOM      1  C   UNL     1       6.201   5.993  17.411  0.00  0.00    +0.000 C 
ATOM      2  C   UNL     1       6.523   4.502  17.233  0.00  0.00    +0.000 C 
ATOM      3  C   UNL     1       5.380   3.783  16.517  0.00  0.00    +0.000 C 
ATOM      4  C   UNL     1       4.030   4.022  17.202  0.00  0.00    +0.000 C 
ATOM      5  N   UNL     1       3.723   5.458  17.305  0.00  0.00    +0.000 NA
ATOM      6  C   UNL     1       4.796   6.159  18.036  0.00  0.00    +0.000 C 
ENDROOT
BRANCH   1   8
ATOM      7  C   UNL     1       7.994   5.923  19.190  0.00  0.00    +0.000 C 
ATOM      8  N   UNL     1       7.275   6.687  18.172  0.00  0.00    +0.000 N 
ATOM      9  C   UNL     1       7.587   7.996  17.807  0.00  0.00    +0.000 C 
ATOM     10  O   UNL     1       7.029   8.558  16.864  0.00  0.00    +0.000 OA
BRANCH   9  11
ATOM     11  C   UNL     1       8.672   8.715  18.592  0.00  0.00    +0.000 C 
BRANCH  11  12
ATOM     12  C   UNL     1       9.013  10.064  17.958  0.00  0.00    +0.000 C 
BRANCH  12  13
ATOM     13  C   UNL     1       9.265  11.121  18.999  0.00  0.00    +0.000 A 
ATOM     14  C   UNL     1       9.465  10.788  20.339  0.00  0.00    +0.000 A 
ATOM     15  C   UNL     1       9.703  11.790  21.274  0.00  0.00    +0.000 A 
ATOM     16  C   UNL     1       9.723  13.103  20.835  0.00  0.00    +0.000 A 
ATOM     17  N   UNL     1       9.518  13.471  19.554  0.00  0.00    +0.000 NA
ATOM     18  C   UNL     1       9.295  12.475  18.664  0.00  0.00    +0.000 A 
ENDBRANCH  12  13
ENDBRANCH  11  12
ENDBRANCH   9  11
ENDBRANCH   1   8
BRANCH   5  19
ATOM     19  C   UNL     1       2.451   5.701  18.018  0.00  0.00    +0.000 C 
BRANCH  19  20
ATOM     20  C   UNL     1       2.082   4.669  19.059  0.00  0.00    +0.000 A 
ATOM     21  C   UNL     1       2.534   4.813  20.381  0.00  0.00    +0.000 A 
ATOM     22  C   UNL     1       2.147   3.903  21.364  0.00  0.00    +0.000 A 
ATOM     23  C   UNL     1       1.303   2.842  21.038  0.00  0.00    +0.000 A 
ATOM     24  C   UNL     1       0.854   2.686  19.729  0.00  0.00    +0.000 A 
ATOM     25  C   UNL     1       1.244   3.595  18.743  0.00  0.00    +0.000 A 
ENDBRANCH  19  20
ENDBRANCH   5  19
TORSDOF 6
ENDMDL
MODEL 3
REMARK VINA RESULT:      -7.8      0.714      1.362
REMARK  Name = 
REMARK  7 active torsions:
REMARK  status: ('A' for Active; 'I' for Inactive)
REMARK    1  A    between atoms: C_1  and  N_2
REMARK    2  A    between atoms: N_2  and  C_13
REMARK    3  A    between atoms: C_3  and  C_5
REMARK    4  A    between atoms: C_5  and  C_6
REMARK    5  A    between atoms: C_6  and  C_7
REMARK    6  A    between atoms: N_17  and  C_18
REMARK    7  A    between atoms: C_18  and  C_19
REMARK                            x       y       z     vdW  Elec       q    Type
REMARK                         _______ _______ _______ _____ _____    ______ ____
ROOT
ATOM      1  C   UNL     1       6.367   5.800  17.183  0.00  0.00    +0.000 C 
ATOM      2  C   UNL     1       7.034   5.227  15.924  0.00  0.00    +0.000 C 
ATOM      3  C   UNL     1       6.045   4.375  15.128  0.00  0.00    +0.000 C 
ATOM      4  C   UNL     1       5.385   3.296  15.995  0.00  0.00    +0.000 C 
ATOM      5  N   UNL     1       4.705   3.882  17.162  0.00  0.00    +0.000 NA
ATOM      6  C   UNL     1       5.660   4.670  17.967  0.00  0.00    +0.000 C 
ENDROOT
BRANCH   1   8
ATOM      7  C   UNL     1       8.118   5.842  19.005  0.00  0.00    +0.000 C 
ATOM      8  N   UNL     1       7.342   6.570  18.003  0.00  0.00    +0.000 N 
ATOM      9  C   UNL     1       7.516   7.920  17.704  0.00  0.00    +0.000 C 
ATOM     10  O   UNL     1       6.921   8.462  16.771  0.00  0.00    +0.000 OA
BRANCH   9  11
ATOM     11  C   UNL     1       8.499   8.716  18.548  0.00  0.00    +0.000 C 
BRANCH  11  12
ATOM     12  C   UNL     1       8.719  10.115  17.971  0.00  0.00    +0.000 C 
BRANCH  12  13
ATOM     13  C   UNL     1       9.700  10.908  18.791  0.00  0.00    +0.000 A 
ATOM     14  C   UNL     1       9.528  11.077  20.166  0.00  0.00    +0.000 A 
ATOM     15  C   UNL     1      10.458  11.811  20.896  0.00  0.00    +0.000 A 
ATOM     16  C   UNL     1      11.531  12.364  20.219  0.00  0.00    +0.000 A 
ATOM     17  N   UNL     1      11.726  12.241  18.890  0.00  0.00    +0.000 NA
ATOM     18  C   UNL     1      10.809  11.517  18.206  0.00  0.00    +0.000 A 
ENDBRANCH  12  13
ENDBRANCH  11  12
ENDBRANCH   9  11
ENDBRANCH   1   8
BRANCH   5  19
ATOM     19  C   UNL     1       4.118   2.846  18.036  0.00  0.00    +0.000 C 
BRANCH  19  20
ATOM     20  C   UNL     1       2.948   3.294  18.881  0.00  0.00    +0.000 A 
ATOM     21  C   UNL     1       1.982   2.363  19.294  0.00  0.00    +0.000 A 
ATOM     22  C   UNL     1       0.935   2.752  20.128  0.00  0.00    +0.000 A 
ATOM     23  C   UNL     1       0.841   4.075  20.559  0.00  0.00    +0.000 A 
ATOM     24  C   UNL     1       1.790   5.009  20.150  0.00  0.00    +0.000 A 
ATOM     25  C   UNL     1       2.838   4.621  19.313  0.00  0.00    +0.000 A 
ENDBRANCH  19  20
ENDBRANCH   5  19
TORSDOF 6
ENDMDL
MODEL 4
REMARK VINA RESULT:      -7.7      1.115      1.385
REMARK  Name = 
REMARK  7 active torsions:
REMARK  status: ('A' for Active; 'I' for Inactive)
REMARK    1  A    between atoms: C_1  and  N_2
REMARK    2  A    between atoms: N_2  and  C_13
REMARK    3  A    between atoms: C_3  and  C_5
REMARK    4  A    between atoms: C_5  and  C_6
REMARK    5  A    between atoms: C_6  and  C_7
REMARK    6  A    between atoms: N_17  and  C_18
REMARK    7  A    between atoms: C_18  and  C_19
REMARK                            x       y       z     vdW  Elec       q    Type
REMARK                         _______ _______ _______ _____ _____    ______ ____
ROOT
ATOM      1  C   UNL     1       6.271   5.840  17.295  0.00  0.00    +0.000 C 
ATOM      2  C   UNL     1       6.868   5.452  15.934  0.00  0.00    +0.000 C 
ATOM      3  C   UNL     1       5.856   4.661  15.106  0.00  0.00    +0.000 C 
ATOM      4  C   UNL     1       5.295   3.458  15.874  0.00  0.00    +0.000 C 
ATOM      5  N   UNL     1       4.678   3.870  17.145  0.00  0.00    +0.000 NA
ATOM      6  C   UNL     1       5.658   4.595  17.978  0.00  0.00    +0.000 C 
ENDROOT
BRANCH   1   8
ATOM      7  C   UNL     1       7.957   5.777  19.176  0.00  0.00    +0.000 C 
ATOM      8  N   UNL     1       7.273   6.546  18.138  0.00  0.00    +0.000 N 
ATOM      9  C   UNL     1       7.560   7.875  17.829  0.00  0.00    +0.000 C 
ATOM     10  O   UNL     1       7.039   8.446  16.869  0.00  0.00    +0.000 OA
BRANCH   9  11
ATOM     11  C   UNL     1       8.571   8.607  18.697  0.00  0.00    +0.000 C 
BRANCH  11  12
ATOM     12  C   UNL     1       9.045   9.897  18.027  0.00  0.00    +0.000 C 
BRANCH  12  13
ATOM     13  C   UNL     1       9.199  11.017  19.021  0.00  0.00    +0.000 A 
ATOM     14  C   UNL     1       9.178  12.352  18.619  0.00  0.00    +0.000 A 
ATOM     15  C   UNL     1       9.316  13.364  19.565  0.00  0.00    +0.000 A 
ATOM     16  C   UNL     1       9.483  13.001  20.890  0.00  0.00    +0.000 A 
ATOM     17  N   UNL     1       9.527  11.723  21.320  0.00  0.00    +0.000 NA
ATOM     18  C   UNL     1       9.384  10.760  20.379  0.00  0.00    +0.000 A 
ENDBRANCH  12  13
ENDBRANCH  11  12
ENDBRANCH   9  11
ENDBRANCH   1   8
BRANCH   5  19
ATOM     19  C   UNL     1       4.189   2.712  17.922  0.00  0.00    +0.000 C 
BRANCH  19  20
ATOM     20  C   UNL     1       3.210   3.036  19.026  0.00  0.00    +0.000 A 
ATOM     21  C   UNL     1       2.033   3.745  18.735  0.00  0.00    +0.000 A 
ATOM     22  C   UNL     1       1.091   3.994  19.733  0.00  0.00    +0.000 A 
ATOM     23  C   UNL     1       1.313   3.536  21.031  0.00  0.00    +0.000 A 
ATOM     24  C   UNL     1       2.480   2.838  21.332  0.00  0.00    +0.000 A 
ATOM     25  C   UNL     1       3.425   2.590  20.335  0.00  0.00    +0.000 A 
ENDBRANCH  19  20
ENDBRANCH   5  19
TORSDOF 6
ENDMDL
MODEL 5
REMARK VINA RESULT:      -7.5      0.826      1.333
REMARK  Name = 
REMARK  7 active torsions:
REMARK  status: ('A' for Active; 'I' for Inactive)
REMARK    1  A    between atoms: C_1  and  N_2
REMARK    2  A    between atoms: N_2  and  C_13
REMARK    3  A    between atoms: C_3  and  C_5
REMARK    4  A    between atoms: C_5  and  C_6
REMARK    5  A    between atoms: C_6  and  C_7
REMARK    6  A    between atoms: N_17  and  C_18
REMARK    7  A    between atoms: C_18  and  C_19
REMARK                            x       y       z     vdW  Elec       q    Type
REMARK                         _______ _______ _______ _____ _____    ______ ____
ROOT
ATOM      1  C   UNL     1       6.445   6.142  17.472  0.00  0.00    +0.000 C 
ATOM      2  C   UNL     1       6.975   5.671  16.110  0.00  0.00    +0.000 C 
ATOM      3  C   UNL     1       5.937   4.808  15.394  0.00  0.00    +0.000 C 
ATOM      4  C   UNL     1       5.444   3.651  16.272  0.00  0.00    +0.000 C 
ATOM      5  N   UNL     1       4.888   4.139  17.544  0.00  0.00    +0.000 NA
ATOM      6  C   UNL     1       5.896   4.937  18.270  0.00  0.00    +0.000 C 
ENDROOT
BRANCH   1   8
ATOM      7  C   UNL     1       8.285   6.219  19.202  0.00  0.00    +0.000 C 
ATOM      8  N   UNL     1       7.475   6.922  18.208  0.00  0.00    +0.000 N 
ATOM      9  C   UNL     1       7.664   8.255  17.844  0.00  0.00    +0.000 C 
ATOM     10  O   UNL     1       7.035   8.771  16.919  0.00  0.00    +0.000 OA
BRANCH   9  11
ATOM     11  C   UNL     1       8.705   9.061  18.604  0.00  0.00    +0.000 C 
BRANCH  11  12
ATOM     12  C   UNL     1       8.997  10.388  17.902  0.00  0.00    +0.000 C 
BRANCH  12  13
ATOM     13  C   UNL     1       9.641  11.380  18.833  0.00  0.00    +0.000 A 
ATOM     14  C   UNL     1      10.912  11.158  19.365  0.00  0.00    +0.000 A 
ATOM     15  C   UNL     1      11.481  12.100  20.217  0.00  0.00    +0.000 A 
ATOM     16  C   UNL     1      10.749  13.235  20.519  0.00  0.00    +0.000 A 
ATOM     17  N   UNL     1       9.512  13.481  20.042  0.00  0.00    +0.000 NA
ATOM     18  C   UNL     1       8.985  12.551  19.210  0.00  0.00    +0.000 A 
ENDBRANCH  12  13
ENDBRANCH  11  12
ENDBRANCH   9  11
ENDBRANCH   1   8
BRANCH   5  19
ATOM     19  C   UNL     1       4.466   3.029  18.424  0.00  0.00    +0.000 C 
BRANCH  19  20
ATOM     20  C   UNL     1       3.085   3.163  19.023  0.00  0.00    +0.000 A 
ATOM     21  C   UNL     1       1.988   2.542  18.404  0.00  0.00    +0.000 A 
ATOM     22  C   UNL     1       0.721   2.604  18.982  0.00  0.00    +0.000 A 
ATOM     23  C   UNL     1       0.535   3.285  20.185  0.00  0.00    +0.000 A 
ATOM     24  C   UNL     1       1.616   3.910  20.804  0.00  0.00    +0.000 A 
ATOM     25  C   UNL     1       2.885   3.850  20.225  0.00  0.00    +0.000 A 
ENDBRANCH  19  20
ENDBRANCH   5  19
TORSDOF 6
ENDMDL
MODEL 6
REMARK VINA RESULT:      -7.4      5.161      7.835
REMARK  Name = 
REMARK  7 active torsions:
REMARK  status: ('A' for Active; 'I' for Inactive)
REMARK    1  A    between atoms: C_1  and  N_2
REMARK    2  A    between atoms: N_2  and  C_13
REMARK    3  A    between atoms: C_3  and  C_5
REMARK    4  A    between atoms: C_5  and  C_6
REMARK    5  A    between atoms: C_6  and  C_7
REMARK    6  A    between atoms: N_17  and  C_18
REMARK    7  A    between atoms: C_18  and  C_19
REMARK                            x       y       z     vdW  Elec       q    Type
REMARK                         _______ _______ _______ _____ _____    ______ ____
ROOT
ATOM      1  C   UNL     1       2.783   6.507  18.377  0.00  0.00    +0.000 C 
ATOM      2  C   UNL     1       2.860   6.211  19.882  0.00  0.00    +0.000 C 
ATOM      3  C   UNL     1       1.654   6.804  20.612  0.00  0.00    +0.000 C 
ATOM      4  C   UNL     1       1.471   8.295  20.307  0.00  0.00    +0.000 C 
ATOM      5  N   UNL     1       1.342   8.539  18.862  0.00  0.00    +0.000 NA
ATOM      6  C   UNL     1       2.522   8.014  18.147  0.00  0.00    +0.000 C 
ENDROOT
BRANCH   1   8
ATOM      7  C   UNL     1       5.012   6.967  17.279  0.00  0.00    +0.000 C 
ATOM      8  N   UNL     1       3.988   5.999  17.668  0.00  0.00    +0.000 N 
ATOM      9  C   UNL     1       4.106   4.620  17.496  0.00  0.00    +0.000 C 
ATOM     10  O   UNL     1       3.269   3.835  17.944  0.00  0.00    +0.000 OA
BRANCH   9  11
ATOM     11  C   UNL     1       5.328   4.096  16.758  0.00  0.00    +0.000 C 
BRANCH  11  12
ATOM     12  C   UNL     1       4.971   3.660  15.336  0.00  0.00    +0.000 C 
BRANCH  12  13
ATOM     13  C   UNL     1       5.997   4.123  14.338  0.00  0.00    +0.000 A 
ATOM     14  C   UNL     1       6.009   3.637  13.030  0.00  0.00    +0.000 A 
ATOM     15  C   UNL     1       6.968   4.092  12.130  0.00  0.00    +0.000 A 
ATOM     16  C   UNL     1       7.895   5.018  12.575  0.00  0.00    +0.000 A 
ATOM     17  N   UNL     1       7.931   5.501  13.834  0.00  0.00    +0.000 NA
ATOM     18  C   UNL     1       6.983   5.046  14.687  0.00  0.00    +0.000 A 
ENDBRANCH  12  13
ENDBRANCH  11  12
ENDBRANCH   9  11
ENDBRANCH   1   8
BRANCH   5  19
ATOM     19  C   UNL     1       1.226   9.980  18.553  0.00  0.00    +0.000 C 
BRANCH  19  20
ATOM     20  C   UNL     1      -0.185  10.515  18.466  0.00  0.00    +0.000 A 
ATOM     21  C   UNL     1      -1.102   9.933  17.577  0.00  0.00    +0.000 A 
ATOM     22  C   UNL     1      -2.424  10.374  17.535  0.00  0.00    +0.000 A 
ATOM     23  C   UNL     1      -2.844  11.400  18.381  0.00  0.00    +0.000 A 
ATOM     24  C   UNL     1      -1.940  11.989  19.262  0.00  0.00    +0.000 A 
ATOM     25  C   UNL     1      -0.616  11.549  19.304  0.00  0.00    +0.000 A 
ENDBRANCH  19  20
ENDBRANCH   5  19
TORSDOF 6
ENDMDL
MODEL 7
REMARK VINA RESULT:      -7.4      7.487     10.455
REMARK  Name = 
REMARK  7 active torsions:
REMARK  status: ('A' for Active; 'I' for Inactive)
REMARK    1  A    between atoms: C_1  and  N_2
REMARK    2  A    between atoms: N_2  and  C_13
REMARK    3  A    between atoms: C_3  and  C_5
REMARK    4  A    between atoms: C_5  and  C_6
REMARK    5  A    between atoms: C_6  and  C_7
REMARK    6  A    between atoms: N_17  and  C_18
REMARK    7  A    between atoms: C_18  and  C_19
REMARK                            x       y       z     vdW  Elec       q    Type
REMARK                         _______ _______ _______ _____ _____    ______ ____
ROOT
ATOM      1  C   UNL     1       0.228  10.261  19.688  0.00  0.00    +0.000 C 
ATOM      2  C   UNL     1       1.051  11.554  19.782  0.00  0.00    +0.000 C 
ATOM      3  C   UNL     1       0.144  12.754  20.055  0.00  0.00    +0.000 C 
ATOM      4  C   UNL     1      -1.004  12.851  19.043  0.00  0.00    +0.000 C 
ATOM      5  N   UNL     1      -1.809  11.619  19.019  0.00  0.00    +0.000 NA
ATOM      6  C   UNL     1      -0.953  10.456  18.710  0.00  0.00    +0.000 C 
ENDROOT
BRANCH   1   8
ATOM      7  C   UNL     1       1.631   9.018  17.993  0.00  0.00    +0.000 C 
ATOM      8  N   UNL     1       1.093   9.098  19.350  0.00  0.00    +0.000 N 
ATOM      9  C   UNL     1       1.407   8.204  20.373  0.00  0.00    +0.000 C 
ATOM     10  O   UNL     1       1.022   8.379  21.530  0.00  0.00    +0.000 OA
BRANCH   9  11
ATOM     11  C   UNL     1       2.277   7.005  20.030  0.00  0.00    +0.000 C 
BRANCH  11  12
ATOM     12  C   UNL     1       1.720   5.722  20.647  0.00  0.00    +0.000 C 
BRANCH  12  13
ATOM     13  C   UNL     1       1.855   4.550  19.712  0.00  0.00    +0.000 A 
ATOM     14  C   UNL     1       2.092   4.732  18.349  0.00  0.00    +0.000 A 
ATOM     15  C   UNL     1       2.218   3.626  17.514  0.00  0.00    +0.000 A 
ATOM     16  C   UNL     1       2.091   2.366  18.074  0.00  0.00    +0.000 A 
ATOM     17  N   UNL     1       1.846   2.146  19.381  0.00  0.00    +0.000 NA
ATOM     18  C   UNL     1       1.733   3.239  20.172  0.00  0.00    +0.000 A 
ENDBRANCH  12  13
ENDBRANCH  11  12
ENDBRANCH   9  11
ENDBRANCH   1   8
BRANCH   5  19
ATOM     19  C   UNL     1      -2.880  11.679  18.003  0.00  0.00    +0.000 C 
BRANCH  19  20
ATOM     20  C   UNL     1      -4.291  11.680  18.546  0.00  0.00    +0.000 A 
ATOM     21  C   UNL     1      -5.283  10.904  17.924  0.00  0.00    +0.000 A 
ATOM     22  C   UNL     1      -6.571  10.845  18.454  0.00  0.00    +0.000 A 
ATOM     23  C   UNL     1      -6.883  11.560  19.611  0.00  0.00    +0.000 A 
ATOM     24  C   UNL     1      -5.908  12.338  20.231  0.00  0.00    +0.000 A 
ATOM     25  C   UNL     1      -4.618  12.400  19.700  0.00  0.00    +0.000 A 
ENDBRANCH  19  20
ENDBRANCH   5  19
TORSDOF 6
ENDMDL
MODEL 8
REMARK VINA RESULT:      -7.3      6.644     10.773
REMARK  Name = 
REMARK  7 active torsions:
REMARK  status: ('A' for Active; 'I' for Inactive)
REMARK    1  A    between atoms: C_1  and  N_2
REMARK    2  A    between atoms: N_2  and  C_13
REMARK    3  A    between atoms: C_3  and  C_5
REMARK    4  A    between atoms: C_5  and  C_6
REMARK    5  A    between atoms: C_6  and  C_7
REMARK    6  A    between atoms: N_17  and  C_18
REMARK    7  A    between atoms: C_18  and  C_19
REMARK                            x       y       z     vdW  Elec       q    Type
REMARK                         _______ _______ _______ _____ _____    ______ ____
ROOT
ATOM      1  C   UNL     1       0.618  10.304  18.808  0.00  0.00    +0.000 C 
ATOM      2  C   UNL     1      -0.912  10.216  18.915  0.00  0.00    +0.000 C 
ATOM      3  C   UNL     1      -1.564  11.502  18.408  0.00  0.00    +0.000 C 
ATOM      4  C   UNL     1      -0.991  12.749  19.092  0.00  0.00    +0.000 C 
ATOM      5  N   UNL     1       0.469  12.835  18.922  0.00  0.00    +0.000 NA
ATOM      6  C   UNL     1       1.117  11.619  19.451  0.00  0.00    +0.000 C 
ENDROOT
BRANCH   1   8
ATOM      7  C   UNL     1       0.949   8.716  20.745  0.00  0.00    +0.000 C 
ATOM      8  N   UNL     1       1.265   9.087  19.367  0.00  0.00    +0.000 N 
ATOM      9  C   UNL     1       2.066   8.328  18.515  0.00  0.00    +0.000 C 
ATOM     10  O   UNL     1       2.210   8.621  17.327  0.00  0.00    +0.000 OA
BRANCH   9  11
ATOM     11  C   UNL     1       2.744   7.092  19.085  0.00  0.00    +0.000 C 
BRANCH  11  12
ATOM     12  C   UNL     1       3.080   6.087  17.983  0.00  0.00    +0.000 C 
BRANCH  12  13
ATOM     13  C   UNL     1       2.518   4.724  18.282  0.00  0.00    +0.000 A 
ATOM     14  C   UNL     1       2.803   3.627  17.469  0.00  0.00    +0.000 A 
ATOM     15  C   UNL     1       2.272   2.378  17.778  0.00  0.00    +0.000 A 
ATOM     16  C   UNL     1       1.460   2.271  18.894  0.00  0.00    +0.000 A 
ATOM     17  N   UNL     1       1.145   3.308  19.697  0.00  0.00    +0.000 NA
ATOM     18  C   UNL     1       1.680   4.510  19.376  0.00  0.00    +0.000 A 
ENDBRANCH  12  13
ENDBRANCH  11  12
ENDBRANCH   9  11
ENDBRANCH   1   8
BRANCH   5  19
ATOM     19  C   UNL     1       1.039  14.001  19.630  0.00  0.00    +0.000 C 
BRANCH  19  20
ATOM     20  C   UNL     1       1.700  15.036  18.749  0.00  0.00    +0.000 A 
ATOM     21  C   UNL     1       1.145  16.322  18.641  0.00  0.00    +0.000 A 
ATOM     22  C   UNL     1       1.782  17.305  17.884  0.00  0.00    +0.000 A 
ATOM     23  C   UNL     1       2.978  17.016  17.229  0.00  0.00    +0.000 A 
ATOM     24  C   UNL     1       3.533  15.742  17.324  0.00  0.00    +0.000 A 
ATOM     25  C   UNL     1       2.896  14.755  18.080  0.00  0.00    +0.000 A 
ENDBRANCH  19  20
ENDBRANCH   5  19
TORSDOF 6
ENDMDL
MODEL 9
REMARK VINA RESULT:      -7.3      7.487     10.446
REMARK  Name = 
REMARK  7 active torsions:
REMARK  status: ('A' for Active; 'I' for Inactive)
REMARK    1  A    between atoms: C_1  and  N_2
REMARK    2  A    between atoms: N_2  and  C_13
REMARK    3  A    between atoms: C_3  and  C_5
REMARK    4  A    between atoms: C_5  and  C_6
REMARK    5  A    between atoms: C_6  and  C_7
REMARK    6  A    between atoms: N_17  and  C_18
REMARK    7  A    between atoms: C_18  and  C_19
REMARK                            x       y       z     vdW  Elec       q    Type
REMARK                         _______ _______ _______ _____ _____    ______ ____
ROOT
ATOM      1  C   UNL     1       0.285  10.385  19.598  0.00  0.00    +0.000 C 
ATOM      2  C   UNL     1       1.088  11.693  19.640  0.00  0.00    +0.000 C 
ATOM      3  C   UNL     1       0.169  12.884  19.912  0.00  0.00    +0.000 C 
ATOM      4  C   UNL     1      -1.007  12.940  18.931  0.00  0.00    +0.000 C 
ATOM      5  N   UNL     1      -1.792  11.694  18.956  0.00  0.00    +0.000 NA
ATOM      6  C   UNL     1      -0.926  10.539  18.648  0.00  0.00    +0.000 C 
ENDROOT
BRANCH   1   8
ATOM      7  C   UNL     1       1.808   9.221  17.950  0.00  0.00    +0.000 C 
ATOM      8  N   UNL     1       1.160   9.230  19.261  0.00  0.00    +0.000 N 
ATOM      9  C   UNL     1       1.376   8.270  20.248  0.00  0.00    +0.000 C 
ATOM     10  O   UNL     1       0.899   8.381  21.379  0.00  0.00    +0.000 OA
BRANCH   9  11
ATOM     11  C   UNL     1       2.256   7.078  19.904  0.00  0.00    +0.000 C 
BRANCH  11  12
ATOM     12  C   UNL     1       1.765   5.808  20.600  0.00  0.00    +0.000 C 
BRANCH  12  13
ATOM     13  C   UNL     1       1.866   4.606  19.701  0.00  0.00    +0.000 A 
ATOM     14  C   UNL     1       1.347   3.368  20.083  0.00  0.00    +0.000 A 
ATOM     15  C   UNL     1       1.451   2.278  19.224  0.00  0.00    +0.000 A 
ATOM     16  C   UNL     1       2.086   2.463  18.007  0.00  0.00    +0.000 A 
ATOM     17  N   UNL     1       2.617   3.636  17.606  0.00  0.00    +0.000 NA
ATOM     18  C   UNL     1       2.496   4.681  18.459  0.00  0.00    +0.000 A 
ENDBRANCH  12  13
ENDBRANCH  11  12
ENDBRANCH   9  11
ENDBRANCH   1   8
BRANCH   5  19
ATOM     19  C   UNL     1      -2.892  11.715  17.970  0.00  0.00    +0.000 C 
BRANCH  19  20
ATOM     20  C   UNL     1      -4.286  11.659  18.550  0.00  0.00    +0.000 A 
ATOM     21  C   UNL     1      -4.595  12.391  19.708  0.00  0.00    +0.000 A 
ATOM     22  C   UNL     1      -5.893  12.399  20.216  0.00  0.00    +0.000 A 
ATOM     23  C   UNL     1      -6.898  11.678  19.572  0.00  0.00    +0.000 A 
ATOM     24  C   UNL     1      -6.602  10.942  18.426  0.00  0.00    +0.000 A 
ATOM     25  C   UNL     1      -5.301  10.931  17.919  0.00  0.00    +0.000 A 
ENDBRANCH  19  20
ENDBRANCH   5  19
TORSDOF 6
ENDMDL
