MODEL 1
REMARK VINA RESULT:      -7.7      0.000      0.000
REMARK  Name = 
REMARK  3 active torsions:
REMARK  status: ('A' for Active; 'I' for Inactive)
REMARK    1  A    between atoms: C_2  and  C_3
REMARK    2  A    between atoms: C_6  and  C_7
REMARK    3  A    between atoms: C_12  and  N_13
REMARK                            x       y       z     vdW  Elec       q    Type
REMARK                         _______ _______ _______ _____ _____    ______ ____
ROOT
ATOM      1  C   UNL     1       1.155   8.941  19.451  0.00  0.00    +0.000 A 
ATOM      2  C   UNL     1       0.432   9.728  18.532  0.00  0.00    +0.000 A 
ATOM      3  C   UNL     1      -0.496  10.688  18.953  0.00  0.00    +0.000 A 
ATOM      4  C   UNL     1      -0.729  10.879  20.310  0.00  0.00    +0.000 A 
ATOM      5  O   UNL     1      -1.649  11.829  20.671  0.00  0.00    +0.000 OA
ATOM      6  C   UNL     1      -1.811  12.135  22.020  0.00  0.00    +0.000 A 
ATOM      7  C   UNL     1      -1.189  11.443  22.990  0.00  0.00    +0.000 A 
ATOM      8  C   UNL     1      -0.273  10.346  22.659  0.00  0.00    +0.000 A 
ATOM      9  O   UNL     1       0.268   9.684  23.535  0.00  0.00    +0.000 OA
ATOM     10  C   UNL     1      -0.029  10.116  21.233  0.00  0.00    +0.000 A 
ATOM     11  C   UNL     1       0.903   9.160  20.817  0.00  0.00    +0.000 A 
ENDROOT
BRANCH   1  15
ATOM     12  C   UNL     1       4.104   6.048  18.194  0.00  0.00    +0.000 A 
ATOM     13  C   UNL     1       3.850   7.177  17.413  0.00  0.00    +0.000 A 
ATOM     14  C   UNL     1       2.888   8.108  17.820  0.00  0.00    +0.000 A 
ATOM     15  C   UNL     1       2.149   7.936  19.005  0.00  0.00    +0.000 A 
ATOM     16  C   UNL     1       2.407   6.775  19.758  0.00  0.00    +0.000 A 
ATOM     17  C   UNL     1       3.375   5.845  19.364  0.00  0.00    +0.000 A 
BRANCH  12  19
ATOM     18  N   UNL     1       5.939   4.362  17.479  0.00  0.00    +0.000 NA
ATOM     19  C   UNL     1       5.115   5.115  17.801  0.00  0.00    +0.000 C 
ENDBRANCH  12  19
ENDBRANCH   1  15
BRANCH   6  20
ATOM     20  N   UNL     1      -2.662  13.200  22.293  0.00  0.00    +0.000 N 
ATOM     21  C   UNL     1      -2.365  14.245  23.289  0.00  0.00    +0.000 C 
ATOM     22  C   UNL     1      -3.424  14.253  24.398  0.00  0.00    +0.000 C 
ATOM     23  O   UNL     1      -4.750  14.393  23.859  0.00  0.00    +0.000 OA
ATOM     24  C   UNL     1      -5.035  13.316  22.952  0.00  0.00    +0.000 C 
ATOM     25  C   UNL     1      -4.044  13.291  21.778  0.00  0.00    +0.000 C 
ENDBRANCH   6  20
TORSDOF 3
ENDMDL
MODEL 2
REMARK VINA RESULT:      -7.6      2.867      9.348
REMARK  Name = 
REMARK  3 active torsions:
REMARK  status: ('A' for Active; 'I' for Inactive)
REMARK    1  A    between atoms: C_2  and  C_3
REMARK    2  A    between atoms: C_6  and  C_7
REMARK    3  A    between atoms: C_12  and  N_13
REMARK                            x       y       z     vdW  Elec       q    Type
REMARK                         _______ _______ _______ _____ _____    ______ ____
ROOT
ATOM      1  C   UNL     1       0.037  10.112  21.166  0.00  0.00    +0.000 A 
ATOM      2  C   UNL     1       0.245   8.961  21.952  0.00  0.00    +0.000 A 
ATOM      3  C   UNL     1       1.005   7.880  21.489  0.00  0.00    +0.000 A 
ATOM      4  C   UNL     1       1.572   7.923  20.221  0.00  0.00    +0.000 A 
ATOM      5  O   UNL     1       2.305   6.839  19.813  0.00  0.00    +0.000 OA
ATOM      6  C   UNL     1       2.991   6.903  18.603  0.00  0.00    +0.000 A 
ATOM      7  C   UNL     1       2.858   7.941  17.760  0.00  0.00    +0.000 A 
ATOM      8  C   UNL     1       2.001   9.080  18.103  0.00  0.00    +0.000 A 
ATOM      9  O   UNL     1       1.842  10.012  17.326  0.00  0.00    +0.000 OA
ATOM     10  C   UNL     1       1.379   9.045  19.429  0.00  0.00    +0.000 A 
ATOM     11  C   UNL     1       0.625  10.130  19.889  0.00  0.00    +0.000 A 
ENDROOT
BRANCH   1  15
ATOM     12  C   UNL     1      -2.336  13.431  22.582  0.00  0.00    +0.000 A 
ATOM     13  C   UNL     1      -1.709  13.496  21.337  0.00  0.00    +0.000 A 
ATOM     14  C   UNL     1      -0.935  12.422  20.885  0.00  0.00    +0.000 A 
ATOM     15  C   UNL     1      -0.756  11.263  21.662  0.00  0.00    +0.000 A 
ATOM     16  C   UNL     1      -1.377  11.235  22.924  0.00  0.00    +0.000 A 
ATOM     17  C   UNL     1      -2.163  12.300  23.379  0.00  0.00    +0.000 A 
BRANCH  12  19
ATOM     18  N   UNL     1      -3.827  15.390  23.394  0.00  0.00    +0.000 NA
ATOM     19  C   UNL     1      -3.162  14.510  23.030  0.00  0.00    +0.000 C 
ENDBRANCH  12  19
ENDBRANCH   1  15
BRANCH   6  20
ATOM     20  N   UNL     1       3.817   5.819  18.326  0.00  0.00    +0.000 N 
ATOM     21  C   UNL     1       3.391   4.415  18.472  0.00  0.00    +0.000 C 
ATOM     22  C   UNL     1       4.258   3.692  19.511  0.00  0.00    +0.000 C 
ATOM     23  O   UNL     1       5.657   3.794  19.193  0.00  0.00    +0.000 OA
ATOM     24  C   UNL     1       6.054   5.173  19.135  0.00  0.00    +0.000 C 
ATOM     25  C   UNL     1       5.265   5.943  18.065  0.00  0.00    +0.000 C 
ENDBRANCH   6  20
TORSDOF 3
ENDMDL
MODEL 3
REMARK VINA RESULT:      -7.6      3.165      9.539
REMARK  Name = 
REMARK  3 active torsions:
REMARK  status: ('A' for Active; 'I' for Inactive)
REMARK    1  A    between atoms: C_2  and  C_3
REMARK    2  A    between atoms: C_6  and  C_7
REMARK    3  A    between atoms: C_12  and  N_13
REMARK                            x       y       z     vdW  Elec       q    Type
REMARK                         _______ _______ _______ _____ _____    ______ ____
ROOT
ATOM      1  C   UNL     1       0.754   9.649  20.060  0.00  0.00    +0.000 A 
ATOM      2  C   UNL     1       1.207  10.194  18.842  0.00  0.00    +0.000 A 
ATOM      3  C   UNL     1       2.058   9.483  17.986  0.00  0.00    +0.000 A 
ATOM      4  C   UNL     1       2.482   8.205  18.335  0.00  0.00    +0.000 A 
ATOM      5  O   UNL     1       3.316   7.551  17.466  0.00  0.00    +0.000 OA
ATOM      6  C   UNL     1       3.654   6.225  17.722  0.00  0.00    +0.000 A 
ATOM      7  C   UNL     1       3.296   5.603  18.857  0.00  0.00    +0.000 A 
ATOM      8  C   UNL     1       2.491   6.294  19.870  0.00  0.00    +0.000 A 
ATOM      9  O   UNL     1       2.192   5.750  20.924  0.00  0.00    +0.000 OA
ATOM     10  C   UNL     1       2.049   7.649  19.529  0.00  0.00    +0.000 A 
ATOM     11  C   UNL     1       1.196   8.354  20.384  0.00  0.00    +0.000 A 
ENDROOT
BRANCH   1  15
ATOM     12  C   UNL     1      -1.958  11.776  22.661  0.00  0.00    +0.000 A 
ATOM     13  C   UNL     1      -1.838  12.142  21.319  0.00  0.00    +0.000 A 
ATOM     14  C   UNL     1      -0.952  11.456  20.481  0.00  0.00    +0.000 A 
ATOM     15  C   UNL     1      -0.158  10.397  20.958  0.00  0.00    +0.000 A 
ATOM     16  C   UNL     1      -0.279  10.066  22.320  0.00  0.00    +0.000 A 
ATOM     17  C   UNL     1      -1.172  10.740  23.162  0.00  0.00    +0.000 A 
BRANCH  12  19
ATOM     18  N   UNL     1      -3.657  12.994  24.194  0.00  0.00    +0.000 NA
ATOM     19  C   UNL     1      -2.893  12.448  23.510  0.00  0.00    +0.000 C 
ENDBRANCH  12  19
ENDBRANCH   1  15
BRANCH   6  20
ATOM     20  N   UNL     1       4.391   5.593  16.726  0.00  0.00    +0.000 N 
ATOM     21  C   UNL     1       4.467   4.129  16.574  0.00  0.00    +0.000 C 
ATOM     22  C   UNL     1       5.912   3.642  16.735  0.00  0.00    +0.000 C 
ATOM     23  O   UNL     1       6.800   4.318  15.827  0.00  0.00    +0.000 OA
ATOM     24  C   UNL     1       6.759   5.735  16.055  0.00  0.00    +0.000 C 
ATOM     25  C   UNL     1       5.345   6.299  15.846  0.00  0.00    +0.000 C 
ENDBRANCH   6  20
TORSDOF 3
ENDMDL
MODEL 4
REMARK VINA RESULT:      -7.5      2.918      9.382
REMARK  Name = 
REMARK  3 active torsions:
REMARK  status: ('A' for Active; 'I' for Inactive)
REMARK    1  A    between atoms: C_2  and  C_3
REMARK    2  A    between atoms: C_6  and  C_7
REMARK    3  A    between atoms: C_12  and  N_13
REMARK                            x       y       z     vdW  Elec       q    Type
REMARK                         _______ _______ _______ _____ _____    ______ ____
ROOT
ATOM      1  C   UNL     1       0.227  10.217  21.356  0.00  0.00    +0.000 A 
ATOM      2  C   UNL     1       0.412   9.061  22.141  0.00  0.00    +0.000 A 
ATOM      3  C   UNL     1       1.092   7.939  21.652  0.00  0.00    +0.000 A 
ATOM      4  C   UNL     1       1.600   7.945  20.358  0.00  0.00    +0.000 A 
ATOM      5  O   UNL     1       2.255   6.821  19.925  0.00  0.00    +0.000 OA
ATOM      6  C   UNL     1       2.886   6.843  18.683  0.00  0.00    +0.000 A 
ATOM      7  C   UNL     1       2.768   7.881  17.839  0.00  0.00    +0.000 A 
ATOM      8  C   UNL     1       1.989   9.066  18.213  0.00  0.00    +0.000 A 
ATOM      9  O   UNL     1       1.842  10.001  17.436  0.00  0.00    +0.000 OA
ATOM     10  C   UNL     1       1.429   9.071  19.567  0.00  0.00    +0.000 A 
ATOM     11  C   UNL     1       0.755  10.197  20.053  0.00  0.00    +0.000 A 
ENDROOT
BRANCH   1  15
ATOM     12  C   UNL     1      -1.777  13.701  22.934  0.00  0.00    +0.000 A 
ATOM     13  C   UNL     1      -2.136  12.425  23.372  0.00  0.00    +0.000 A 
ATOM     14  C   UNL     1      -1.489  11.298  22.853  0.00  0.00    +0.000 A 
ATOM     15  C   UNL     1      -0.480  11.410  21.879  0.00  0.00    +0.000 A 
ATOM     16  C   UNL     1      -0.157  12.707  21.436  0.00  0.00    +0.000 A 
ATOM     17  C   UNL     1      -0.791  13.840  21.959  0.00  0.00    +0.000 A 
BRANCH  12  19
ATOM     18  N   UNL     1      -2.924  15.796  23.942  0.00  0.00    +0.000 NA
ATOM     19  C   UNL     1      -2.408  14.857  23.493  0.00  0.00    +0.000 C 
ENDBRANCH  12  19
ENDBRANCH   1  15
BRANCH   6  20
ATOM     20  N   UNL     1       3.640   5.715  18.378  0.00  0.00    +0.000 N 
ATOM     21  C   UNL     1       3.157   4.336  18.574  0.00  0.00    +0.000 C 
ATOM     22  C   UNL     1       4.049   3.587  19.572  0.00  0.00    +0.000 C 
ATOM     23  O   UNL     1       5.430   3.615  19.169  0.00  0.00    +0.000 OA
ATOM     24  C   UNL     1       5.889   4.972  19.063  0.00  0.00    +0.000 C 
ATOM     25  C   UNL     1       5.074   5.763  18.027  0.00  0.00    +0.000 C 
ENDBRANCH   6  20
TORSDOF 3
ENDMDL
MODEL 5
REMARK VINA RESULT:      -7.5      2.957      9.613
REMARK  Name = 
REMARK  3 active torsions:
REMARK  status: ('A' for Active; 'I' for Inactive)
REMARK    1  A    between atoms: C_2  and  C_3
REMARK    2  A    between atoms: C_6  and  C_7
REMARK    3  A    between atoms: C_12  and  N_13
REMARK                            x       y       z     vdW  Elec       q    Type
REMARK                         _______ _______ _______ _____ _____    ______ ____
ROOT
ATOM      1  C   UNL     1       0.338   9.374  20.859  0.00  0.00    +0.000 A 
ATOM      2  C   UNL     1       0.590   8.242  21.660  0.00  0.00    +0.000 A 
ATOM      3  C   UNL     1       1.443   7.215  21.237  0.00  0.00    +0.000 A 
ATOM      4  C   UNL     1       2.062   7.294  19.994  0.00  0.00    +0.000 A 
ATOM      5  O   UNL     1       2.885   6.263  19.625  0.00  0.00    +0.000 OA
ATOM      6  C   UNL     1       3.619   6.372  18.446  0.00  0.00    +0.000 A 
ATOM      7  C   UNL     1       3.452   7.396  17.593  0.00  0.00    +0.000 A 
ATOM      8  C   UNL     1       2.505   8.474  17.892  0.00  0.00    +0.000 A 
ATOM      9  O   UNL     1       2.316   9.391  17.103  0.00  0.00    +0.000 OA
ATOM     10  C   UNL     1       1.828   8.399  19.189  0.00  0.00    +0.000 A 
ATOM     11  C   UNL     1       0.981   9.430  19.610  0.00  0.00    +0.000 A 
ENDROOT
BRANCH   1  15
ATOM     12  C   UNL     1      -2.197  12.608  22.189  0.00  0.00    +0.000 A 
ATOM     13  C   UNL     1      -1.691  11.687  23.108  0.00  0.00    +0.000 A 
ATOM     14  C   UNL     1      -0.876  10.636  22.672  0.00  0.00    +0.000 A 
ATOM     15  C   UNL     1      -0.553  10.468  21.313  0.00  0.00    +0.000 A 
ATOM     16  C   UNL     1      -1.098  11.395  20.405  0.00  0.00    +0.000 A 
ATOM     17  C   UNL     1      -1.904  12.456  20.834  0.00  0.00    +0.000 A 
BRANCH  12  19
ATOM     18  N   UNL     1      -3.646  14.600  22.993  0.00  0.00    +0.000 NA
ATOM     19  C   UNL     1      -2.996  13.706  22.636  0.00  0.00    +0.000 C 
ENDBRANCH  12  19
ENDBRANCH   1  15
BRANCH   6  20
ATOM     20  N   UNL     1       4.529   5.346  18.213  0.00  0.00    +0.000 N 
ATOM     21  C   UNL     1       5.859   5.280  18.845  0.00  0.00    +0.000 C 
ATOM     22  C   UNL     1       6.965   5.321  17.783  0.00  0.00    +0.000 C 
ATOM     23  O   UNL     1       6.791   4.286  16.800  0.00  0.00    +0.000 OA
ATOM     24  C   UNL     1       5.518   4.426  16.150  0.00  0.00    +0.000 C 
ATOM     25  C   UNL     1       4.358   4.330  17.155  0.00  0.00    +0.000 C 
ENDBRANCH   6  20
TORSDOF 3
ENDMDL
MODEL 6
REMARK VINA RESULT:      -7.5      3.406      9.744
REMARK  Name = 
REMARK  3 active torsions:
REMARK  status: ('A' for Active; 'I' for Inactive)
REMARK    1  A    between atoms: C_2  and  C_3
REMARK    2  A    between atoms: C_6  and  C_7
REMARK    3  A    between atoms: C_12  and  N_13
REMARK                            x       y       z     vdW  Elec       q    Type
REMARK                         _______ _______ _______ _____ _____    ______ ____
ROOT
ATOM      1  C   UNL     1       1.229   8.805  19.976  0.00  0.00    +0.000 A 
ATOM      2  C   UNL     1       1.771   9.248  18.753  0.00  0.00    +0.000 A 
ATOM      3  C   UNL     1       2.652   8.455  18.007  0.00  0.00    +0.000 A 
ATOM      4  C   UNL     1       3.018   7.198  18.473  0.00  0.00    +0.000 A 
ATOM      5  O   UNL     1       3.885   6.461  17.708  0.00  0.00    +0.000 OA
ATOM      6  C   UNL     1       4.169   5.150  18.081  0.00  0.00    +0.000 A 
ATOM      7  C   UNL     1       3.725   4.623  19.233  0.00  0.00    +0.000 A 
ATOM      8  C   UNL     1       2.880   5.406  20.140  0.00  0.00    +0.000 A 
ATOM      9  O   UNL     1       2.502   4.949  21.211  0.00  0.00    +0.000 OA
ATOM     10  C   UNL     1       2.498   6.742  19.675  0.00  0.00    +0.000 A 
ATOM     11  C   UNL     1       1.613   7.528  20.421  0.00  0.00    +0.000 A 
ENDROOT
BRANCH   1  15
ATOM     12  C   UNL     1      -1.462  11.284  22.269  0.00  0.00    +0.000 A 
ATOM     13  C   UNL     1      -0.809  10.209  22.875  0.00  0.00    +0.000 A 
ATOM     14  C   UNL     1       0.056   9.403  22.126  0.00  0.00    +0.000 A 
ATOM     15  C   UNL     1       0.286   9.639  20.758  0.00  0.00    +0.000 A 
ATOM     16  C   UNL     1      -0.406  10.713  20.168  0.00  0.00    +0.000 A 
ATOM     17  C   UNL     1      -1.265  11.531  20.912  0.00  0.00    +0.000 A 
BRANCH  12  19
ATOM     18  N   UNL     1      -3.003  12.828  23.670  0.00  0.00    +0.000 NA
ATOM     19  C   UNL     1      -2.316  12.134  23.041  0.00  0.00    +0.000 C 
ENDBRANCH  12  19
ENDBRANCH   1  15
BRANCH   6  20
ATOM     20  N   UNL     1       4.948   4.429  17.181  0.00  0.00    +0.000 N 
ATOM     21  C   UNL     1       6.389   4.183  17.369  0.00  0.00    +0.000 C 
ATOM     22  C   UNL     1       7.198   4.804  16.223  0.00  0.00    +0.000 C 
ATOM     23  O   UNL     1       6.741   4.337  14.942  0.00  0.00    +0.000 OA
ATOM     24  C   UNL     1       5.353   4.662  14.761  0.00  0.00    +0.000 C 
ATOM     25  C   UNL     1       4.476   4.015  15.845  0.00  0.00    +0.000 C 
ENDBRANCH   6  20
TORSDOF 3
ENDMDL
MODEL 7
REMARK VINA RESULT:      -7.4      2.917      9.433
REMARK  Name = 
REMARK  3 active torsions:
REMARK  status: ('A' for Active; 'I' for Inactive)
REMARK    1  A    between atoms: C_2  and  C_3
REMARK    2  A    between atoms: C_6  and  C_7
REMARK    3  A    between atoms: C_12  and  N_13
REMARK                            x       y       z     vdW  Elec       q    Type
REMARK                         _______ _______ _______ _____ _____    ______ ____
ROOT
ATOM      1  C   UNL     1       0.128  10.035  21.068  0.00  0.00    +0.000 A 
ATOM      2  C   UNL     1       0.300   8.912  21.902  0.00  0.00    +0.000 A 
ATOM      3  C   UNL     1       1.056   7.804  21.500  0.00  0.00    +0.000 A 
ATOM      4  C   UNL     1       1.655   7.791  20.246  0.00  0.00    +0.000 A 
ATOM      5  O   UNL     1       2.382   6.682  19.898  0.00  0.00    +0.000 OA
ATOM      6  C   UNL     1       3.099   6.691  18.704  0.00  0.00    +0.000 A 
ATOM      7  C   UNL     1       3.002   7.697  17.820  0.00  0.00    +0.000 A 
ATOM      8  C   UNL     1       2.153   8.860  18.097  0.00  0.00    +0.000 A 
ATOM      9  O   UNL     1       2.026   9.763  17.281  0.00  0.00    +0.000 OA
ATOM     10  C   UNL     1       1.498   8.884  19.407  0.00  0.00    +0.000 A 
ATOM     11  C   UNL     1       0.748   9.995  19.806  0.00  0.00    +0.000 A 
ENDROOT
BRANCH   1  15
ATOM     12  C   UNL     1      -2.233  13.434  22.299  0.00  0.00    +0.000 A 
ATOM     13  C   UNL     1      -1.627  13.418  21.042  0.00  0.00    +0.000 A 
ATOM     14  C   UNL     1      -0.856  12.318  20.649  0.00  0.00    +0.000 A 
ATOM     15  C   UNL     1      -0.661  11.214  21.499  0.00  0.00    +0.000 A 
ATOM     16  C   UNL     1      -1.262  11.268  22.770  0.00  0.00    +0.000 A 
ATOM     17  C   UNL     1      -2.044  12.360  23.166  0.00  0.00    +0.000 A 
BRANCH  12  19
ATOM     18  N   UNL     1      -3.719  15.440  22.998  0.00  0.00    +0.000 NA
ATOM     19  C   UNL     1      -3.056  14.539  22.687  0.00  0.00    +0.000 C 
ENDBRANCH  12  19
ENDBRANCH   1  15
BRANCH   6  20
ATOM     20  N   UNL     1       3.916   5.586  18.491  0.00  0.00    +0.000 N 
ATOM     21  C   UNL     1       5.048   5.229  19.367  0.00  0.00    +0.000 C 
ATOM     22  C   UNL     1       6.367   5.259  18.585  0.00  0.00    +0.000 C 
ATOM     23  O   UNL     1       6.309   4.416  17.421  0.00  0.00    +0.000 OA
ATOM     24  C   UNL     1       5.245   4.839  16.553  0.00  0.00    +0.000 C 
ATOM     25  C   UNL     1       3.881   4.772  17.259  0.00  0.00    +0.000 C 
ENDBRANCH   6  20
TORSDOF 3
ENDMDL
MODEL 8
REMARK VINA RESULT:      -7.4      0.838      1.654
REMARK  Name = 
REMARK  3 active torsions:
REMARK  status: ('A' for Active; 'I' for Inactive)
REMARK    1  A    between atoms: C_2  and  C_3
REMARK    2  A    between atoms: C_6  and  C_7
REMARK    3  A    between atoms: C_12  and  N_13
REMARK                            x       y       z     vdW  Elec       q    Type
REMARK                         _______ _______ _______ _____ _____    ______ ____
ROOT
ATOM      1  C   UNL     1       1.126   9.028  19.432  0.00  0.00    +0.000 A 
ATOM      2  C   UNL     1       0.399   9.791  18.497  0.00  0.00    +0.000 A 
ATOM      3  C   UNL     1      -0.546  10.745  18.899  0.00  0.00    +0.000 A 
ATOM      4  C   UNL     1      -0.789  10.953  20.251  0.00  0.00    +0.000 A 
ATOM      5  O   UNL     1      -1.724  11.895  20.593  0.00  0.00    +0.000 OA
ATOM      6  C   UNL     1      -1.898  12.219  21.937  0.00  0.00    +0.000 A 
ATOM      7  C   UNL     1      -1.273  11.549  22.919  0.00  0.00    +0.000 A 
ATOM      8  C   UNL     1      -0.341  10.460  22.611  0.00  0.00    +0.000 A 
ATOM      9  O   UNL     1       0.203   9.818  23.499  0.00  0.00    +0.000 OA
ATOM     10  C   UNL     1      -0.085  10.213  21.189  0.00  0.00    +0.000 A 
ATOM     11  C   UNL     1       0.863   9.263  20.793  0.00  0.00    +0.000 A 
ENDROOT
BRANCH   1  15
ATOM     12  C   UNL     1       4.013   6.083  18.150  0.00  0.00    +0.000 A 
ATOM     13  C   UNL     1       3.309   5.905  19.342  0.00  0.00    +0.000 A 
ATOM     14  C   UNL     1       2.380   6.866  19.758  0.00  0.00    +0.000 A 
ATOM     15  C   UNL     1       2.136   8.030  19.007  0.00  0.00    +0.000 A 
ATOM     16  C   UNL     1       2.878   8.196  17.823  0.00  0.00    +0.000 A 
ATOM     17  C   UNL     1       3.801   7.235  17.394  0.00  0.00    +0.000 A 
BRANCH  12  19
ATOM     18  N   UNL     1       5.684   4.277  17.336  0.00  0.00    +0.000 NA
ATOM     19  C   UNL     1       4.933   5.084  17.701  0.00  0.00    +0.000 C 
ENDBRANCH  12  19
ENDBRANCH   1  15
BRANCH   6  20
ATOM     20  N   UNL     1      -2.765  13.276  22.188  0.00  0.00    +0.000 N 
ATOM     21  C   UNL     1      -4.233  13.164  22.099  0.00  0.00    +0.000 C 
ATOM     22  C   UNL     1      -4.784  14.113  21.028  0.00  0.00    +0.000 C 
ATOM     23  O   UNL     1      -4.367  15.470  21.261  0.00  0.00    +0.000 OA
ATOM     24  C   UNL     1      -2.934  15.556  21.265  0.00  0.00    +0.000 C 
ATOM     25  C   UNL     1      -2.319  14.673  22.363  0.00  0.00    +0.000 C 
ENDBRANCH   6  20
TORSDOF 3
ENDMDL
MODEL 9
REMARK VINA RESULT:      -7.4      1.132      2.163
REMARK  Name = 
REMARK  3 active torsions:
REMARK  status: ('A' for Active; 'I' for Inactive)
REMARK    1  A    between atoms: C_2  and  C_3
REMARK    2  A    between atoms: C_6  and  C_7
REMARK    3  A    between atoms: C_12  and  N_13
REMARK                            x       y       z     vdW  Elec       q    Type
REMARK                         _______ _______ _______ _____ _____    ______ ____
ROOT
ATOM      1  C   UNL     1       1.129   8.801  20.599  0.00  0.00    +0.000 A 
ATOM      2  C   UNL     1       1.101   8.625  21.997  0.00  0.00    +0.000 A 
ATOM      3  C   UNL     1       0.366   9.475  22.833  0.00  0.00    +0.000 A 
ATOM      4  C   UNL     1      -0.356  10.530  22.287  0.00  0.00    +0.000 A 
ATOM      5  O   UNL     1      -1.057  11.335  23.147  0.00  0.00    +0.000 OA
ATOM      6  C   UNL     1      -1.892  12.319  22.622  0.00  0.00    +0.000 A 
ATOM      7  C   UNL     1      -1.937  12.592  21.308  0.00  0.00    +0.000 A 
ATOM      8  C   UNL     1      -1.126  11.829  20.355  0.00  0.00    +0.000 A 
ATOM      9  O   UNL     1      -1.130  12.095  19.161  0.00  0.00    +0.000 OA
ATOM     10  C   UNL     1      -0.343  10.723  20.914  0.00  0.00    +0.000 A 
ATOM     11  C   UNL     1       0.386   9.874  20.075  0.00  0.00    +0.000 A 
ENDROOT
BRANCH   1  15
ATOM     12  C   UNL     1       3.428   6.176  18.055  0.00  0.00    +0.000 A 
ATOM     13  C   UNL     1       3.114   7.468  17.631  0.00  0.00    +0.000 A 
ATOM     14  C   UNL     1       2.362   8.314  18.455  0.00  0.00    +0.000 A 
ATOM     15  C   UNL     1       1.896   7.893  19.714  0.00  0.00    +0.000 A 
ATOM     16  C   UNL     1       2.204   6.576  20.105  0.00  0.00    +0.000 A 
ATOM     17  C   UNL     1       2.965   5.728  19.292  0.00  0.00    +0.000 A 
BRANCH  12  19
ATOM     18  N   UNL     1       4.880   4.627  16.568  0.00  0.00    +0.000 NA
ATOM     19  C   UNL     1       4.231   5.324  17.233  0.00  0.00    +0.000 C 
ENDBRANCH  12  19
ENDBRANCH   1  15
BRANCH   6  20
ATOM     20  N   UNL     1      -2.669  13.001  23.553  0.00  0.00    +0.000 N 
ATOM     21  C   UNL     1      -3.869  12.427  24.187  0.00  0.00    +0.000 C 
ATOM     22  C   UNL     1      -5.112  13.258  23.845  0.00  0.00    +0.000 C 
ATOM     23  O   UNL     1      -4.934  14.641  24.196  0.00  0.00    +0.000 OA
ATOM     24  C   UNL     1      -3.803  15.189  23.502  0.00  0.00    +0.000 C 
ATOM     25  C   UNL     1      -2.508  14.439  23.852  0.00  0.00    +0.000 C 
ENDBRANCH   6  20
TORSDOF 3
ENDMDL
