MODEL 1
REMARK VINA RESULT:      -7.6      0.000      0.000
REMARK  Name = 
REMARK  8 active torsions:
REMARK  status: ('A' for Active; 'I' for Inactive)
REMARK    1  A    between atoms: C_1  and  C_2
REMARK    2  A    between atoms: N_11  and  C_12
REMARK    3  A    between atoms: C_12  and  C_13
REMARK    4  A    between atoms: C_17  and  C_18
REMARK    5  A    between atoms: C_18  and  O_20
REMARK    6  A    between atoms: O_20  and  C_21
REMARK    7  A    between atoms: C_21  and  C_22
REMARK    8  A    between atoms: C_21  and  C_23
REMARK                            x       y       z     vdW  Elec       q    Type
REMARK                         _______ _______ _______ _____ _____    ______ ____
ROOT
ATOM      1  C   UNL     1       0.569   3.428  19.788  0.00  0.00    +0.000 C 
ATOM      2  C   UNL     1       1.223   4.329  20.844  0.00  0.00    +0.000 C 
ATOM      3  C   UNL     1       2.615   3.802  21.257  0.00  0.00    +0.000 C 
ATOM      4  C   UNL     1       3.610   3.781  20.090  0.00  0.00    +0.000 C 
ATOM      5  C   UNL     1       3.510   5.023  19.255  0.00  0.00    +0.000 A 
ATOM      6  C   UNL     1       2.470   5.926  19.377  0.00  0.00    +0.000 A 
ATOM      7  S   UNL     1       2.606   7.232  18.289  0.00  0.00    +0.000 S 
ATOM      8  C   UNL     1       4.023   6.577  17.593  0.00  0.00    +0.000 A 
ATOM      9  N   UNL     1       4.678   7.160  16.561  0.00  0.00    +0.000 NA
ATOM     10  N   UNL     1       5.710   6.607  16.096  0.00  0.00    +0.000 NA
ATOM     11  N   UNL     1       6.161   5.405  16.625  0.00  0.00    +0.000 N 
ATOM     12  C   UNL     1       5.549   4.738  17.680  0.00  0.00    +0.000 A 
ATOM     13  O   UNL     1       5.943   3.667  18.132  0.00  0.00    +0.000 OA
ATOM     14  C   UNL     1       4.387   5.404  18.198  0.00  0.00    +0.000 A 
ATOM     15  C   UNL     1       1.334   5.792  20.347  0.00  0.00    +0.000 C 
ENDROOT
BRANCH  11  16
ATOM     16  C   UNL     1       7.350   4.831  16.029  0.00  0.00    +0.000 C 
BRANCH  16  17
ATOM     17  C   UNL     1       7.248   4.722  14.522  0.00  0.00    +0.000 A 
ATOM     18  C   UNL     1       8.079   5.505  13.710  0.00  0.00    +0.000 A 
ATOM     19  C   UNL     1       8.001   5.414  12.321  0.00  0.00    +0.000 A 
ATOM     20  C   UNL     1       7.099   4.529  11.731  0.00  0.00    +0.000 A 
ATOM     21  C   UNL     1       6.265   3.725  12.521  0.00  0.00    +0.000 A 
ATOM     22  C   UNL     1       6.344   3.824  13.919  0.00  0.00    +0.000 A 
BRANCH  21  23
ATOM     23  C   UNL     1       5.328   2.804  11.818  0.00  0.00    +0.000 C 
ATOM     24  O   UNL     1       5.659   1.689  11.442  0.00  0.00    +0.000 OA
BRANCH  23  25
ATOM     25  O   UNL     1       4.096   3.356  11.662  0.00  0.00    +0.000 OA
BRANCH  25  26
ATOM     26  C   UNL     1       3.455   3.084  10.399  0.00  0.00    +0.000 C 
ATOM     27  C   UNL     1       2.217   2.220  10.619  0.00  0.00    +0.000 C 
ATOM     28  C   UNL     1       3.063   4.417   9.770  0.00  0.00    +0.000 C 
ENDBRANCH  25  26
ENDBRANCH  23  25
ENDBRANCH  21  23
ENDBRANCH  16  17
ENDBRANCH  11  16
TORSDOF 5
ENDMDL
MODEL 2
REMARK VINA RESULT:      -7.5      5.991     10.044
REMARK  Name = 
REMARK  8 active torsions:
REMARK  status: ('A' for Active; 'I' for Inactive)
REMARK    1  A    between atoms: C_1  and  C_2
REMARK    2  A    between atoms: N_11  and  C_12
REMARK    3  A    between atoms: C_12  and  C_13
REMARK    4  A    between atoms: C_17  and  C_18
REMARK    5  A    between atoms: C_18  and  O_20
REMARK    6  A    between atoms: O_20  and  C_21
REMARK    7  A    between atoms: C_21  and  C_22
REMARK    8  A    between atoms: C_21  and  C_23
REMARK                            x       y       z     vdW  Elec       q    Type
REMARK                         _______ _______ _______ _____ _____    ______ ____
ROOT
ATOM      1  C   UNL     1       2.499   2.338  17.359  0.00  0.00    +0.000 C 
ATOM      2  C   UNL     1       3.829   2.650  18.058  0.00  0.00    +0.000 C 
ATOM      3  C   UNL     1       4.610   3.765  17.325  0.00  0.00    +0.000 C 
ATOM      4  C   UNL     1       3.854   5.100  17.306  0.00  0.00    +0.000 C 
ATOM      5  C   UNL     1       3.218   5.395  18.632  0.00  0.00    +0.000 A 
ATOM      6  C   UNL     1       3.108   4.452  19.637  0.00  0.00    +0.000 A 
ATOM      7  S   UNL     1       2.324   5.061  21.023  0.00  0.00    +0.000 S 
ATOM      8  C   UNL     1       2.062   6.576  20.277  0.00  0.00    +0.000 A 
ATOM      9  N   UNL     1       1.404   7.594  20.882  0.00  0.00    +0.000 NA
ATOM     10  N   UNL     1       1.241   8.677  20.259  0.00  0.00    +0.000 NA
ATOM     11  N   UNL     1       1.717   8.820  18.963  0.00  0.00    +0.000 N 
ATOM     12  C   UNL     1       2.399   7.827  18.268  0.00  0.00    +0.000 A 
ATOM     13  O   UNL     1       2.802   7.954  17.115  0.00  0.00    +0.000 OA
ATOM     14  C   UNL     1       2.584   6.613  19.012  0.00  0.00    +0.000 A 
ATOM     15  C   UNL     1       3.609   3.041  19.541  0.00  0.00    +0.000 C 
ENDROOT
BRANCH  11  16
ATOM     16  C   UNL     1       1.482  10.093  18.314  0.00  0.00    +0.000 C 
BRANCH  16  17
ATOM     17  C   UNL     1       0.074  10.606  18.536  0.00  0.00    +0.000 A 
ATOM     18  C   UNL     1      -0.995  10.024  17.844  0.00  0.00    +0.000 A 
ATOM     19  C   UNL     1      -2.298  10.482  18.039  0.00  0.00    +0.000 A 
ATOM     20  C   UNL     1      -2.544  11.519  18.938  0.00  0.00    +0.000 A 
ATOM     21  C   UNL     1      -1.492  12.110  19.653  0.00  0.00    +0.000 A 
ATOM     22  C   UNL     1      -0.182  11.649  19.450  0.00  0.00    +0.000 A 
BRANCH  21  23
ATOM     23  C   UNL     1      -1.834  13.212  20.596  0.00  0.00    +0.000 C 
ATOM     24  O   UNL     1      -1.249  14.286  20.592  0.00  0.00    +0.000 OA
BRANCH  23  25
ATOM     25  O   UNL     1      -2.852  12.871  21.427  0.00  0.00    +0.000 OA
BRANCH  25  26
ATOM     26  C   UNL     1      -2.489  12.718  22.815  0.00  0.00    +0.000 C 
ATOM     27  C   UNL     1      -3.744  12.579  23.671  0.00  0.00    +0.000 C 
ATOM     28  C   UNL     1      -1.623  11.469  22.944  0.00  0.00    +0.000 C 
ENDBRANCH  25  26
ENDBRANCH  23  25
ENDBRANCH  21  23
ENDBRANCH  16  17
ENDBRANCH  11  16
TORSDOF 5
ENDMDL
MODEL 3
REMARK VINA RESULT:      -7.4      4.820      7.586
REMARK  Name = 
REMARK  8 active torsions:
REMARK  status: ('A' for Active; 'I' for Inactive)
REMARK    1  A    between atoms: C_1  and  C_2
REMARK    2  A    between atoms: N_11  and  C_12
REMARK    3  A    between atoms: C_12  and  C_13
REMARK    4  A    between atoms: C_17  and  C_18
REMARK    5  A    between atoms: C_18  and  O_20
REMARK    6  A    between atoms: O_20  and  C_21
REMARK    7  A    between atoms: C_21  and  C_22
REMARK    8  A    between atoms: C_21  and  C_23
REMARK                            x       y       z     vdW  Elec       q    Type
REMARK                         _______ _______ _______ _____ _____    ______ ____
ROOT
ATOM      1  C   UNL     1      -0.077  13.907  22.102  0.00  0.00    +0.000 C 
ATOM      2  C   UNL     1      -1.399  13.138  21.980  0.00  0.00    +0.000 C 
ATOM      3  C   UNL     1      -1.776  12.884  20.503  0.00  0.00    +0.000 C 
ATOM      4  C   UNL     1      -0.747  12.011  19.773  0.00  0.00    +0.000 C 
ATOM      5  C   UNL     1      -0.290  10.865  20.625  0.00  0.00    +0.000 A 
ATOM      6  C   UNL     1      -0.564  10.781  21.978  0.00  0.00    +0.000 A 
ATOM      7  S   UNL     1       0.095   9.380  22.693  0.00  0.00    +0.000 S 
ATOM      8  C   UNL     1       0.812   8.897  21.218  0.00  0.00    +0.000 A 
ATOM      9  N   UNL     1       1.572   7.782  21.096  0.00  0.00    +0.000 NA
ATOM     10  N   UNL     1       2.076   7.502  19.976  0.00  0.00    +0.000 NA
ATOM     11  N   UNL     1       1.867   8.333  18.884  0.00  0.00    +0.000 N 
ATOM     12  C   UNL     1       1.104   9.495  18.922  0.00  0.00    +0.000 A 
ATOM     13  O   UNL     1       0.937  10.235  17.957  0.00  0.00    +0.000 OA
ATOM     14  C   UNL     1       0.530   9.776  20.208  0.00  0.00    +0.000 A 
ATOM     15  C   UNL     1      -1.347  11.797  22.754  0.00  0.00    +0.000 C 
ENDROOT
BRANCH  11  16
ATOM     16  C   UNL     1       2.487   7.944  17.635  0.00  0.00    +0.000 C 
BRANCH  16  17
ATOM     17  C   UNL     1       3.556   6.887  17.822  0.00  0.00    +0.000 A 
ATOM     18  C   UNL     1       4.792   7.026  17.177  0.00  0.00    +0.000 A 
ATOM     19  C   UNL     1       5.788   6.066  17.341  0.00  0.00    +0.000 A 
ATOM     20  C   UNL     1       5.563   4.962  18.163  0.00  0.00    +0.000 A 
ATOM     21  C   UNL     1       4.339   4.806  18.831  0.00  0.00    +0.000 A 
ATOM     22  C   UNL     1       3.337   5.774  18.658  0.00  0.00    +0.000 A 
BRANCH  21  23
ATOM     23  C   UNL     1       4.173   3.601  19.692  0.00  0.00    +0.000 C 
ATOM     24  O   UNL     1       4.967   2.672  19.683  0.00  0.00    +0.000 OA
BRANCH  23  25
ATOM     25  O   UNL     1       3.057   3.680  20.463  0.00  0.00    +0.000 OA
BRANCH  25  26
ATOM     26  C   UNL     1       2.196   2.523  20.419  0.00  0.00    +0.000 C 
ATOM     27  C   UNL     1       1.471   2.362  21.752  0.00  0.00    +0.000 C 
ATOM     28  C   UNL     1       1.188   2.726  19.292  0.00  0.00    +0.000 C 
ENDBRANCH  25  26
ENDBRANCH  23  25
ENDBRANCH  21  23
ENDBRANCH  16  17
ENDBRANCH  11  16
TORSDOF 5
ENDMDL
MODEL 4
REMARK VINA RESULT:      -7.4      6.776     10.370
REMARK  Name = 
REMARK  8 active torsions:
REMARK  status: ('A' for Active; 'I' for Inactive)
REMARK    1  A    between atoms: C_1  and  C_2
REMARK    2  A    between atoms: N_11  and  C_12
REMARK    3  A    between atoms: C_12  and  C_13
REMARK    4  A    between atoms: C_17  and  C_18
REMARK    5  A    between atoms: C_18  and  O_20
REMARK    6  A    between atoms: O_20  and  C_21
REMARK    7  A    between atoms: C_21  and  C_22
REMARK    8  A    between atoms: C_21  and  C_23
REMARK                            x       y       z     vdW  Elec       q    Type
REMARK                         _______ _______ _______ _____ _____    ______ ____
ROOT
ATOM      1  C   UNL     1       3.467   3.968  16.919  0.00  0.00    +0.000 C 
ATOM      2  C   UNL     1       4.598   4.514  17.801  0.00  0.00    +0.000 C 
ATOM      3  C   UNL     1       5.082   5.898  17.312  0.00  0.00    +0.000 C 
ATOM      4  C   UNL     1       3.982   6.966  17.377  0.00  0.00    +0.000 C 
ATOM      5  C   UNL     1       3.191   6.869  18.648  0.00  0.00    +0.000 A 
ATOM      6  C   UNL     1       3.279   5.786  19.504  0.00  0.00    +0.000 A 
ATOM      7  S   UNL     1       2.253   5.939  20.858  0.00  0.00    +0.000 S 
ATOM      8  C   UNL     1       1.628   7.424  20.287  0.00  0.00    +0.000 A 
ATOM      9  N   UNL     1       0.665   8.119  20.938  0.00  0.00    +0.000 NA
ATOM     10  N   UNL     1       0.248   9.200  20.445  0.00  0.00    +0.000 NA
ATOM     11  N   UNL     1       0.758   9.666  19.241  0.00  0.00    +0.000 N 
ATOM     12  C   UNL     1       1.745   9.015  18.507  0.00  0.00    +0.000 A 
ATOM     13  O   UNL     1       2.180   9.423  17.434  0.00  0.00    +0.000 OA
ATOM     14  C   UNL     1       2.210   7.795  19.106  0.00  0.00    +0.000 A 
ATOM     15  C   UNL     1       4.166   4.597  19.287  0.00  0.00    +0.000 C 
ENDROOT
BRANCH  11  16
ATOM     16  C   UNL     1       0.221  10.913  18.738  0.00  0.00    +0.000 C 
BRANCH  16  17
ATOM     17  C   UNL     1      -1.203  10.773  18.243  0.00  0.00    +0.000 A 
ATOM     18  C   UNL     1      -1.502   9.841  17.240  0.00  0.00    +0.000 A 
ATOM     19  C   UNL     1      -2.809   9.696  16.775  0.00  0.00    +0.000 A 
ATOM     20  C   UNL     1      -3.831  10.475  17.317  0.00  0.00    +0.000 A 
ATOM     21  C   UNL     1      -3.560  11.405  18.331  0.00  0.00    +0.000 A 
ATOM     22  C   UNL     1      -2.243  11.550  18.792  0.00  0.00    +0.000 A 
BRANCH  21  23
ATOM     23  C   UNL     1      -4.705  12.200  18.860  0.00  0.00    +0.000 C 
ATOM     24  O   UNL     1      -5.620  12.590  18.150  0.00  0.00    +0.000 OA
BRANCH  23  25
ATOM     25  O   UNL     1      -4.595  12.418  20.197  0.00  0.00    +0.000 OA
BRANCH  25  26
ATOM     26  C   UNL     1      -5.830  12.732  20.873  0.00  0.00    +0.000 C 
ATOM     27  C   UNL     1      -6.778  11.538  20.807  0.00  0.00    +0.000 C 
ATOM     28  C   UNL     1      -5.504  13.066  22.324  0.00  0.00    +0.000 C 
ENDBRANCH  25  26
ENDBRANCH  23  25
ENDBRANCH  21  23
ENDBRANCH  16  17
ENDBRANCH  11  16
TORSDOF 5
ENDMDL
MODEL 5
REMARK VINA RESULT:      -7.4      6.007      9.264
REMARK  Name = 
REMARK  8 active torsions:
REMARK  status: ('A' for Active; 'I' for Inactive)
REMARK    1  A    between atoms: C_1  and  C_2
REMARK    2  A    between atoms: N_11  and  C_12
REMARK    3  A    between atoms: C_12  and  C_13
REMARK    4  A    between atoms: C_17  and  C_18
REMARK    5  A    between atoms: C_18  and  O_20
REMARK    6  A    between atoms: O_20  and  C_21
REMARK    7  A    between atoms: C_21  and  C_22
REMARK    8  A    between atoms: C_21  and  C_23
REMARK                            x       y       z     vdW  Elec       q    Type
REMARK                         _______ _______ _______ _____ _____    ______ ____
ROOT
ATOM      1  C   UNL     1       2.381   2.202  17.511  0.00  0.00    +0.000 C 
ATOM      2  C   UNL     1       3.675   2.454  18.297  0.00  0.00    +0.000 C 
ATOM      3  C   UNL     1       4.569   3.503  17.599  0.00  0.00    +0.000 C 
ATOM      4  C   UNL     1       3.897   4.879  17.499  0.00  0.00    +0.000 C 
ATOM      5  C   UNL     1       3.188   5.242  18.770  0.00  0.00    +0.000 A 
ATOM      6  C   UNL     1       2.953   4.331  19.783  0.00  0.00    +0.000 A 
ATOM      7  S   UNL     1       2.111   5.019  21.098  0.00  0.00    +0.000 S 
ATOM      8  C   UNL     1       1.992   6.528  20.305  0.00  0.00    +0.000 A 
ATOM      9  N   UNL     1       1.354   7.596  20.840  0.00  0.00    +0.000 NA
ATOM     10  N   UNL     1       1.299   8.670  20.186  0.00  0.00    +0.000 NA
ATOM     11  N   UNL     1       1.872   8.755  18.924  0.00  0.00    +0.000 N 
ATOM     12  C   UNL     1       2.542   7.708  18.299  0.00  0.00    +0.000 A 
ATOM     13  O   UNL     1       3.031   7.783  17.176  0.00  0.00    +0.000 OA
ATOM     14  C   UNL     1       2.602   6.503  19.079  0.00  0.00    +0.000 A 
ATOM     15  C   UNL     1       3.376   2.893  19.752  0.00  0.00    +0.000 C 
ENDROOT
BRANCH  11  16
ATOM     16  C   UNL     1       1.758  10.023  18.235  0.00  0.00    +0.000 C 
BRANCH  16  17
ATOM     17  C   UNL     1       0.495  10.773  18.603  0.00  0.00    +0.000 A 
ATOM     18  C   UNL     1       0.575  11.918  19.406  0.00  0.00    +0.000 A 
ATOM     19  C   UNL     1      -0.577  12.622  19.752  0.00  0.00    +0.000 A 
ATOM     20  C   UNL     1      -1.821  12.193  19.288  0.00  0.00    +0.000 A 
ATOM     21  C   UNL     1      -1.926  11.057  18.472  0.00  0.00    +0.000 A 
ATOM     22  C   UNL     1      -0.764  10.350  18.131  0.00  0.00    +0.000 A 
BRANCH  21  23
ATOM     23  C   UNL     1      -3.289  10.662  18.015  0.00  0.00    +0.000 C 
ATOM     24  O   UNL     1      -3.558   9.524  17.658  0.00  0.00    +0.000 OA
BRANCH  23  25
ATOM     25  O   UNL     1      -4.159  11.704  18.054  0.00  0.00    +0.000 OA
BRANCH  25  26
ATOM     26  C   UNL     1      -5.300  11.522  18.919  0.00  0.00    +0.000 C 
ATOM     27  C   UNL     1      -5.491  12.755  19.797  0.00  0.00    +0.000 C 
ATOM     28  C   UNL     1      -6.528  11.304  18.042  0.00  0.00    +0.000 C 
ENDBRANCH  25  26
ENDBRANCH  23  25
ENDBRANCH  21  23
ENDBRANCH  16  17
ENDBRANCH  11  16
TORSDOF 5
ENDMDL
MODEL 6
REMARK VINA RESULT:      -7.3      4.969      7.516
REMARK  Name = 
REMARK  8 active torsions:
REMARK  status: ('A' for Active; 'I' for Inactive)
REMARK    1  A    between atoms: C_1  and  C_2
REMARK    2  A    between atoms: N_11  and  C_12
REMARK    3  A    between atoms: C_12  and  C_13
REMARK    4  A    between atoms: C_17  and  C_18
REMARK    5  A    between atoms: C_18  and  O_20
REMARK    6  A    between atoms: O_20  and  C_21
REMARK    7  A    between atoms: C_21  and  C_22
REMARK    8  A    between atoms: C_21  and  C_23
REMARK                            x       y       z     vdW  Elec       q    Type
REMARK                         _______ _______ _______ _____ _____    ______ ____
ROOT
ATOM      1  C   UNL     1      -1.199  14.334  21.993  0.00  0.00    +0.000 C 
ATOM      2  C   UNL     1      -2.399  13.379  21.972  0.00  0.00    +0.000 C 
ATOM      3  C   UNL     1      -2.743  12.929  20.534  0.00  0.00    +0.000 C 
ATOM      4  C   UNL     1      -1.603  12.143  19.872  0.00  0.00    +0.000 C 
ATOM      5  C   UNL     1      -0.984  11.162  20.823  0.00  0.00    +0.000 A 
ATOM      6  C   UNL     1      -1.236  11.174  22.183  0.00  0.00    +0.000 A 
ATOM      7  S   UNL     1      -0.381   9.958  23.018  0.00  0.00    +0.000 S 
ATOM      8  C   UNL     1       0.390   9.438  21.584  0.00  0.00    +0.000 A 
ATOM      9  N   UNL     1       1.301   8.435  21.556  0.00  0.00    +0.000 NA
ATOM     10  N   UNL     1       1.834   8.120  20.460  0.00  0.00    +0.000 NA
ATOM     11  N   UNL     1       1.504   8.801  19.296  0.00  0.00    +0.000 N 
ATOM     12  C   UNL     1       0.583   9.841  19.235  0.00  0.00    +0.000 A 
ATOM     13  O   UNL     1       0.308  10.452  18.206  0.00  0.00    +0.000 OA
ATOM     14  C   UNL     1      -0.019  10.165  20.499  0.00  0.00    +0.000 A 
ATOM     15  C   UNL     1      -2.152  12.142  22.871  0.00  0.00    +0.000 C 
ENDROOT
BRANCH  11  16
ATOM     16  C   UNL     1       2.167   8.381  18.079  0.00  0.00    +0.000 C 
BRANCH  16  17
ATOM     17  C   UNL     1       2.542   6.914  18.099  0.00  0.00    +0.000 A 
ATOM     18  C   UNL     1       1.538   5.939  18.034  0.00  0.00    +0.000 A 
ATOM     19  C   UNL     1       1.866   4.584  18.048  0.00  0.00    +0.000 A 
ATOM     20  C   UNL     1       3.203   4.192  18.115  0.00  0.00    +0.000 A 
ATOM     21  C   UNL     1       4.227   5.149  18.168  0.00  0.00    +0.000 A 
ATOM     22  C   UNL     1       3.891   6.511  18.158  0.00  0.00    +0.000 A 
BRANCH  21  23
ATOM     23  C   UNL     1       5.630   4.652  18.238  0.00  0.00    +0.000 C 
ATOM     24  O   UNL     1       6.074   4.070  19.217  0.00  0.00    +0.000 OA
BRANCH  23  25
ATOM     25  O   UNL     1       6.321   4.924  17.101  0.00  0.00    +0.000 OA
BRANCH  25  26
ATOM     26  C   UNL     1       5.588   4.727  15.873  0.00  0.00    +0.000 C 
ATOM     27  C   UNL     1       5.589   6.015  15.054  0.00  0.00    +0.000 C 
ATOM     28  C   UNL     1       6.264   3.605  15.093  0.00  0.00    +0.000 C 
ENDBRANCH  25  26
ENDBRANCH  23  25
ENDBRANCH  21  23
ENDBRANCH  16  17
ENDBRANCH  11  16
TORSDOF 5
ENDMDL
MODEL 7
REMARK VINA RESULT:      -7.2      4.791      7.416
REMARK  Name = 
REMARK  8 active torsions:
REMARK  status: ('A' for Active; 'I' for Inactive)
REMARK    1  A    between atoms: C_1  and  C_2
REMARK    2  A    between atoms: N_11  and  C_12
REMARK    3  A    between atoms: C_12  and  C_13
REMARK    4  A    between atoms: C_17  and  C_18
REMARK    5  A    between atoms: C_18  and  O_20
REMARK    6  A    between atoms: O_20  and  C_21
REMARK    7  A    between atoms: C_21  and  C_22
REMARK    8  A    between atoms: C_21  and  C_23
REMARK                            x       y       z     vdW  Elec       q    Type
REMARK                         _______ _______ _______ _____ _____    ______ ____
ROOT
ATOM      1  C   UNL     1       1.061  14.202  21.419  0.00  0.00    +0.000 C 
ATOM      2  C   UNL     1      -0.357  13.726  21.073  0.00  0.00    +0.000 C 
ATOM      3  C   UNL     1      -0.524  13.494  19.555  0.00  0.00    +0.000 C 
ATOM      4  C   UNL     1       0.400  12.393  19.020  0.00  0.00    +0.000 C 
ATOM      5  C   UNL     1       0.447  11.213  19.945  0.00  0.00    +0.000 A 
ATOM      6  C   UNL     1      -0.062  11.247  21.230  0.00  0.00    +0.000 A 
ATOM      7  S   UNL     1       0.148   9.771  22.056  0.00  0.00    +0.000 S 
ATOM      8  C   UNL     1       0.982   9.084  20.732  0.00  0.00    +0.000 A 
ATOM      9  N   UNL     1       1.493   7.830  20.750  0.00  0.00    +0.000 NA
ATOM     10  N   UNL     1       2.106   7.401  19.737  0.00  0.00    +0.000 NA
ATOM     11  N   UNL     1       2.269   8.210  18.620  0.00  0.00    +0.000 N 
ATOM     12  C   UNL     1       1.779   9.507  18.518  0.00  0.00    +0.000 A 
ATOM     13  O   UNL     1       1.942  10.224  17.535  0.00  0.00    +0.000 OA
ATOM     14  C   UNL     1       1.071   9.959  19.683  0.00  0.00    +0.000 A 
ATOM     15  C   UNL     1      -0.727  12.439  21.852  0.00  0.00    +0.000 C 
ENDROOT
BRANCH  11  16
ATOM     16  C   UNL     1       2.992   7.644  17.500  0.00  0.00    +0.000 C 
BRANCH  16  17
ATOM     17  C   UNL     1       3.650   6.324  17.842  0.00  0.00    +0.000 A 
ATOM     18  C   UNL     1       5.021   6.284  18.126  0.00  0.00    +0.000 A 
ATOM     19  C   UNL     1       5.643   5.077  18.446  0.00  0.00    +0.000 A 
ATOM     20  C   UNL     1       4.895   3.901  18.496  0.00  0.00    +0.000 A 
ATOM     21  C   UNL     1       3.519   3.916  18.227  0.00  0.00    +0.000 A 
ATOM     22  C   UNL     1       2.899   5.133  17.901  0.00  0.00    +0.000 A 
BRANCH  21  23
ATOM     23  C   UNL     1       2.788   2.619  18.301  0.00  0.00    +0.000 C 
ATOM     24  O   UNL     1       2.206   2.137  17.340  0.00  0.00    +0.000 OA
BRANCH  23  25
ATOM     25  O   UNL     1       2.860   2.066  19.539  0.00  0.00    +0.000 OA
BRANCH  25  26
ATOM     26  C   UNL     1       1.790   2.426  20.437  0.00  0.00    +0.000 C 
ATOM     27  C   UNL     1       2.245   3.547  21.368  0.00  0.00    +0.000 C 
ATOM     28  C   UNL     1       0.603   2.887  19.599  0.00  0.00    +0.000 C 
ENDBRANCH  25  26
ENDBRANCH  23  25
ENDBRANCH  21  23
ENDBRANCH  16  17
ENDBRANCH  11  16
TORSDOF 5
ENDMDL
MODEL 8
REMARK VINA RESULT:      -7.2      7.281     10.581
REMARK  Name = 
REMARK  8 active torsions:
REMARK  status: ('A' for Active; 'I' for Inactive)
REMARK    1  A    between atoms: C_1  and  C_2
REMARK    2  A    between atoms: N_11  and  C_12
REMARK    3  A    between atoms: C_12  and  C_13
REMARK    4  A    between atoms: C_17  and  C_18
REMARK    5  A    between atoms: C_18  and  O_20
REMARK    6  A    between atoms: O_20  and  C_21
REMARK    7  A    between atoms: C_21  and  C_22
REMARK    8  A    between atoms: C_21  and  C_23
REMARK                            x       y       z     vdW  Elec       q    Type
REMARK                         _______ _______ _______ _____ _____    ______ ____
ROOT
ATOM      1  C   UNL     1      -7.528  10.445  20.589  0.00  0.00    +0.000 C 
ATOM      2  C   UNL     1      -7.638  11.872  20.035  0.00  0.00    +0.000 C 
ATOM      3  C   UNL     1      -6.809  12.872  20.873  0.00  0.00    +0.000 C 
ATOM      4  C   UNL     1      -5.307  12.558  20.852  0.00  0.00    +0.000 C 
ATOM      5  C   UNL     1      -4.839  12.182  19.477  0.00  0.00    +0.000 A 
ATOM      6  C   UNL     1      -5.710  11.897  18.441  0.00  0.00    +0.000 A 
ATOM      7  S   UNL     1      -4.898  11.483  17.000  0.00  0.00    +0.000 S 
ATOM      8  C   UNL     1      -3.371  11.614  17.756  0.00  0.00    +0.000 A 
ATOM      9  N   UNL     1      -2.205  11.361  17.116  0.00  0.00    +0.000 NA
ATOM     10  N   UNL     1      -1.121  11.469  17.748  0.00  0.00    +0.000 NA
ATOM     11  N   UNL     1      -1.122  11.828  19.089  0.00  0.00    +0.000 N 
ATOM     12  C   UNL     1      -2.272  12.103  19.823  0.00  0.00    +0.000 A 
ATOM     13  O   UNL     1      -2.268  12.403  21.013  0.00  0.00    +0.000 OA
ATOM     14  C   UNL     1      -3.489  11.988  19.068  0.00  0.00    +0.000 A 
ATOM     15  C   UNL     1      -7.205  11.936  18.549  0.00  0.00    +0.000 C 
ENDROOT
BRANCH  11  16
ATOM     16  C   UNL     1       0.165  11.923  19.745  0.00  0.00    +0.000 C 
BRANCH  16  17
ATOM     17  C   UNL     1       0.577  10.623  20.405  0.00  0.00    +0.000 A 
ATOM     18  C   UNL     1       0.363  10.442  21.777  0.00  0.00    +0.000 A 
ATOM     19  C   UNL     1       0.732   9.251  22.400  0.00  0.00    +0.000 A 
ATOM     20  C   UNL     1       1.309   8.224  21.653  0.00  0.00    +0.000 A 
ATOM     21  C   UNL     1       1.523   8.376  20.275  0.00  0.00    +0.000 A 
ATOM     22  C   UNL     1       1.153   9.579  19.654  0.00  0.00    +0.000 A 
BRANCH  21  23
ATOM     23  C   UNL     1       2.144   7.235  19.545  0.00  0.00    +0.000 C 
ATOM     24  O   UNL     1       2.578   7.341  18.407  0.00  0.00    +0.000 OA
BRANCH  23  25
ATOM     25  O   UNL     1       2.162   6.103  20.295  0.00  0.00    +0.000 OA
BRANCH  25  26
ATOM     26  C   UNL     1       2.054   4.870  19.553  0.00  0.00    +0.000 C 
ATOM     27  C   UNL     1       3.394   4.141  19.556  0.00  0.00    +0.000 C 
ATOM     28  C   UNL     1       0.984   4.010  20.216  0.00  0.00    +0.000 C 
ENDBRANCH  25  26
ENDBRANCH  23  25
ENDBRANCH  21  23
ENDBRANCH  16  17
ENDBRANCH  11  16
TORSDOF 5
ENDMDL
MODEL 9
REMARK VINA RESULT:      -7.1      6.025      8.637
REMARK  Name = 
REMARK  8 active torsions:
REMARK  status: ('A' for Active; 'I' for Inactive)
REMARK    1  A    between atoms: C_1  and  C_2
REMARK    2  A    between atoms: N_11  and  C_12
REMARK    3  A    between atoms: C_12  and  C_13
REMARK    4  A    between atoms: C_17  and  C_18
REMARK    5  A    between atoms: C_18  and  O_20
REMARK    6  A    between atoms: O_20  and  C_21
REMARK    7  A    between atoms: C_21  and  C_22
REMARK    8  A    between atoms: C_21  and  C_23
REMARK                            x       y       z     vdW  Elec       q    Type
REMARK                         _______ _______ _______ _____ _____    ______ ____
ROOT
ATOM      1  C   UNL     1      -5.628  12.689  16.954  0.00  0.00    +0.000 C 
ATOM      2  C   UNL     1      -5.890  11.863  18.220  0.00  0.00    +0.000 C 
ATOM      3  C   UNL     1      -5.425  10.399  18.050  0.00  0.00    +0.000 C 
ATOM      4  C   UNL     1      -3.914  10.283  17.812  0.00  0.00    +0.000 C 
ATOM      5  C   UNL     1      -3.140  11.203  18.709  0.00  0.00    +0.000 A 
ATOM      6  C   UNL     1      -3.737  12.208  19.448  0.00  0.00    +0.000 A 
ATOM      7  S   UNL     1      -2.612  13.107  20.360  0.00  0.00    +0.000 S 
ATOM      8  C   UNL     1      -1.301  12.209  19.731  0.00  0.00    +0.000 A 
ATOM      9  N   UNL     1      -0.010  12.460  20.055  0.00  0.00    +0.000 NA
ATOM     10  N   UNL     1       0.901  11.761  19.538  0.00  0.00    +0.000 NA
ATOM     11  N   UNL     1       0.587  10.754  18.635  0.00  0.00    +0.000 N 
ATOM     12  C   UNL     1      -0.709  10.431  18.246  0.00  0.00    +0.000 A 
ATOM     13  O   UNL     1      -0.979   9.552  17.433  0.00  0.00    +0.000 OA
ATOM     14  C   UNL     1      -1.724  11.236  18.866  0.00  0.00    +0.000 A 
ATOM     15  C   UNL     1      -5.209  12.497  19.459  0.00  0.00    +0.000 C 
ENDROOT
BRANCH  11  16
ATOM     16  C   UNL     1       1.692  10.001  18.081  0.00  0.00    +0.000 C 
BRANCH  16  17
ATOM     17  C   UNL     1       1.866   8.652  18.747  0.00  0.00    +0.000 A 
ATOM     18  C   UNL     1       1.546   8.499  20.102  0.00  0.00    +0.000 A 
ATOM     19  C   UNL     1       1.697   7.263  20.730  0.00  0.00    +0.000 A 
ATOM     20  C   UNL     1       2.158   6.165  20.004  0.00  0.00    +0.000 A 
ATOM     21  C   UNL     1       2.474   6.289  18.644  0.00  0.00    +0.000 A 
ATOM     22  C   UNL     1       2.325   7.536  18.017  0.00  0.00    +0.000 A 
BRANCH  21  23
ATOM     23  C   UNL     1       2.961   5.071  17.936  0.00  0.00    +0.000 C 
ATOM     24  O   UNL     1       2.210   4.179  17.570  0.00  0.00    +0.000 OA
BRANCH  23  25
ATOM     25  O   UNL     1       4.307   5.093  17.757  0.00  0.00    +0.000 OA
BRANCH  25  26
ATOM     26  C   UNL     1       4.744   5.206  16.387  0.00  0.00    +0.000 C 
ATOM     27  C   UNL     1       5.373   6.576  16.151  0.00  0.00    +0.000 C 
ATOM     28  C   UNL     1       5.766   4.105  16.123  0.00  0.00    +0.000 C 
ENDBRANCH  25  26
ENDBRANCH  23  25
ENDBRANCH  21  23
ENDBRANCH  16  17
ENDBRANCH  11  16
TORSDOF 5
ENDMDL
