MODEL 1
REMARK VINA RESULT:      -7.3      0.000      0.000
REMARK  Name = 
REMARK  4 active torsions:
REMARK  status: ('A' for Active; 'I' for Inactive)
REMARK    1  A    between atoms: C_1  and  C_2
REMARK    2  A    between atoms: C_2  and  O_4
REMARK    3  A    between atoms: O_4  and  C_5
REMARK    4  A    between atoms: C_9  and  C_10
REMARK                            x       y       z     vdW  Elec       q    Type
REMARK                         _______ _______ _______ _____ _____    ______ ____
ROOT
ATOM      1  C   UNL     1       6.124   4.534  15.401  0.00  0.00    +0.000 A 
ATOM      2  C   UNL     1       7.248   5.154  15.942  0.00  0.00    +0.000 A 
ATOM      3  C   UNL     1       7.123   6.083  16.977  0.00  0.00    +0.000 A 
ATOM      4  C   UNL     1       5.864   6.391  17.508  0.00  0.00    +0.000 A 
ATOM      5  C   UNL     1       4.710   5.761  17.007  0.00  0.00    +0.000 A 
ATOM      6  C   UNL     1       4.852   4.840  15.940  0.00  0.00    +0.000 A 
ENDROOT
BRANCH   5   7
ATOM      7  C   UNL     1       3.313   5.945  17.601  0.00  0.00    +0.000 C 
ATOM      8  C   UNL     1       2.255   4.790  17.560  0.00  0.00    +0.000 C 
ATOM      9  N   UNL     1       2.326   3.863  18.711  0.00  0.00    +0.000 NA
ATOM     10  C   UNL     1       1.098   3.021  18.744  0.00  0.00    +0.000 C 
ATOM     11  C   UNL     1       1.134   2.025  19.916  0.00  0.00    +0.000 C 
ATOM     12  C   UNL     1       1.316   2.768  21.241  0.00  0.00    +0.000 C 
ATOM     13  C   UNL     1       2.560   3.660  21.164  0.00  0.00    +0.000 C 
ATOM     14  C   UNL     1       2.414   4.629  19.974  0.00  0.00    +0.000 C 
ATOM     15  C   UNL     1       3.593   5.604  19.896  0.00  0.00    +0.000 C 
ATOM     16  O   UNL     1       3.368   6.560  18.878  0.00  0.00    +0.000 OA
ENDBRANCH   5   7
BRANCH   1  17
ATOM     17  O   UNL     1       6.321   3.638  14.393  0.00  0.00    +0.000 OA
BRANCH  17  19
ATOM     18  C   UNL     1       5.365   3.203  12.157  0.00  0.00    +0.000 C 
ATOM     19  C   UNL     1       6.376   3.854  13.047  0.00  0.00    +0.000 C 
ATOM     20  O   UNL     1       7.280   4.516  12.552  0.00  0.00    +0.000 OA
ENDBRANCH  17  19
ENDBRANCH   1  17
TORSDOF 3
ENDMDL
MODEL 2
REMARK VINA RESULT:      -7.3      2.819      4.303
REMARK  Name = 
REMARK  4 active torsions:
REMARK  status: ('A' for Active; 'I' for Inactive)
REMARK    1  A    between atoms: C_1  and  C_2
REMARK    2  A    between atoms: C_2  and  O_4
REMARK    3  A    between atoms: O_4  and  C_5
REMARK    4  A    between atoms: C_9  and  C_10
REMARK                            x       y       z     vdW  Elec       q    Type
REMARK                         _______ _______ _______ _____ _____    ______ ____
ROOT
ATOM      1  C   UNL     1       7.580   7.776  17.870  0.00  0.00    +0.000 A 
ATOM      2  C   UNL     1       8.293   6.903  18.688  0.00  0.00    +0.000 A 
ATOM      3  C   UNL     1       7.744   5.680  19.080  0.00  0.00    +0.000 A 
ATOM      4  C   UNL     1       6.472   5.298  18.636  0.00  0.00    +0.000 A 
ATOM      5  C   UNL     1       5.735   6.140  17.782  0.00  0.00    +0.000 A 
ATOM      6  C   UNL     1       6.297   7.388  17.416  0.00  0.00    +0.000 A 
ENDROOT
BRANCH   5   7
ATOM      7  C   UNL     1       4.396   5.756  17.155  0.00  0.00    +0.000 C 
ATOM      8  C   UNL     1       3.927   4.263  17.091  0.00  0.00    +0.000 C 
ATOM      9  N   UNL     1       3.187   3.809  18.289  0.00  0.00    +0.000 NA
ATOM     10  C   UNL     1       2.517   2.511  17.995  0.00  0.00    +0.000 C 
ATOM     11  C   UNL     1       1.748   1.988  19.220  0.00  0.00    +0.000 C 
ATOM     12  C   UNL     1       0.730   3.028  19.692  0.00  0.00    +0.000 C 
ATOM     13  C   UNL     1       1.436   4.364  19.945  0.00  0.00    +0.000 C 
ATOM     14  C   UNL     1       2.157   4.806  18.655  0.00  0.00    +0.000 C 
ATOM     15  C   UNL     1       2.815   6.179  18.822  0.00  0.00    +0.000 C 
ATOM     16  O   UNL     1       3.353   6.615  17.589  0.00  0.00    +0.000 OA
ENDBRANCH   5   7
BRANCH   1  17
ATOM     17  O   UNL     1       8.179   8.952  17.527  0.00  0.00    +0.000 OA
BRANCH  17  19
ATOM     18  C   UNL     1       8.770  11.329  17.846  0.00  0.00    +0.000 C 
ATOM     19  C   UNL     1       8.707   9.916  18.335  0.00  0.00    +0.000 C 
ATOM     20  O   UNL     1       9.191   9.629  19.423  0.00  0.00    +0.000 OA
ENDBRANCH  17  19
ENDBRANCH   1  17
TORSDOF 3
ENDMDL
MODEL 3
REMARK VINA RESULT:      -7.3      1.956      3.378
REMARK  Name = 
REMARK  4 active torsions:
REMARK  status: ('A' for Active; 'I' for Inactive)
REMARK    1  A    between atoms: C_1  and  C_2
REMARK    2  A    between atoms: C_2  and  O_4
REMARK    3  A    between atoms: O_4  and  C_5
REMARK    4  A    between atoms: C_9  and  C_10
REMARK                            x       y       z     vdW  Elec       q    Type
REMARK                         _______ _______ _______ _____ _____    ______ ____
ROOT
ATOM      1  C   UNL     1       6.676   6.616  16.693  0.00  0.00    +0.000 A 
ATOM      2  C   UNL     1       7.041   5.528  15.902  0.00  0.00    +0.000 A 
ATOM      3  C   UNL     1       6.163   4.461  15.706  0.00  0.00    +0.000 A 
ATOM      4  C   UNL     1       4.886   4.476  16.281  0.00  0.00    +0.000 A 
ATOM      5  C   UNL     1       4.471   5.573  17.059  0.00  0.00    +0.000 A 
ATOM      6  C   UNL     1       5.385   6.635  17.269  0.00  0.00    +0.000 A 
ENDROOT
BRANCH   5   7
ATOM      7  C   UNL     1       3.061   5.731  17.626  0.00  0.00    +0.000 C 
ATOM      8  C   UNL     1       2.074   4.517  17.697  0.00  0.00    +0.000 C 
ATOM      9  N   UNL     1       2.188   3.715  18.935  0.00  0.00    +0.000 NA
ATOM     10  C   UNL     1       1.012   2.808  19.048  0.00  0.00    +0.000 C 
ATOM     11  C   UNL     1       1.095   1.938  20.313  0.00  0.00    +0.000 C 
ATOM     12  C   UNL     1       1.219   2.820  21.558  0.00  0.00    +0.000 C 
ATOM     13  C   UNL     1       2.409   3.773  21.397  0.00  0.00    +0.000 C 
ATOM     14  C   UNL     1       2.218   4.608  20.115  0.00  0.00    +0.000 C 
ATOM     15  C   UNL     1       3.337   5.639  19.944  0.00  0.00    +0.000 C 
ATOM     16  O   UNL     1       3.066   6.473  18.835  0.00  0.00    +0.000 OA
ENDBRANCH   5   7
BRANCH   1  17
ATOM     17  O   UNL     1       7.585   7.622  16.840  0.00  0.00    +0.000 OA
BRANCH  17  19
ATOM     18  C   UNL     1       8.450   9.570  18.089  0.00  0.00    +0.000 C 
ATOM     19  C   UNL     1       8.154   8.107  17.982  0.00  0.00    +0.000 C 
ATOM     20  O   UNL     1       8.487   7.354  18.888  0.00  0.00    +0.000 OA
ENDBRANCH  17  19
ENDBRANCH   1  17
TORSDOF 3
ENDMDL
MODEL 4
REMARK VINA RESULT:      -7.2      1.726      2.223
REMARK  Name = 
REMARK  4 active torsions:
REMARK  status: ('A' for Active; 'I' for Inactive)
REMARK    1  A    between atoms: C_1  and  C_2
REMARK    2  A    between atoms: C_2  and  O_4
REMARK    3  A    between atoms: O_4  and  C_5
REMARK    4  A    between atoms: C_9  and  C_10
REMARK                            x       y       z     vdW  Elec       q    Type
REMARK                         _______ _______ _______ _____ _____    ______ ____
ROOT
ATOM      1  C   UNL     1       6.579   5.029  15.388  0.00  0.00    +0.000 A 
ATOM      2  C   UNL     1       6.355   6.321  15.857  0.00  0.00    +0.000 A 
ATOM      3  C   UNL     1       5.249   6.608  16.660  0.00  0.00    +0.000 A 
ATOM      4  C   UNL     1       4.357   5.594  17.030  0.00  0.00    +0.000 A 
ATOM      5  C   UNL     1       4.570   4.271  16.602  0.00  0.00    +0.000 A 
ATOM      6  C   UNL     1       5.682   4.002  15.766  0.00  0.00    +0.000 A 
ENDROOT
BRANCH   5   7
ATOM      7  C   UNL     1       3.720   3.083  17.051  0.00  0.00    +0.000 C 
ATOM      8  C   UNL     1       3.944   2.405  18.445  0.00  0.00    +0.000 C 
ATOM      9  N   UNL     1       3.177   3.023  19.550  0.00  0.00    +0.000 NA
ATOM     10  C   UNL     1       3.205   2.122  20.736  0.00  0.00    +0.000 C 
ATOM     11  C   UNL     1       2.434   2.732  21.919  0.00  0.00    +0.000 C 
ATOM     12  C   UNL     1       0.993   3.045  21.511  0.00  0.00    +0.000 C 
ATOM     13  C   UNL     1       0.993   3.936  20.264  0.00  0.00    +0.000 C 
ATOM     14  C   UNL     1       1.771   3.227  19.136  0.00  0.00    +0.000 C 
ATOM     15  C   UNL     1       1.735   4.034  17.835  0.00  0.00    +0.000 C 
ATOM     16  O   UNL     1       2.343   3.301  16.790  0.00  0.00    +0.000 OA
ENDBRANCH   5   7
BRANCH   1  17
ATOM     17  O   UNL     1       7.678   4.822  14.608  0.00  0.00    +0.000 OA
BRANCH  17  19
ATOM     18  C   UNL     1       7.200   4.438  12.215  0.00  0.00    +0.000 C 
ATOM     19  C   UNL     1       7.894   5.185  13.311  0.00  0.00    +0.000 C 
ATOM     20  O   UNL     1       8.698   6.065  13.029  0.00  0.00    +0.000 OA
ENDBRANCH  17  19
ENDBRANCH   1  17
TORSDOF 3
ENDMDL
MODEL 5
REMARK VINA RESULT:      -7.0      1.556      2.011
REMARK  Name = 
REMARK  4 active torsions:
REMARK  status: ('A' for Active; 'I' for Inactive)
REMARK    1  A    between atoms: C_1  and  C_2
REMARK    2  A    between atoms: C_2  and  O_4
REMARK    3  A    between atoms: O_4  and  C_5
REMARK    4  A    between atoms: C_9  and  C_10
REMARK                            x       y       z     vdW  Elec       q    Type
REMARK                         _______ _______ _______ _____ _____    ______ ____
ROOT
ATOM      1  C   UNL     1       5.923   4.442  14.834  0.00  0.00    +0.000 A 
ATOM      2  C   UNL     1       5.660   5.731  14.375  0.00  0.00    +0.000 A 
ATOM      3  C   UNL     1       5.219   6.725  15.251  0.00  0.00    +0.000 A 
ATOM      4  C   UNL     1       5.056   6.451  16.614  0.00  0.00    +0.000 A 
ATOM      5  C   UNL     1       5.343   5.168  17.119  0.00  0.00    +0.000 A 
ATOM      6  C   UNL     1       5.764   4.165  16.212  0.00  0.00    +0.000 A 
ENDROOT
BRANCH   5   7
ATOM      7  C   UNL     1       5.309   4.810  18.604  0.00  0.00    +0.000 C 
ATOM      8  C   UNL     1       4.205   5.388  19.554  0.00  0.00    +0.000 C 
ATOM      9  N   UNL     1       2.968   4.577  19.609  0.00  0.00    +0.000 NA
ATOM     10  C   UNL     1       2.136   5.023  20.761  0.00  0.00    +0.000 C 
ATOM     11  C   UNL     1       0.827   4.220  20.848  0.00  0.00    +0.000 C 
ATOM     12  C   UNL     1       1.127   2.722  20.944  0.00  0.00    +0.000 C 
ATOM     13  C   UNL     1       2.021   2.300  19.773  0.00  0.00    +0.000 C 
ATOM     14  C   UNL     1       3.308   3.148  19.788  0.00  0.00    +0.000 C 
ATOM     15  C   UNL     1       4.280   2.714  18.687  0.00  0.00    +0.000 C 
ATOM     16  O   UNL     1       5.500   3.419  18.808  0.00  0.00    +0.000 OA
ENDBRANCH   5   7
BRANCH   1  17
ATOM     17  O   UNL     1       6.350   3.522  13.923  0.00  0.00    +0.000 OA
BRANCH  17  19
ATOM     18  C   UNL     1       5.004   3.102  11.895  0.00  0.00    +0.000 C 
ATOM     19  C   UNL     1       6.264   3.556  12.562  0.00  0.00    +0.000 C 
ATOM     20  O   UNL     1       7.225   3.885  11.878  0.00  0.00    +0.000 OA
ENDBRANCH  17  19
ENDBRANCH   1  17
TORSDOF 3
ENDMDL
MODEL 6
REMARK VINA RESULT:      -7.0      3.207      7.339
REMARK  Name = 
REMARK  4 active torsions:
REMARK  status: ('A' for Active; 'I' for Inactive)
REMARK    1  A    between atoms: C_1  and  C_2
REMARK    2  A    between atoms: C_2  and  O_4
REMARK    3  A    between atoms: O_4  and  C_5
REMARK    4  A    between atoms: C_9  and  C_10
REMARK                            x       y       z     vdW  Elec       q    Type
REMARK                         _______ _______ _______ _____ _____    ______ ____
ROOT
ATOM      1  C   UNL     1       1.137   8.392  20.277  0.00  0.00    +0.000 A 
ATOM      2  C   UNL     1       1.249   9.357  19.279  0.00  0.00    +0.000 A 
ATOM      3  C   UNL     1       2.041   9.130  18.151  0.00  0.00    +0.000 A 
ATOM      4  C   UNL     1       2.719   7.915  17.992  0.00  0.00    +0.000 A 
ATOM      5  C   UNL     1       2.604   6.905  18.965  0.00  0.00    +0.000 A 
ATOM      6  C   UNL     1       1.817   7.162  20.115  0.00  0.00    +0.000 A 
ENDROOT
BRANCH   5   7
ATOM      7  C   UNL     1       3.209   5.509  18.820  0.00  0.00    +0.000 C 
ATOM      8  C   UNL     1       3.379   4.840  17.414  0.00  0.00    +0.000 C 
ATOM      9  N   UNL     1       4.655   5.166  16.738  0.00  0.00    +0.000 NA
ATOM     10  C   UNL     1       4.856   4.241  15.588  0.00  0.00    +0.000 C 
ATOM     11  C   UNL     1       6.163   4.555  14.841  0.00  0.00    +0.000 C 
ATOM     12  C   UNL     1       7.353   4.491  15.801  0.00  0.00    +0.000 C 
ATOM     13  C   UNL     1       7.101   5.417  16.996  0.00  0.00    +0.000 C 
ATOM     14  C   UNL     1       5.782   5.007  17.683  0.00  0.00    +0.000 C 
ATOM     15  C   UNL     1       5.518   5.847  18.937  0.00  0.00    +0.000 C 
ATOM     16  O   UNL     1       4.375   5.363  19.615  0.00  0.00    +0.000 OA
ENDBRANCH   5   7
BRANCH   1  17
ATOM     17  O   UNL     1       0.346   8.682  21.350  0.00  0.00    +0.000 OA
BRANCH  17  19
ATOM     18  C   UNL     1      -0.472  10.173  23.141  0.00  0.00    +0.000 C 
ATOM     19  C   UNL     1       0.632   9.435  22.450  0.00  0.00    +0.000 C 
ATOM     20  O   UNL     1       1.786   9.571  22.839  0.00  0.00    +0.000 OA
ENDBRANCH  17  19
ENDBRANCH   1  17
TORSDOF 3
ENDMDL
MODEL 7
REMARK VINA RESULT:      -7.0      2.292      3.694
REMARK  Name = 
REMARK  4 active torsions:
REMARK  status: ('A' for Active; 'I' for Inactive)
REMARK    1  A    between atoms: C_1  and  C_2
REMARK    2  A    between atoms: C_2  and  O_4
REMARK    3  A    between atoms: O_4  and  C_5
REMARK    4  A    between atoms: C_9  and  C_10
REMARK                            x       y       z     vdW  Elec       q    Type
REMARK                         _______ _______ _______ _____ _____    ______ ____
ROOT
ATOM      1  C   UNL     1       6.883   4.738  17.072  0.00  0.00    +0.000 A 
ATOM      2  C   UNL     1       7.023   5.311  15.810  0.00  0.00    +0.000 A 
ATOM      3  C   UNL     1       6.059   5.104  14.820  0.00  0.00    +0.000 A 
ATOM      4  C   UNL     1       4.920   4.335  15.087  0.00  0.00    +0.000 A 
ATOM      5  C   UNL     1       4.729   3.768  16.361  0.00  0.00    +0.000 A 
ATOM      6  C   UNL     1       5.729   3.966  17.345  0.00  0.00    +0.000 A 
ENDROOT
BRANCH   5   7
ATOM      7  C   UNL     1       3.466   3.017  16.779  0.00  0.00    +0.000 C 
ATOM      8  C   UNL     1       3.432   2.144  18.080  0.00  0.00    +0.000 C 
ATOM      9  N   UNL     1       3.063   2.893  19.302  0.00  0.00    +0.000 NA
ATOM     10  C   UNL     1       2.746   1.932  20.395  0.00  0.00    +0.000 C 
ATOM     11  C   UNL     1       2.374   2.665  21.694  0.00  0.00    +0.000 C 
ATOM     12  C   UNL     1       1.199   3.616  21.452  0.00  0.00    +0.000 C 
ATOM     13  C   UNL     1       1.535   4.564  20.295  0.00  0.00    +0.000 C 
ATOM     14  C   UNL     1       1.872   3.731  19.042  0.00  0.00    +0.000 C 
ATOM     15  C   UNL     1       2.135   4.627  17.827  0.00  0.00    +0.000 C 
ATOM     16  O   UNL     1       2.313   3.836  16.668  0.00  0.00    +0.000 OA
ENDBRANCH   5   7
BRANCH   1  17
ATOM     17  O   UNL     1       7.862   4.983  17.989  0.00  0.00    +0.000 OA
BRANCH  17  19
ATOM     18  C   UNL     1       8.217   7.319  18.707  0.00  0.00    +0.000 C 
ATOM     19  C   UNL     1       7.881   5.892  19.006  0.00  0.00    +0.000 C 
ATOM     20  O   UNL     1       7.697   5.543  20.165  0.00  0.00    +0.000 OA
ENDBRANCH  17  19
ENDBRANCH   1  17
TORSDOF 3
ENDMDL
MODEL 8
REMARK VINA RESULT:      -6.9      3.768      7.269
REMARK  Name = 
REMARK  4 active torsions:
REMARK  status: ('A' for Active; 'I' for Inactive)
REMARK    1  A    between atoms: C_1  and  C_2
REMARK    2  A    between atoms: C_2  and  O_4
REMARK    3  A    between atoms: O_4  and  C_5
REMARK    4  A    between atoms: C_9  and  C_10
REMARK                            x       y       z     vdW  Elec       q    Type
REMARK                         _______ _______ _______ _____ _____    ______ ____
ROOT
ATOM      1  C   UNL     1       0.424   9.100  20.484  0.00  0.00    +0.000 A 
ATOM      2  C   UNL     1       0.274  10.044  19.472  0.00  0.00    +0.000 A 
ATOM      3  C   UNL     1       1.064   9.991  18.321  0.00  0.00    +0.000 A 
ATOM      4  C   UNL     1       2.007   8.970  18.154  0.00  0.00    +0.000 A 
ATOM      5  C   UNL     1       2.164   7.980  19.141  0.00  0.00    +0.000 A 
ATOM      6  C   UNL     1       1.372   8.064  20.313  0.00  0.00    +0.000 A 
ENDROOT
BRANCH   5   7
ATOM      7  C   UNL     1       3.080   6.765  18.992  0.00  0.00    +0.000 C 
ATOM      8  C   UNL     1       3.218   5.707  20.139  0.00  0.00    +0.000 C 
ATOM      9  N   UNL     1       2.217   4.618  20.082  0.00  0.00    +0.000 NA
ATOM     10  C   UNL     1       2.631   3.517  20.996  0.00  0.00    +0.000 C 
ATOM     11  C   UNL     1       1.609   2.368  20.985  0.00  0.00    +0.000 C 
ATOM     12  C   UNL     1       1.413   1.843  19.561  0.00  0.00    +0.000 C 
ATOM     13  C   UNL     1       1.031   3.002  18.633  0.00  0.00    +0.000 C 
ATOM     14  C   UNL     1       2.126   4.087  18.704  0.00  0.00    +0.000 C 
ATOM     15  C   UNL     1       1.840   5.237  17.733  0.00  0.00    +0.000 C 
ATOM     16  O   UNL     1       2.922   6.148  17.725  0.00  0.00    +0.000 OA
ENDBRANCH   5   7
BRANCH   1  17
ATOM     17  O   UNL     1      -0.381   9.213  21.579  0.00  0.00    +0.000 OA
BRANCH  17  19
ATOM     18  C   UNL     1      -1.098  11.116  22.981  0.00  0.00    +0.000 C 
ATOM     19  C   UNL     1      -0.196   9.953  22.710  0.00  0.00    +0.000 C 
ATOM     20  O   UNL     1       0.737   9.721  23.468  0.00  0.00    +0.000 OA
ENDBRANCH  17  19
ENDBRANCH   1  17
TORSDOF 3
ENDMDL
MODEL 9
REMARK VINA RESULT:      -6.8      1.220      1.429
REMARK  Name = 
REMARK  4 active torsions:
REMARK  status: ('A' for Active; 'I' for Inactive)
REMARK    1  A    between atoms: C_1  and  C_2
REMARK    2  A    between atoms: C_2  and  O_4
REMARK    3  A    between atoms: O_4  and  C_5
REMARK    4  A    between atoms: C_9  and  C_10
REMARK                            x       y       z     vdW  Elec       q    Type
REMARK                         _______ _______ _______ _____ _____    ______ ____
ROOT
ATOM      1  C   UNL     1       5.514   4.254  14.508  0.00  0.00    +0.000 A 
ATOM      2  C   UNL     1       6.880   4.510  14.412  0.00  0.00    +0.000 A 
ATOM      3  C   UNL     1       7.536   5.265  15.386  0.00  0.00    +0.000 A 
ATOM      4  C   UNL     1       6.836   5.761  16.492  0.00  0.00    +0.000 A 
ATOM      5  C   UNL     1       5.461   5.495  16.639  0.00  0.00    +0.000 A 
ATOM      6  C   UNL     1       4.806   4.749  15.628  0.00  0.00    +0.000 A 
ENDROOT
BRANCH   5   7
ATOM      7  C   UNL     1       4.643   5.892  17.867  0.00  0.00    +0.000 C 
ATOM      8  C   UNL     1       3.107   5.597  17.949  0.00  0.00    +0.000 C 
ATOM      9  N   UNL     1       2.775   4.262  18.497  0.00  0.00    +0.000 NA
ATOM     10  C   UNL     1       1.325   4.212  18.833  0.00  0.00    +0.000 C 
ATOM     11  C   UNL     1       0.927   2.834  19.389  0.00  0.00    +0.000 C 
ATOM     12  C   UNL     1       1.779   2.488  20.612  0.00  0.00    +0.000 C 
ATOM     13  C   UNL     1       3.265   2.591  20.251  0.00  0.00    +0.000 C 
ATOM     14  C   UNL     1       3.560   4.010  19.725  0.00  0.00    +0.000 C 
ATOM     15  C   UNL     1       5.050   4.199  19.425  0.00  0.00    +0.000 C 
ATOM     16  O   UNL     1       5.309   5.543  19.070  0.00  0.00    +0.000 OA
ENDBRANCH   5   7
BRANCH   1  17
ATOM     17  O   UNL     1       4.940   3.510  13.520  0.00  0.00    +0.000 OA
BRANCH  17  19
ATOM     18  C   UNL     1       4.307   3.359  11.137  0.00  0.00    +0.000 C 
ATOM     19  C   UNL     1       5.335   3.348  12.225  0.00  0.00    +0.000 C 
ATOM     20  O   UNL     1       6.507   3.125  11.947  0.00  0.00    +0.000 OA
ENDBRANCH  17  19
ENDBRANCH   1  17
TORSDOF 3
ENDMDL
