MODEL 1
REMARK VINA RESULT:      -6.9      0.000      0.000
REMARK  Name = 
REMARK  6 active torsions:
REMARK  status: ('A' for Active; 'I' for Inactive)
REMARK    1  A    between atoms: C_1  and  C_2
REMARK    2  A    between atoms: C_4  and  C_5
REMARK    3  A    between atoms: C_8  and  N_9
REMARK    4  A    between atoms: C_16  and  N_17
REMARK    5  A    between atoms: C_18  and  C_20
REMARK    6  A    between atoms: C_20  and  C_21
REMARK                            x       y       z     vdW  Elec       q    Type
REMARK                         _______ _______ _______ _____ _____    ______ ____
ROOT
ATOM      1  C   UNL     1      -0.250   9.872  22.987  0.00  0.00    +0.000 C 
ATOM      2  C   UNL     1       0.794   9.880  21.866  0.00  0.00    +0.000 C 
ATOM      3  O   UNL     1       1.265  11.195  21.537  0.00  0.00    +0.000 OA
ATOM      4  C   UNL     1       0.404  11.991  20.718  0.00  0.00    +0.000 C 
ATOM      5  O   UNL     1      -0.009  11.300  19.537  0.00  0.00    +0.000 OA
ATOM      6  C   UNL     1      -0.616  10.036  19.800  0.00  0.00    +0.000 C 
ATOM      7  C   UNL     1       0.289   9.130  20.626  0.00  0.00    +0.000 C 
ENDROOT
BRANCH   4   8
ATOM      8  C   UNL     1      -0.725  12.630  21.522  0.00  0.00    +0.000 A 
ATOM      9  C   UNL     1      -0.410  13.532  22.556  0.00  0.00    +0.000 A 
ATOM     10  C   UNL     1      -1.372  13.902  23.497  0.00  0.00    +0.000 A 
ATOM     11  C   UNL     1      -2.675  13.411  23.367  0.00  0.00    +0.000 A 
ATOM     12  C   UNL     1      -3.039  12.637  22.258  0.00  0.00    +0.000 A 
ATOM     13  C   UNL     1      -2.067  12.272  21.324  0.00  0.00    +0.000 A 
BRANCH  11  14
ATOM     14  N   UNL     1      -3.653  13.659  24.433  0.00  0.00    +0.000 N 
ATOM     15  O   UNL     1      -3.298  14.360  25.390  0.00  0.00    +0.000 OA
ATOM     16  O   UNL     1      -4.769  13.130  24.324  0.00  0.00    +0.000 OA
ENDBRANCH  11  14
ENDBRANCH   4   8
BRANCH   7  17
ATOM     17  N   UNL     1       1.404   8.652  19.808  0.00  0.00    +0.000 N 
ATOM     18  C   UNL     1       1.929   7.389  20.013  0.00  0.00    +0.000 C 
ATOM     19  O   UNL     1       1.480   6.614  20.854  0.00  0.00    +0.000 OA
ATOM     20  H   UNL     1       1.984   9.349  19.357  0.00  0.00    +0.000 HD
BRANCH  18  21
ATOM     21  C   UNL     1       3.072   7.024  19.094  0.00  0.00    +0.000 C 
BRANCH  21  22
ATOM     22  C   UNL     1       3.118   5.562  18.737  0.00  0.00    +0.000 A 
ATOM     23  C   UNL     1       2.130   4.994  17.921  0.00  0.00    +0.000 A 
ATOM     24  C   UNL     1       2.203   3.649  17.556  0.00  0.00    +0.000 A 
ATOM     25  C   UNL     1       3.264   2.862  17.994  0.00  0.00    +0.000 A 
ATOM     26  C   UNL     1       4.252   3.417  18.806  0.00  0.00    +0.000 A 
ATOM     27  C   UNL     1       4.180   4.760  19.177  0.00  0.00    +0.000 A 
ENDBRANCH  21  22
ENDBRANCH  18  21
ENDBRANCH   7  17
TORSDOF 5
ENDMDL
MODEL 2
REMARK VINA RESULT:      -6.9      4.299     10.675
REMARK  Name = 
REMARK  6 active torsions:
REMARK  status: ('A' for Active; 'I' for Inactive)
REMARK    1  A    between atoms: C_1  and  C_2
REMARK    2  A    between atoms: C_4  and  C_5
REMARK    3  A    between atoms: C_8  and  N_9
REMARK    4  A    between atoms: C_16  and  N_17
REMARK    5  A    between atoms: C_18  and  C_20
REMARK    6  A    between atoms: C_20  and  C_21
REMARK                            x       y       z     vdW  Elec       q    Type
REMARK                         _______ _______ _______ _____ _____    ______ ____
ROOT
ATOM      1  C   UNL     1       4.410   7.361  16.603  0.00  0.00    +0.000 C 
ATOM      2  C   UNL     1       4.066   7.005  18.052  0.00  0.00    +0.000 C 
ATOM      3  O   UNL     1       5.045   6.164  18.680  0.00  0.00    +0.000 OA
ATOM      4  C   UNL     1       4.995   4.774  18.346  0.00  0.00    +0.000 C 
ATOM      5  O   UNL     1       3.687   4.225  18.512  0.00  0.00    +0.000 OA
ATOM      6  C   UNL     1       2.676   4.935  17.798  0.00  0.00    +0.000 C 
ATOM      7  C   UNL     1       2.654   6.414  18.164  0.00  0.00    +0.000 C 
ENDROOT
BRANCH   4   8
ATOM      8  C   UNL     1       5.654   4.484  16.999  0.00  0.00    +0.000 A 
ATOM      9  C   UNL     1       6.985   4.885  16.781  0.00  0.00    +0.000 A 
ATOM     10  C   UNL     1       7.520   4.912  15.493  0.00  0.00    +0.000 A 
ATOM     11  C   UNL     1       6.734   4.477  14.421  0.00  0.00    +0.000 A 
ATOM     12  C   UNL     1       5.463   3.931  14.642  0.00  0.00    +0.000 A 
ATOM     13  C   UNL     1       4.938   3.912  15.936  0.00  0.00    +0.000 A 
BRANCH  11  14
ATOM     14  N   UNL     1       7.222   4.649  13.047  0.00  0.00    +0.000 N 
ATOM     15  O   UNL     1       6.825   3.848  12.190  0.00  0.00    +0.000 OA
ATOM     16  O   UNL     1       8.022   5.571  12.832  0.00  0.00    +0.000 OA
ENDBRANCH  11  14
ENDBRANCH   4   8
BRANCH   7  17
ATOM     17  N   UNL     1       2.112   6.591  19.511  0.00  0.00    +0.000 N 
ATOM     18  C   UNL     1       1.706   7.841  19.942  0.00  0.00    +0.000 C 
ATOM     19  O   UNL     1       1.755   8.837  19.223  0.00  0.00    +0.000 OA
ATOM     20  H   UNL     1       2.354   5.896  20.206  0.00  0.00    +0.000 HD
BRANCH  18  21
ATOM     21  C   UNL     1       1.162   7.878  21.352  0.00  0.00    +0.000 C 
BRANCH  21  22
ATOM     22  C   UNL     1       0.359   9.113  21.658  0.00  0.00    +0.000 A 
ATOM     23  C   UNL     1      -0.027   9.988  20.631  0.00  0.00    +0.000 A 
ATOM     24  C   UNL     1      -0.811  11.107  20.914  0.00  0.00    +0.000 A 
ATOM     25  C   UNL     1      -1.224  11.359  22.219  0.00  0.00    +0.000 A 
ATOM     26  C   UNL     1      -0.846  10.497  23.247  0.00  0.00    +0.000 A 
ATOM     27  C   UNL     1      -0.058   9.379  22.969  0.00  0.00    +0.000 A 
ENDBRANCH  21  22
ENDBRANCH  18  21
ENDBRANCH   7  17
TORSDOF 5
ENDMDL
MODEL 3
REMARK VINA RESULT:      -6.9      0.164      1.136
REMARK  Name = 
REMARK  6 active torsions:
REMARK  status: ('A' for Active; 'I' for Inactive)
REMARK    1  A    between atoms: C_1  and  C_2
REMARK    2  A    between atoms: C_4  and  C_5
REMARK    3  A    between atoms: C_8  and  N_9
REMARK    4  A    between atoms: C_16  and  N_17
REMARK    5  A    between atoms: C_18  and  C_20
REMARK    6  A    between atoms: C_20  and  C_21
REMARK                            x       y       z     vdW  Elec       q    Type
REMARK                         _______ _______ _______ _____ _____    ______ ____
ROOT
ATOM      1  C   UNL     1      -0.211  10.007  22.898  0.00  0.00    +0.000 C 
ATOM      2  C   UNL     1       0.798  10.001  21.747  0.00  0.00    +0.000 C 
ATOM      3  O   UNL     1       1.254  11.313  21.383  0.00  0.00    +0.000 OA
ATOM      4  C   UNL     1       0.366  12.093  20.578  0.00  0.00    +0.000 C 
ATOM      5  O   UNL     1      -0.079  11.383  19.421  0.00  0.00    +0.000 OA
ATOM      6  C   UNL     1      -0.674  10.121  19.721  0.00  0.00    +0.000 C 
ATOM      7  C   UNL     1       0.260   9.231  20.533  0.00  0.00    +0.000 C 
ENDROOT
BRANCH   4   8
ATOM      8  C   UNL     1      -0.741  12.741  21.407  0.00  0.00    +0.000 A 
ATOM      9  C   UNL     1      -0.396  13.589  22.475  0.00  0.00    +0.000 A 
ATOM     10  C   UNL     1      -1.346  13.956  23.430  0.00  0.00    +0.000 A 
ATOM     11  C   UNL     1      -2.666  13.518  23.279  0.00  0.00    +0.000 A 
ATOM     12  C   UNL     1      -3.056  12.802  22.140  0.00  0.00    +0.000 A 
ATOM     13  C   UNL     1      -2.095  12.439  21.194  0.00  0.00    +0.000 A 
BRANCH  11  14
ATOM     14  N   UNL     1      -3.637  13.759  24.353  0.00  0.00    +0.000 N 
ATOM     15  O   UNL     1      -4.774  13.285  24.220  0.00  0.00    +0.000 OA
ATOM     16  O   UNL     1      -3.269  14.444  25.319  0.00  0.00    +0.000 OA
ENDBRANCH  11  14
ENDBRANCH   4   8
BRANCH   7  17
ATOM     17  N   UNL     1       1.351   8.745  19.690  0.00  0.00    +0.000 N 
ATOM     18  C   UNL     1       1.914   7.504  19.923  0.00  0.00    +0.000 C 
ATOM     19  O   UNL     1       1.519   6.754  20.813  0.00  0.00    +0.000 OA
ATOM     20  H   UNL     1       1.896   9.435  19.187  0.00  0.00    +0.000 HD
BRANCH  18  21
ATOM     21  C   UNL     1       3.028   7.126  18.973  0.00  0.00    +0.000 C 
BRANCH  21  22
ATOM     22  C   UNL     1       3.112   5.649  18.696  0.00  0.00    +0.000 A 
ATOM     23  C   UNL     1       4.124   4.869  19.274  0.00  0.00    +0.000 A 
ATOM     24  C   UNL     1       4.170   3.493  19.052  0.00  0.00    +0.000 A 
ATOM     25  C   UNL     1       3.204   2.880  18.259  0.00  0.00    +0.000 A 
ATOM     26  C   UNL     1       2.192   3.645  17.680  0.00  0.00    +0.000 A 
ATOM     27  C   UNL     1       2.146   5.023  17.896  0.00  0.00    +0.000 A 
ENDBRANCH  21  22
ENDBRANCH  18  21
ENDBRANCH   7  17
TORSDOF 5
ENDMDL
MODEL 4
REMARK VINA RESULT:      -6.8      1.668      2.175
REMARK  Name = 
REMARK  6 active torsions:
REMARK  status: ('A' for Active; 'I' for Inactive)
REMARK    1  A    between atoms: C_1  and  C_2
REMARK    2  A    between atoms: C_4  and  C_5
REMARK    3  A    between atoms: C_8  and  N_9
REMARK    4  A    between atoms: C_16  and  N_17
REMARK    5  A    between atoms: C_18  and  C_20
REMARK    6  A    between atoms: C_20  and  C_21
REMARK                            x       y       z     vdW  Elec       q    Type
REMARK                         _______ _______ _______ _____ _____    ______ ____
ROOT
ATOM      1  C   UNL     1      -1.560  10.784  19.454  0.00  0.00    +0.000 C 
ATOM      2  C   UNL     1      -0.540   9.762  19.966  0.00  0.00    +0.000 C 
ATOM      3  O   UNL     1      -0.621   9.537  21.381  0.00  0.00    +0.000 OA
ATOM      4  C   UNL     1      -0.019  10.531  22.216  0.00  0.00    +0.000 C 
ATOM      5  O   UNL     1       1.328  10.815  21.833  0.00  0.00    +0.000 OA
ATOM      6  C   UNL     1       1.464  11.183  20.461  0.00  0.00    +0.000 C 
ATOM      7  C   UNL     1       0.885  10.126  19.528  0.00  0.00    +0.000 C 
ENDROOT
BRANCH   4   8
ATOM      8  C   UNL     1      -0.915  11.754  22.390  0.00  0.00    +0.000 A 
ATOM      9  C   UNL     1      -0.403  13.032  22.095  0.00  0.00    +0.000 A 
ATOM     10  C   UNL     1      -1.070  14.182  22.518  0.00  0.00    +0.000 A 
ATOM     11  C   UNL     1      -2.290  14.053  23.188  0.00  0.00    +0.000 A 
ATOM     12  C   UNL     1      -2.886  12.796  23.352  0.00  0.00    +0.000 A 
ATOM     13  C   UNL     1      -2.207  11.653  22.927  0.00  0.00    +0.000 A 
BRANCH  11  14
ATOM     14  N   UNL     1      -2.923  15.239  23.778  0.00  0.00    +0.000 N 
ATOM     15  O   UNL     1      -2.620  15.535  24.942  0.00  0.00    +0.000 OA
ATOM     16  O   UNL     1      -3.741  15.860  23.085  0.00  0.00    +0.000 OA
ENDBRANCH  11  14
ENDBRANCH   4   8
BRANCH   7  17
ATOM     17  N   UNL     1       1.749   8.946  19.508  0.00  0.00    +0.000 N 
ATOM     18  C   UNL     1       2.183   8.419  18.305  0.00  0.00    +0.000 C 
ATOM     19  O   UNL     1       1.892   8.918  17.220  0.00  0.00    +0.000 OA
ATOM     20  H   UNL     1       1.736   8.344  20.321  0.00  0.00    +0.000 HD
BRANCH  18  21
ATOM     21  C   UNL     1       3.073   7.203  18.432  0.00  0.00    +0.000 C 
BRANCH  21  22
ATOM     22  C   UNL     1       2.336   5.954  18.834  0.00  0.00    +0.000 A 
ATOM     23  C   UNL     1       1.953   5.008  17.872  0.00  0.00    +0.000 A 
ATOM     24  C   UNL     1       1.311   3.830  18.255  0.00  0.00    +0.000 A 
ATOM     25  C   UNL     1       1.054   3.581  19.600  0.00  0.00    +0.000 A 
ATOM     26  C   UNL     1       1.430   4.513  20.566  0.00  0.00    +0.000 A 
ATOM     27  C   UNL     1       2.068   5.695  20.185  0.00  0.00    +0.000 A 
ENDBRANCH  21  22
ENDBRANCH  18  21
ENDBRANCH   7  17
TORSDOF 5
ENDMDL
MODEL 5
REMARK VINA RESULT:      -6.7      0.672      1.606
REMARK  Name = 
REMARK  6 active torsions:
REMARK  status: ('A' for Active; 'I' for Inactive)
REMARK    1  A    between atoms: C_1  and  C_2
REMARK    2  A    between atoms: C_4  and  C_5
REMARK    3  A    between atoms: C_8  and  N_9
REMARK    4  A    between atoms: C_16  and  N_17
REMARK    5  A    between atoms: C_18  and  C_20
REMARK    6  A    between atoms: C_20  and  C_21
REMARK                            x       y       z     vdW  Elec       q    Type
REMARK                         _______ _______ _______ _____ _____    ______ ____
ROOT
ATOM      1  C   UNL     1      -0.193   9.775  23.163  0.00  0.00    +0.000 C 
ATOM      2  C   UNL     1       0.757   9.899  21.968  0.00  0.00    +0.000 C 
ATOM      3  O   UNL     1       1.095  11.257  21.649  0.00  0.00    +0.000 OA
ATOM      4  C   UNL     1       0.112  12.001  20.922  0.00  0.00    +0.000 C 
ATOM      5  O   UNL     1      -0.333  11.310  19.753  0.00  0.00    +0.000 OA
ATOM      6  C   UNL     1      -0.815   9.994  20.019  0.00  0.00    +0.000 C 
ATOM      7  C   UNL     1       0.221   9.144  20.744  0.00  0.00    +0.000 C 
ENDROOT
BRANCH   4   8
ATOM      8  C   UNL     1      -0.999  12.523  21.829  0.00  0.00    +0.000 A 
ATOM      9  C   UNL     1      -2.341  12.266  21.493  0.00  0.00    +0.000 A 
ATOM     10  C   UNL     1      -3.378  12.965  22.113  0.00  0.00    +0.000 A 
ATOM     11  C   UNL     1      -3.071  13.885  23.121  0.00  0.00    +0.000 A 
ATOM     12  C   UNL     1      -1.753  14.038  23.571  0.00  0.00    +0.000 A 
ATOM     13  C   UNL     1      -0.725  13.334  22.940  0.00  0.00    +0.000 A 
BRANCH  11  14
ATOM     14  N   UNL     1      -4.129  14.742  23.668  0.00  0.00    +0.000 N 
ATOM     15  O   UNL     1      -5.209  14.783  23.062  0.00  0.00    +0.000 OA
ATOM     16  O   UNL     1      -3.871  15.393  24.691  0.00  0.00    +0.000 OA
ENDBRANCH  11  14
ENDBRANCH   4   8
BRANCH   7  17
ATOM     17  N   UNL     1       1.304   8.782  19.831  0.00  0.00    +0.000 N 
ATOM     18  C   UNL     1       1.900   7.537  19.912  0.00  0.00    +0.000 C 
ATOM     19  O   UNL     1       1.541   6.683  20.720  0.00  0.00    +0.000 OA
ATOM     20  H   UNL     1       1.822   9.537  19.398  0.00  0.00    +0.000 HD
BRANCH  18  21
ATOM     21  C   UNL     1       3.000   7.296  18.904  0.00  0.00    +0.000 C 
BRANCH  21  22
ATOM     22  C   UNL     1       3.270   5.838  18.641  0.00  0.00    +0.000 A 
ATOM     23  C   UNL     1       4.394   5.207  19.193  0.00  0.00    +0.000 A 
ATOM     24  C   UNL     1       4.614   3.845  18.984  0.00  0.00    +0.000 A 
ATOM     25  C   UNL     1       3.712   3.099  18.231  0.00  0.00    +0.000 A 
ATOM     26  C   UNL     1       2.591   3.716  17.677  0.00  0.00    +0.000 A 
ATOM     27  C   UNL     1       2.371   5.079  17.880  0.00  0.00    +0.000 A 
ENDBRANCH  21  22
ENDBRANCH  18  21
ENDBRANCH   7  17
TORSDOF 5
ENDMDL
MODEL 6
REMARK VINA RESULT:      -6.7      1.859      2.428
REMARK  Name = 
REMARK  6 active torsions:
REMARK  status: ('A' for Active; 'I' for Inactive)
REMARK    1  A    between atoms: C_1  and  C_2
REMARK    2  A    between atoms: C_4  and  C_5
REMARK    3  A    between atoms: C_8  and  N_9
REMARK    4  A    between atoms: C_16  and  N_17
REMARK    5  A    between atoms: C_18  and  C_20
REMARK    6  A    between atoms: C_20  and  C_21
REMARK                            x       y       z     vdW  Elec       q    Type
REMARK                         _______ _______ _______ _____ _____    ______ ____
ROOT
ATOM      1  C   UNL     1      -1.622  10.703  19.521  0.00  0.00    +0.000 C 
ATOM      2  C   UNL     1      -0.579   9.699  20.019  0.00  0.00    +0.000 C 
ATOM      3  O   UNL     1      -0.569   9.549  21.446  0.00  0.00    +0.000 OA
ATOM      4  C   UNL     1       0.093  10.579  22.187  0.00  0.00    +0.000 C 
ATOM      5  O   UNL     1       1.414  10.828  21.704  0.00  0.00    +0.000 OA
ATOM      6  C   UNL     1       1.463  11.122  20.308  0.00  0.00    +0.000 C 
ATOM      7  C   UNL     1       0.818  10.024  19.472  0.00  0.00    +0.000 C 
ENDROOT
BRANCH   4   8
ATOM      8  C   UNL     1      -0.781  11.819  22.354  0.00  0.00    +0.000 A 
ATOM      9  C   UNL     1      -2.037  11.699  22.978  0.00  0.00    +0.000 A 
ATOM     10  C   UNL     1      -2.980  12.724  22.884  0.00  0.00    +0.000 A 
ATOM     11  C   UNL     1      -2.641  13.901  22.211  0.00  0.00    +0.000 A 
ATOM     12  C   UNL     1      -1.344  14.095  21.719  0.00  0.00    +0.000 A 
ATOM     13  C   UNL     1      -0.410  13.061  21.817  0.00  0.00    +0.000 A 
BRANCH  11  14
ATOM     14  N   UNL     1      -3.670  14.919  21.965  0.00  0.00    +0.000 N 
ATOM     15  O   UNL     1      -3.852  15.778  22.838  0.00  0.00    +0.000 OA
ATOM     16  O   UNL     1      -4.314  14.842  20.908  0.00  0.00    +0.000 OA
ENDBRANCH  11  14
ENDBRANCH   4   8
BRANCH   7  17
ATOM     17  N   UNL     1       1.669   8.835  19.458  0.00  0.00    +0.000 N 
ATOM     18  C   UNL     1       2.252   8.407  18.279  0.00  0.00    +0.000 C 
ATOM     19  O   UNL     1       2.107   9.004  17.214  0.00  0.00    +0.000 OA
ATOM     20  H   UNL     1       1.548   8.165  20.207  0.00  0.00    +0.000 HD
BRANCH  18  21
ATOM     21  C   UNL     1       3.111   7.170  18.412  0.00  0.00    +0.000 C 
BRANCH  21  22
ATOM     22  C   UNL     1       2.345   5.946  18.837  0.00  0.00    +0.000 A 
ATOM     23  C   UNL     1       1.982   4.968  17.899  0.00  0.00    +0.000 A 
ATOM     24  C   UNL     1       1.313   3.813  18.306  0.00  0.00    +0.000 A 
ATOM     25  C   UNL     1       1.009   3.618  19.650  0.00  0.00    +0.000 A 
ATOM     26  C   UNL     1       1.365   4.583  20.591  0.00  0.00    +0.000 A 
ATOM     27  C   UNL     1       2.030   5.742  20.187  0.00  0.00    +0.000 A 
ENDBRANCH  21  22
ENDBRANCH  18  21
ENDBRANCH   7  17
TORSDOF 5
ENDMDL
MODEL 7
REMARK VINA RESULT:      -6.6      1.636      2.456
REMARK  Name = 
REMARK  6 active torsions:
REMARK  status: ('A' for Active; 'I' for Inactive)
REMARK    1  A    between atoms: C_1  and  C_2
REMARK    2  A    between atoms: C_4  and  C_5
REMARK    3  A    between atoms: C_8  and  N_9
REMARK    4  A    between atoms: C_16  and  N_17
REMARK    5  A    between atoms: C_18  and  C_20
REMARK    6  A    between atoms: C_20  and  C_21
REMARK                            x       y       z     vdW  Elec       q    Type
REMARK                         _______ _______ _______ _____ _____    ______ ____
ROOT
ATOM      1  C   UNL     1      -1.888  11.593  19.499  0.00  0.00    +0.000 C 
ATOM      2  C   UNL     1      -0.684  10.677  19.735  0.00  0.00    +0.000 C 
ATOM      3  O   UNL     1      -0.573  10.219  21.090  0.00  0.00    +0.000 OA
ATOM      4  C   UNL     1      -0.028  11.149  22.031  0.00  0.00    +0.000 C 
ATOM      5  O   UNL     1       1.214  11.700  21.588  0.00  0.00    +0.000 OA
ATOM      6  C   UNL     1       1.143  12.299  20.295  0.00  0.00    +0.000 C 
ATOM      7  C   UNL     1       0.618  11.327  19.246  0.00  0.00    +0.000 C 
ENDROOT
BRANCH   4   8
ATOM      8  C   UNL     1      -1.062  12.173  22.493  0.00  0.00    +0.000 A 
ATOM      9  C   UNL     1      -0.720  13.537  22.516  0.00  0.00    +0.000 A 
ATOM     10  C   UNL     1      -1.511  14.460  23.202  0.00  0.00    +0.000 A 
ATOM     11  C   UNL     1      -2.687  14.021  23.819  0.00  0.00    +0.000 A 
ATOM     12  C   UNL     1      -3.119  12.696  23.674  0.00  0.00    +0.000 A 
ATOM     13  C   UNL     1      -2.316  11.783  22.987  0.00  0.00    +0.000 A 
BRANCH  11  14
ATOM     14  N   UNL     1      -3.443  14.942  24.676  0.00  0.00    +0.000 N 
ATOM     15  O   UNL     1      -4.506  15.400  24.234  0.00  0.00    +0.000 OA
ATOM     16  O   UNL     1      -2.961  15.226  25.782  0.00  0.00    +0.000 OA
ENDBRANCH  11  14
ENDBRANCH   4   8
BRANCH   7  17
ATOM     17  N   UNL     1       1.631  10.316  18.945  0.00  0.00    +0.000 N 
ATOM     18  C   UNL     1       1.363   9.307  18.037  0.00  0.00    +0.000 C 
ATOM     19  O   UNL     1       0.295   9.225  17.435  0.00  0.00    +0.000 OA
ATOM     20  H   UNL     1       2.360  10.166  19.631  0.00  0.00    +0.000 HD
BRANCH  18  21
ATOM     21  C   UNL     1       2.501   8.336  17.818  0.00  0.00    +0.000 C 
BRANCH  21  22
ATOM     22  C   UNL     1       2.332   7.032  18.550  0.00  0.00    +0.000 A 
ATOM     23  C   UNL     1       2.091   7.013  19.931  0.00  0.00    +0.000 A 
ATOM     24  C   UNL     1       1.889   5.803  20.597  0.00  0.00    +0.000 A 
ATOM     25  C   UNL     1       1.917   4.604  19.891  0.00  0.00    +0.000 A 
ATOM     26  C   UNL     1       2.156   4.611  18.517  0.00  0.00    +0.000 A 
ATOM     27  C   UNL     1       2.363   5.818  17.849  0.00  0.00    +0.000 A 
ENDBRANCH  21  22
ENDBRANCH  18  21
ENDBRANCH   7  17
TORSDOF 5
ENDMDL
MODEL 8
REMARK VINA RESULT:      -6.6      1.890      2.590
REMARK  Name = 
REMARK  6 active torsions:
REMARK  status: ('A' for Active; 'I' for Inactive)
REMARK    1  A    between atoms: C_1  and  C_2
REMARK    2  A    between atoms: C_4  and  C_5
REMARK    3  A    between atoms: C_8  and  N_9
REMARK    4  A    between atoms: C_16  and  N_17
REMARK    5  A    between atoms: C_18  and  C_20
REMARK    6  A    between atoms: C_20  and  C_21
REMARK                            x       y       z     vdW  Elec       q    Type
REMARK                         _______ _______ _______ _____ _____    ______ ____
ROOT
ATOM      1  C   UNL     1      -1.695  10.622  19.445  0.00  0.00    +0.000 C 
ATOM      2  C   UNL     1      -0.613   9.678  19.979  0.00  0.00    +0.000 C 
ATOM      3  O   UNL     1      -0.601   9.577  21.410  0.00  0.00    +0.000 OA
ATOM      4  C   UNL     1       0.017  10.657  22.117  0.00  0.00    +0.000 C 
ATOM      5  O   UNL     1       1.328  10.944  21.627  0.00  0.00    +0.000 OA
ATOM      6  C   UNL     1       1.369  11.194  20.222  0.00  0.00    +0.000 C 
ATOM      7  C   UNL     1       0.771  10.043  19.423  0.00  0.00    +0.000 C 
ENDROOT
BRANCH   4   8
ATOM      8  C   UNL     1      -0.908  11.866  22.241  0.00  0.00    +0.000 A 
ATOM      9  C   UNL     1      -2.157  11.717  22.872  0.00  0.00    +0.000 A 
ATOM     10  C   UNL     1      -3.142  12.697  22.743  0.00  0.00    +0.000 A 
ATOM     11  C   UNL     1      -2.853  13.862  22.027  0.00  0.00    +0.000 A 
ATOM     12  C   UNL     1      -1.566  14.091  21.525  0.00  0.00    +0.000 A 
ATOM     13  C   UNL     1      -0.589  13.101  21.658  0.00  0.00    +0.000 A 
BRANCH  11  14
ATOM     14  N   UNL     1      -3.924  14.826  21.747  0.00  0.00    +0.000 N 
ATOM     15  O   UNL     1      -5.080  14.512  22.061  0.00  0.00    +0.000 OA
ATOM     16  O   UNL     1      -3.611  15.888  21.188  0.00  0.00    +0.000 OA
ENDBRANCH  11  14
ENDBRANCH   4   8
BRANCH   7  17
ATOM     17  N   UNL     1       1.671   8.890  19.450  0.00  0.00    +0.000 N 
ATOM     18  C   UNL     1       2.222   8.406  18.278  0.00  0.00    +0.000 C 
ATOM     19  O   UNL     1       2.008   8.923  17.183  0.00  0.00    +0.000 OA
ATOM     20  H   UNL     1       1.609   8.268  20.247  0.00  0.00    +0.000 HD
BRANCH  18  21
ATOM     21  C   UNL     1       3.137   7.216  18.454  0.00  0.00    +0.000 C 
BRANCH  21  22
ATOM     22  C   UNL     1       2.421   5.960  18.874  0.00  0.00    +0.000 A 
ATOM     23  C   UNL     1       2.093   5.740  20.219  0.00  0.00    +0.000 A 
ATOM     24  C   UNL     1       1.388   4.596  20.597  0.00  0.00    +0.000 A 
ATOM     25  C   UNL     1       0.997   3.667  19.636  0.00  0.00    +0.000 A 
ATOM     26  C   UNL     1       1.318   3.876  18.296  0.00  0.00    +0.000 A 
ATOM     27  C   UNL     1       2.027   5.016  17.915  0.00  0.00    +0.000 A 
ENDBRANCH  21  22
ENDBRANCH  18  21
ENDBRANCH   7  17
TORSDOF 5
ENDMDL
MODEL 9
REMARK VINA RESULT:      -6.6      0.875      1.431
REMARK  Name = 
REMARK  6 active torsions:
REMARK  status: ('A' for Active; 'I' for Inactive)
REMARK    1  A    between atoms: C_1  and  C_2
REMARK    2  A    between atoms: C_4  and  C_5
REMARK    3  A    between atoms: C_8  and  N_9
REMARK    4  A    between atoms: C_16  and  N_17
REMARK    5  A    between atoms: C_18  and  C_20
REMARK    6  A    between atoms: C_20  and  C_21
REMARK                            x       y       z     vdW  Elec       q    Type
REMARK                         _______ _______ _______ _____ _____    ______ ____
ROOT
ATOM      1  C   UNL     1      -0.068   9.876  22.901  0.00  0.00    +0.000 C 
ATOM      2  C   UNL     1       0.762  10.078  21.630  0.00  0.00    +0.000 C 
ATOM      3  O   UNL     1       1.049  11.456  21.351  0.00  0.00    +0.000 OA
ATOM      4  C   UNL     1      -0.009  12.218  20.761  0.00  0.00    +0.000 C 
ATOM      5  O   UNL     1      -0.555  11.579  19.606  0.00  0.00    +0.000 OA
ATOM      6  C   UNL     1      -0.992  10.242  19.847  0.00  0.00    +0.000 C 
ATOM      7  C   UNL     1       0.120   9.376  20.425  0.00  0.00    +0.000 C 
ENDROOT
BRANCH   4   8
ATOM      8  C   UNL     1      -1.035  12.673  21.796  0.00  0.00    +0.000 A 
ATOM      9  C   UNL     1      -2.402  12.430  21.565  0.00  0.00    +0.000 A 
ATOM     10  C   UNL     1      -3.379  13.081  22.319  0.00  0.00    +0.000 A 
ATOM     11  C   UNL     1      -2.983  13.935  23.353  0.00  0.00    +0.000 A 
ATOM     12  C   UNL     1      -1.631  14.066  23.694  0.00  0.00    +0.000 A 
ATOM     13  C   UNL     1      -0.663  13.411  22.929  0.00  0.00    +0.000 A 
BRANCH  11  14
ATOM     14  N   UNL     1      -3.989  14.748  24.048  0.00  0.00    +0.000 N 
ATOM     15  O   UNL     1      -5.176  14.595  23.727  0.00  0.00    +0.000 OA
ATOM     16  O   UNL     1      -3.588  15.557  24.897  0.00  0.00    +0.000 OA
ENDBRANCH  11  14
ENDBRANCH   4   8
BRANCH   7  17
ATOM     17  N   UNL     1       1.115   9.081  19.395  0.00  0.00    +0.000 N 
ATOM     18  C   UNL     1       1.909   7.953  19.494  0.00  0.00    +0.000 C 
ATOM     19  O   UNL     1       1.804   7.148  20.417  0.00  0.00    +0.000 OA
ATOM     20  H   UNL     1       1.442   9.852  18.827  0.00  0.00    +0.000 HD
BRANCH  18  21
ATOM     21  C   UNL     1       2.890   7.768  18.358  0.00  0.00    +0.000 C 
BRANCH  21  22
ATOM     22  C   UNL     1       3.194   6.327  18.050  0.00  0.00    +0.000 A 
ATOM     23  C   UNL     1       2.158   5.395  17.891  0.00  0.00    +0.000 A 
ATOM     24  C   UNL     1       2.444   4.070  17.560  0.00  0.00    +0.000 A 
ATOM     25  C   UNL     1       3.763   3.664  17.377  0.00  0.00    +0.000 A 
ATOM     26  C   UNL     1       4.801   4.582  17.533  0.00  0.00    +0.000 A 
ATOM     27  C   UNL     1       4.519   5.907  17.868  0.00  0.00    +0.000 A 
ENDBRANCH  21  22
ENDBRANCH  18  21
ENDBRANCH   7  17
TORSDOF 5
ENDMDL
