MODEL 1
REMARK VINA RESULT:      -7.0      0.000      0.000
REMARK  Name = 
REMARK  4 active torsions:
REMARK  status: ('A' for Active; 'I' for Inactive)
REMARK    1  A    between atoms: C_1  and  C_2
REMARK    2  A    between atoms: C_4  and  C_5
REMARK    3  A    between atoms: C_14  and  C_15
REMARK    4  A    between atoms: C_15  and  O_17
REMARK                            x       y       z     vdW  Elec       q    Type
REMARK                         _______ _______ _______ _____ _____    ______ ____
ROOT
ATOM      1  C   UNL     1       1.954   2.993  21.232  0.00  0.00    +0.000 C 
ATOM      2  C   UNL     1       2.746   3.908  20.341  0.00  0.00    +0.000 A 
ATOM      3  N   UNL     1       2.241   5.170  20.229  0.00  0.00    +0.000 NA
ATOM      4  C   UNL     1       2.857   6.069  19.422  0.00  0.00    +0.000 A 
ATOM      5  C   UNL     1       4.014   5.732  18.729  0.00  0.00    +0.000 A 
ATOM      6  C   UNL     1       4.534   4.442  18.842  0.00  0.00    +0.000 A 
ATOM      7  C   UNL     1       3.905   3.507  19.669  0.00  0.00    +0.000 A 
ENDROOT
BRANCH   4   8
ATOM      8  C   UNL     1       2.214   7.396  19.316  0.00  0.00    +0.000 A 
ATOM      9  C   UNL     1       2.226   8.112  18.104  0.00  0.00    +0.000 A 
ATOM     10  C   UNL     1       1.623   9.370  17.990  0.00  0.00    +0.000 A 
ATOM     11  C   UNL     1       0.999   9.938  19.097  0.00  0.00    +0.000 A 
ATOM     12 BR   UNL     1       0.184  11.637  18.954  0.00  0.00    +0.000 Br
ATOM     13  C   UNL     1       0.979   9.263  20.312  0.00  0.00    +0.000 A 
ATOM     14  C   UNL     1       1.584   8.005  20.419  0.00  0.00    +0.000 A 
ENDBRANCH   4   8
BRANCH   7  15
ATOM     15  C   UNL     1       4.431   2.123  19.775  0.00  0.00    +0.000 C 
ATOM     16  O   UNL     1       5.140   1.736  20.689  0.00  0.00    +0.000 OA
BRANCH  15  17
ATOM     17  O   UNL     1       4.059   1.309  18.760  0.00  0.00    +0.000 OA
ATOM     18  H   UNL     1       3.755   0.418  19.009  0.00  0.00    +0.000 HD
ENDBRANCH  15  17
ENDBRANCH   7  15
TORSDOF 3
ENDMDL
MODEL 2
REMARK VINA RESULT:      -7.0      0.098      1.172
REMARK  Name = 
REMARK  4 active torsions:
REMARK  status: ('A' for Active; 'I' for Inactive)
REMARK    1  A    between atoms: C_1  and  C_2
REMARK    2  A    between atoms: C_4  and  C_5
REMARK    3  A    between atoms: C_14  and  C_15
REMARK    4  A    between atoms: C_15  and  O_17
REMARK                            x       y       z     vdW  Elec       q    Type
REMARK                         _______ _______ _______ _____ _____    ______ ____
ROOT
ATOM      1  C   UNL     1       1.806   2.907  20.995  0.00  0.00    +0.000 C 
ATOM      2  C   UNL     1       2.680   3.862  20.232  0.00  0.00    +0.000 A 
ATOM      3  N   UNL     1       2.180   5.126  20.122  0.00  0.00    +0.000 NA
ATOM      4  C   UNL     1       2.870   6.060  19.423  0.00  0.00    +0.000 A 
ATOM      5  C   UNL     1       4.097   5.757  18.842  0.00  0.00    +0.000 A 
ATOM      6  C   UNL     1       4.611   4.465  18.954  0.00  0.00    +0.000 A 
ATOM      7  C   UNL     1       3.906   3.493  19.670  0.00  0.00    +0.000 A 
ENDROOT
BRANCH   4   8
ATOM      8  C   UNL     1       2.232   7.388  19.306  0.00  0.00    +0.000 A 
ATOM      9  C   UNL     1       1.589   7.984  20.408  0.00  0.00    +0.000 A 
ATOM     10  C   UNL     1       0.980   9.241  20.310  0.00  0.00    +0.000 A 
ATOM     11  C   UNL     1       0.999   9.923  19.097  0.00  0.00    +0.000 A 
ATOM     12 BR   UNL     1       0.178  11.618  18.954  0.00  0.00    +0.000 Br
ATOM     13  C   UNL     1       1.616   9.359  17.986  0.00  0.00    +0.000 A 
ATOM     14  C   UNL     1       2.224   8.102  18.091  0.00  0.00    +0.000 A 
ENDBRANCH   4   8
BRANCH   7  15
ATOM     15  C   UNL     1       4.428   2.108  19.772  0.00  0.00    +0.000 C 
ATOM     16  O   UNL     1       5.126   1.714  20.691  0.00  0.00    +0.000 OA
BRANCH  15  17
ATOM     17  O   UNL     1       4.067   1.302  18.748  0.00  0.00    +0.000 OA
ATOM     18  H   UNL     1       3.718   0.425  18.988  0.00  0.00    +0.000 HD
ENDBRANCH  15  17
ENDBRANCH   7  15
TORSDOF 3
ENDMDL
MODEL 3
REMARK VINA RESULT:      -6.8      0.735      2.044
REMARK  Name = 
REMARK  4 active torsions:
REMARK  status: ('A' for Active; 'I' for Inactive)
REMARK    1  A    between atoms: C_1  and  C_2
REMARK    2  A    between atoms: C_4  and  C_5
REMARK    3  A    between atoms: C_14  and  C_15
REMARK    4  A    between atoms: C_15  and  O_17
REMARK                            x       y       z     vdW  Elec       q    Type
REMARK                         _______ _______ _______ _____ _____    ______ ____
ROOT
ATOM      1  C   UNL     1       5.815   4.573  18.627  0.00  0.00    +0.000 C 
ATOM      2  C   UNL     1       4.414   4.644  19.166  0.00  0.00    +0.000 A 
ATOM      3  N   UNL     1       3.837   5.878  19.090  0.00  0.00    +0.000 NA
ATOM      4  C   UNL     1       2.587   6.065  19.580  0.00  0.00    +0.000 A 
ATOM      5  C   UNL     1       1.871   5.009  20.131  0.00  0.00    +0.000 A 
ATOM      6  C   UNL     1       2.457   3.745  20.209  0.00  0.00    +0.000 A 
ATOM      7  C   UNL     1       3.747   3.542  19.710  0.00  0.00    +0.000 A 
ENDROOT
BRANCH   4   8
ATOM      8  C   UNL     1       2.059   7.443  19.507  0.00  0.00    +0.000 A 
ATOM      9  C   UNL     1       1.472   8.055  20.632  0.00  0.00    +0.000 A 
ATOM     10  C   UNL     1       0.966   9.359  20.577  0.00  0.00    +0.000 A 
ATOM     11  C   UNL     1       1.035  10.075  19.385  0.00  0.00    +0.000 A 
ATOM     12 BR   UNL     1       0.353  11.835  19.300  0.00  0.00    +0.000 Br
ATOM     13  C   UNL     1       1.598   9.497  18.253  0.00  0.00    +0.000 A 
ATOM     14  C   UNL     1       2.102   8.193  18.315  0.00  0.00    +0.000 A 
ENDBRANCH   4   8
BRANCH   7  15
ATOM     15  C   UNL     1       4.392   2.211  19.813  0.00  0.00    +0.000 C 
ATOM     16  O   UNL     1       5.070   1.859  20.764  0.00  0.00    +0.000 OA
BRANCH  15  17
ATOM     17  O   UNL     1       4.171   1.402  18.752  0.00  0.00    +0.000 OA
ATOM     18  H   UNL     1       3.952   1.842  17.910  0.00  0.00    +0.000 HD
ENDBRANCH  15  17
ENDBRANCH   7  15
TORSDOF 3
ENDMDL
MODEL 4
REMARK VINA RESULT:      -6.8      0.949      2.233
REMARK  Name = 
REMARK  4 active torsions:
REMARK  status: ('A' for Active; 'I' for Inactive)
REMARK    1  A    between atoms: C_1  and  C_2
REMARK    2  A    between atoms: C_4  and  C_5
REMARK    3  A    between atoms: C_14  and  C_15
REMARK    4  A    between atoms: C_15  and  O_17
REMARK                            x       y       z     vdW  Elec       q    Type
REMARK                         _______ _______ _______ _____ _____    ______ ____
ROOT
ATOM      1  C   UNL     1       4.501   4.064  16.917  0.00  0.00    +0.000 C 
ATOM      2  C   UNL     1       3.702   4.429  18.136  0.00  0.00    +0.000 A 
ATOM      3  N   UNL     1       3.219   5.705  18.139  0.00  0.00    +0.000 NA
ATOM      4  C   UNL     1       2.513   6.152  19.206  0.00  0.00    +0.000 A 
ATOM      5  C   UNL     1       2.248   5.318  20.288  0.00  0.00    +0.000 A 
ATOM      6  C   UNL     1       2.739   4.012  20.287  0.00  0.00    +0.000 A 
ATOM      7  C   UNL     1       3.470   3.542  19.193  0.00  0.00    +0.000 A 
ENDROOT
BRANCH   4   8
ATOM      8  C   UNL     1       2.074   7.562  19.152  0.00  0.00    +0.000 A 
ATOM      9  C   UNL     1       1.468   8.176  20.265  0.00  0.00    +0.000 A 
ATOM     10  C   UNL     1       1.046   9.510  20.227  0.00  0.00    +0.000 A 
ATOM     11  C   UNL     1       1.220  10.254  19.064  0.00  0.00    +0.000 A 
ATOM     12 BR   UNL     1       0.651  12.055  19.001  0.00  0.00    +0.000 Br
ATOM     13  C   UNL     1       1.804   9.675  17.943  0.00  0.00    +0.000 A 
ATOM     14  C   UNL     1       2.224   8.341  17.988  0.00  0.00    +0.000 A 
ENDBRANCH   4   8
BRANCH   7  15
ATOM     15  C   UNL     1       4.023   2.165  19.193  0.00  0.00    +0.000 C 
ATOM     16  O   UNL     1       3.544   1.243  18.555  0.00  0.00    +0.000 OA
BRANCH  15  17
ATOM     17  O   UNL     1       5.118   2.007  19.972  0.00  0.00    +0.000 OA
ATOM     18  H   UNL     1       4.962   1.947  20.932  0.00  0.00    +0.000 HD
ENDBRANCH  15  17
ENDBRANCH   7  15
TORSDOF 3
ENDMDL
MODEL 5
REMARK VINA RESULT:      -6.7      0.701      1.005
REMARK  Name = 
REMARK  4 active torsions:
REMARK  status: ('A' for Active; 'I' for Inactive)
REMARK    1  A    between atoms: C_1  and  C_2
REMARK    2  A    between atoms: C_4  and  C_5
REMARK    3  A    between atoms: C_14  and  C_15
REMARK    4  A    between atoms: C_15  and  O_17
REMARK                            x       y       z     vdW  Elec       q    Type
REMARK                         _______ _______ _______ _____ _____    ______ ____
ROOT
ATOM      1  C   UNL     1       2.242   3.682  21.437  0.00  0.00    +0.000 C 
ATOM      2  C   UNL     1       2.707   4.440  20.225  0.00  0.00    +0.000 A 
ATOM      3  N   UNL     1       2.283   5.735  20.167  0.00  0.00    +0.000 NA
ATOM      4  C   UNL     1       2.615   6.501  19.099  0.00  0.00    +0.000 A 
ATOM      5  C   UNL     1       3.408   5.995  18.075  0.00  0.00    +0.000 A 
ATOM      6  C   UNL     1       3.844   4.671  18.132  0.00  0.00    +0.000 A 
ATOM      7  C   UNL     1       3.506   3.872  19.228  0.00  0.00    +0.000 A 
ENDROOT
BRANCH   4   8
ATOM      8  C   UNL     1       2.069   7.875  19.088  0.00  0.00    +0.000 A 
ATOM      9  C   UNL     1       2.185   8.692  17.947  0.00  0.00    +0.000 A 
ATOM     10  C   UNL     1       1.674   9.996  17.924  0.00  0.00    +0.000 A 
ATOM     11  C   UNL     1       1.040  10.507  19.052  0.00  0.00    +0.000 A 
ATOM     12 BR   UNL     1       0.350  12.265  19.033  0.00  0.00    +0.000 Br
ATOM     13  C   UNL     1       0.919   9.730  20.200  0.00  0.00    +0.000 A 
ATOM     14  C   UNL     1       1.432   8.428  20.216  0.00  0.00    +0.000 A 
ENDBRANCH   4   8
BRANCH   7  15
ATOM     15  C   UNL     1       3.939   2.454  19.286  0.00  0.00    +0.000 C 
ATOM     16  O   UNL     1       3.298   1.530  18.814  0.00  0.00    +0.000 OA
BRANCH  15  17
ATOM     17  O   UNL     1       5.119   2.260  19.919  0.00  0.00    +0.000 OA
ATOM     18  H   UNL     1       5.100   2.298  20.892  0.00  0.00    +0.000 HD
ENDBRANCH  15  17
ENDBRANCH   7  15
TORSDOF 3
ENDMDL
MODEL 6
REMARK VINA RESULT:      -6.6      4.042      5.738
REMARK  Name = 
REMARK  4 active torsions:
REMARK  status: ('A' for Active; 'I' for Inactive)
REMARK    1  A    between atoms: C_1  and  C_2
REMARK    2  A    between atoms: C_4  and  C_5
REMARK    3  A    between atoms: C_14  and  C_15
REMARK    4  A    between atoms: C_15  and  O_17
REMARK                            x       y       z     vdW  Elec       q    Type
REMARK                         _______ _______ _______ _____ _____    ______ ____
ROOT
ATOM      1  C   UNL     1       2.295   5.930  19.997  0.00  0.00    +0.000 C 
ATOM      2  C   UNL     1       2.941   4.695  19.435  0.00  0.00    +0.000 A 
ATOM      3  N   UNL     1       3.786   4.920  18.388  0.00  0.00    +0.000 NA
ATOM      4  C   UNL     1       4.396   3.873  17.781  0.00  0.00    +0.000 A 
ATOM      5  C   UNL     1       4.197   2.572  18.230  0.00  0.00    +0.000 A 
ATOM      6  C   UNL     1       3.334   2.337  19.301  0.00  0.00    +0.000 A 
ATOM      7  C   UNL     1       2.698   3.410  19.932  0.00  0.00    +0.000 A 
ENDROOT
BRANCH   4   8
ATOM      8  C   UNL     1       5.252   4.200  16.622  0.00  0.00    +0.000 A 
ATOM      9  C   UNL     1       6.529   4.766  16.800  0.00  0.00    +0.000 A 
ATOM     10  C   UNL     1       7.349   5.082  15.710  0.00  0.00    +0.000 A 
ATOM     11  C   UNL     1       6.898   4.841  14.416  0.00  0.00    +0.000 A 
ATOM     12 BR   UNL     1       7.996   5.267  12.938  0.00  0.00    +0.000 Br
ATOM     13  C   UNL     1       5.637   4.294  14.204  0.00  0.00    +0.000 A 
ATOM     14  C   UNL     1       4.823   3.980  15.298  0.00  0.00    +0.000 A 
ENDBRANCH   4   8
BRANCH   7  15
ATOM     15  C   UNL     1       1.755   3.172  21.053  0.00  0.00    +0.000 C 
ATOM     16  O   UNL     1       2.093   3.130  22.224  0.00  0.00    +0.000 OA
BRANCH  15  17
ATOM     17  O   UNL     1       0.470   2.998  20.670  0.00  0.00    +0.000 OA
ATOM     18  H   UNL     1       0.017   2.208  21.016  0.00  0.00    +0.000 HD
ENDBRANCH  15  17
ENDBRANCH   7  15
TORSDOF 3
ENDMDL
MODEL 7
REMARK VINA RESULT:      -6.6      0.895      1.715
REMARK  Name = 
REMARK  4 active torsions:
REMARK  status: ('A' for Active; 'I' for Inactive)
REMARK    1  A    between atoms: C_1  and  C_2
REMARK    2  A    between atoms: C_4  and  C_5
REMARK    3  A    between atoms: C_14  and  C_15
REMARK    4  A    between atoms: C_15  and  O_17
REMARK                            x       y       z     vdW  Elec       q    Type
REMARK                         _______ _______ _______ _____ _____    ______ ____
ROOT
ATOM      1  C   UNL     1       4.547   4.036  17.168  0.00  0.00    +0.000 C 
ATOM      2  C   UNL     1       3.689   4.413  18.342  0.00  0.00    +0.000 A 
ATOM      3  N   UNL     1       3.206   5.689  18.308  0.00  0.00    +0.000 NA
ATOM      4  C   UNL     1       2.449   6.146  19.335  0.00  0.00    +0.000 A 
ATOM      5  C   UNL     1       2.131   5.324  20.410  0.00  0.00    +0.000 A 
ATOM      6  C   UNL     1       2.622   4.019  20.448  0.00  0.00    +0.000 A 
ATOM      7  C   UNL     1       3.406   3.538  19.395  0.00  0.00    +0.000 A 
ENDROOT
BRANCH   4   8
ATOM      8  C   UNL     1       2.013   7.556  19.245  0.00  0.00    +0.000 A 
ATOM      9  C   UNL     1       2.177   8.291  18.055  0.00  0.00    +0.000 A 
ATOM     10  C   UNL     1       1.769   9.627  17.957  0.00  0.00    +0.000 A 
ATOM     11  C   UNL     1       1.193  10.254  19.057  0.00  0.00    +0.000 A 
ATOM     12 BR   UNL     1       0.642  12.057  18.936  0.00  0.00    +0.000 Br
ATOM     13  C   UNL     1       1.027   9.560  20.251  0.00  0.00    +0.000 A 
ATOM     14  C   UNL     1       1.437   8.225  20.342  0.00  0.00    +0.000 A 
ENDBRANCH   4   8
BRANCH   7  15
ATOM     15  C   UNL     1       3.959   2.161  19.437  0.00  0.00    +0.000 C 
ATOM     16  O   UNL     1       4.921   1.838  20.113  0.00  0.00    +0.000 OA
BRANCH  15  17
ATOM     17  O   UNL     1       3.304   1.276  18.651  0.00  0.00    +0.000 OA
ATOM     18  H   UNL     1       3.649   1.161  17.747  0.00  0.00    +0.000 HD
ENDBRANCH  15  17
ENDBRANCH   7  15
TORSDOF 3
ENDMDL
MODEL 8
REMARK VINA RESULT:      -6.3      1.140      1.937
REMARK  Name = 
REMARK  4 active torsions:
REMARK  status: ('A' for Active; 'I' for Inactive)
REMARK    1  A    between atoms: C_1  and  C_2
REMARK    2  A    between atoms: C_4  and  C_5
REMARK    3  A    between atoms: C_14  and  C_15
REMARK    4  A    between atoms: C_15  and  O_17
REMARK                            x       y       z     vdW  Elec       q    Type
REMARK                         _______ _______ _______ _____ _____    ______ ____
ROOT
ATOM      1  C   UNL     1       2.362   3.907  20.911  0.00  0.00    +0.000 C 
ATOM      2  C   UNL     1       2.739   4.911  19.858  0.00  0.00    +0.000 A 
ATOM      3  N   UNL     1       2.182   6.146  20.024  0.00  0.00    +0.000 NA
ATOM      4  C   UNL     1       2.427   7.119  19.112  0.00  0.00    +0.000 A 
ATOM      5  C   UNL     1       3.262   6.886  18.025  0.00  0.00    +0.000 A 
ATOM      6  C   UNL     1       3.833   5.625  17.853  0.00  0.00    +0.000 A 
ATOM      7  C   UNL     1       3.586   4.614  18.786  0.00  0.00    +0.000 A 
ENDROOT
BRANCH   4   8
ATOM      8  C   UNL     1       1.742   8.409  19.338  0.00  0.00    +0.000 A 
ATOM      9  C   UNL     1       1.181   8.723  20.591  0.00  0.00    +0.000 A 
ATOM     10  C   UNL     1       0.528   9.941  20.817  0.00  0.00    +0.000 A 
ATOM     11  C   UNL     1       0.420  10.867  19.784  0.00  0.00    +0.000 A 
ATOM     12 BR   UNL     1      -0.461  12.512  20.078  0.00  0.00    +0.000 Br
ATOM     13  C   UNL     1       0.952  10.584  18.531  0.00  0.00    +0.000 A 
ATOM     14  C   UNL     1       1.604   9.365  18.312  0.00  0.00    +0.000 A 
ENDBRANCH   4   8
BRANCH   7  15
ATOM     15  C   UNL     1       4.164   3.260  18.598  0.00  0.00    +0.000 C 
ATOM     16  O   UNL     1       3.632   2.382  17.941  0.00  0.00    +0.000 OA
BRANCH  15  17
ATOM     17  O   UNL     1       5.347   3.070  19.227  0.00  0.00    +0.000 OA
ATOM     18  H   UNL     1       5.776   2.206  19.091  0.00  0.00    +0.000 HD
ENDBRANCH  15  17
ENDBRANCH   7  15
TORSDOF 3
ENDMDL
MODEL 9
REMARK VINA RESULT:      -6.3      2.881      3.710
REMARK  Name = 
REMARK  4 active torsions:
REMARK  status: ('A' for Active; 'I' for Inactive)
REMARK    1  A    between atoms: C_1  and  C_2
REMARK    2  A    between atoms: C_4  and  C_5
REMARK    3  A    between atoms: C_14  and  C_15
REMARK    4  A    between atoms: C_15  and  O_17
REMARK                            x       y       z     vdW  Elec       q    Type
REMARK                         _______ _______ _______ _____ _____    ______ ____
ROOT
ATOM      1  C   UNL     1       7.359   7.223  17.126  0.00  0.00    +0.000 C 
ATOM      2  C   UNL     1       6.025   6.533  17.187  0.00  0.00    +0.000 A 
ATOM      3  N   UNL     1       5.017   7.288  17.713  0.00  0.00    +0.000 NA
ATOM      4  C   UNL     1       3.780   6.752  17.847  0.00  0.00    +0.000 A 
ATOM      5  C   UNL     1       3.513   5.453  17.429  0.00  0.00    +0.000 A 
ATOM      6  C   UNL     1       4.541   4.679  16.890  0.00  0.00    +0.000 A 
ATOM      7  C   UNL     1       5.822   5.220  16.749  0.00  0.00    +0.000 A 
ENDROOT
BRANCH   4   8
ATOM      8  C   UNL     1       2.760   7.619  18.476  0.00  0.00    +0.000 A 
ATOM      9  C   UNL     1       2.218   8.720  17.785  0.00  0.00    +0.000 A 
ATOM     10  C   UNL     1       1.253   9.549  18.369  0.00  0.00    +0.000 A 
ATOM     11  C   UNL     1       0.817   9.292  19.665  0.00  0.00    +0.000 A 
ATOM     12 BR   UNL     1      -0.483  10.406  20.463  0.00  0.00    +0.000 Br
ATOM     13  C   UNL     1       1.340   8.220  20.380  0.00  0.00    +0.000 A 
ATOM     14  C   UNL     1       2.304   7.394  19.790  0.00  0.00    +0.000 A 
ENDBRANCH   4   8
BRANCH   7  15
ATOM     15  C   UNL     1       6.931   4.398  16.205  0.00  0.00    +0.000 C 
ATOM     16  O   UNL     1       6.985   4.015  15.048  0.00  0.00    +0.000 OA
BRANCH  15  17
ATOM     17  O   UNL     1       7.893   4.097  17.106  0.00  0.00    +0.000 OA
ATOM     18  H   UNL     1       7.599   3.659  17.925  0.00  0.00    +0.000 HD
ENDBRANCH  15  17
ENDBRANCH   7  15
TORSDOF 3
ENDMDL
