MODEL 1
REMARK VINA RESULT:      -8.9      0.000      0.000
REMARK  Name = 
REMARK  13 active torsions:
REMARK  status: ('A' for Active; 'I' for Inactive)
REMARK    1  A    between atoms: C_1  and  C_2
REMARK    2  A    between atoms: C_5  and  O_6
REMARK    3  A    between atoms: O_6  and  C_7
REMARK    4  A    between atoms: C_7  and  C_8
REMARK    5  A    between atoms: C_8  and  O_9
REMARK    6  A    between atoms: C_8  and  C_10
REMARK    7  A    between atoms: C_10  and  N_11
REMARK    8  A    between atoms: N_14  and  C_15
REMARK    9  A    between atoms: C_20  and  C_21
REMARK   10  A    between atoms: C_24  and  C_25
REMARK   11  A    between atoms: C_25  and  C_27
REMARK   12  A    between atoms: C_27  and  C_28
REMARK   13  A    between atoms: C_28  and  C_29
REMARK                            x       y       z     vdW  Elec       q    Type
REMARK                         _______ _______ _______ _____ _____    ______ ____
ROOT
ATOM      1  O   UNL     1       6.297   4.022  18.436  0.00  0.00    +0.000 OA
ENDROOT
BRANCH   1   6
ATOM      2  C   UNL     1       8.584   9.209  17.982  0.00  0.00    +0.000 C 
ATOM      3  C   UNL     1       7.909   7.876  18.109  0.00  0.00    +0.000 A 
ATOM      4  C   UNL     1       8.221   6.992  19.135  0.00  0.00    +0.000 A 
ATOM      5  C   UNL     1       7.606   5.738  19.178  0.00  0.00    +0.000 A 
ATOM      6  C   UNL     1       6.669   5.328  18.214  0.00  0.00    +0.000 A 
ATOM      7  C   UNL     1       6.322   6.236  17.188  0.00  0.00    +0.000 A 
ATOM      8  C   UNL     1       6.948   7.499  17.166  0.00  0.00    +0.000 A 
BRANCH   7   9
ATOM      9  C   UNL     1       5.293   6.045  16.110  0.00  0.00    +0.000 C 
ATOM     10  O   UNL     1       4.993   6.961  15.349  0.00  0.00    +0.000 OA
BRANCH   9  11
ATOM     11  C   UNL     1       4.756   4.653  15.821  0.00  0.00    +0.000 C 
BRANCH  11  12
ATOM     12  C   UNL     1       5.823   3.660  15.387  0.00  0.00    +0.000 C 
BRANCH  12  13
ATOM     13  C   UNL     1       6.402   4.039  14.046  0.00  0.00    +0.000 A 
ATOM     14  C   UNL     1       5.943   3.414  12.878  0.00  0.00    +0.000 A 
ATOM     15  C   UNL     1       6.475   3.762  11.635  0.00  0.00    +0.000 A 
ATOM     16  C   UNL     1       7.472   4.732  11.551  0.00  0.00    +0.000 A 
ATOM     17  C   UNL     1       7.948   5.345  12.709  0.00  0.00    +0.000 A 
ATOM     18  C   UNL     1       7.421   4.996  13.953  0.00  0.00    +0.000 A 
ENDBRANCH  12  13
ENDBRANCH  11  12
ENDBRANCH   9  11
ENDBRANCH   7   9
ENDBRANCH   1   6
BRANCH   1  19
ATOM     19  C   UNL     1       5.275   3.744  19.383  0.00  0.00    +0.000 C 
BRANCH  19  20
ATOM     20  C   UNL     1       4.034   3.151  18.704  0.00  0.00    +0.000 C 
BRANCH  20  21
ATOM     21  O   UNL     1       4.362   1.935  18.027  0.00  0.00    +0.000 OA
ATOM     22  H   UNL     1       5.230   1.661  18.370  0.00  0.00    +0.000 HD
ENDBRANCH  20  21
BRANCH  20  23
ATOM     23  C   UNL     1       2.888   2.903  19.711  0.00  0.00    +0.000 C 
BRANCH  23  24
ATOM     24  N   UNL     1       1.619   3.573  19.372  0.00  0.00    +0.000 NA
ATOM     25  C   UNL     1       0.996   4.291  20.510  0.00  0.00    +0.000 C 
ATOM     26  C   UNL     1       1.806   5.509  21.000  0.00  0.00    +0.000 C 
ATOM     27  N   UNL     1       2.084   6.439  19.889  0.00  0.00    +0.000 N 
ATOM     28  C   UNL     1       2.583   5.821  18.651  0.00  0.00    +0.000 C 
ATOM     29  C   UNL     1       1.800   4.543  18.277  0.00  0.00    +0.000 C 
BRANCH  27  30
ATOM     30  C   UNL     1       1.626   7.749  19.912  0.00  0.00    +0.000 A 
ATOM     31  C   UNL     1       0.969   8.243  21.061  0.00  0.00    +0.000 A 
ATOM     32  C   UNL     1       0.547   9.571  21.178  0.00  0.00    +0.000 A 
ATOM     33  C   UNL     1       0.753  10.451  20.132  0.00  0.00    +0.000 A 
ATOM     34  C   UNL     1       1.367   9.996  18.972  0.00  0.00    +0.000 A 
ATOM     35  C   UNL     1       1.811   8.662  18.844  0.00  0.00    +0.000 A 
ATOM     36  C   UNL     1       2.523   8.315  17.560  0.00  0.00    +0.000 C 
ENDBRANCH  27  30
ENDBRANCH  23  24
ENDBRANCH  20  23
ENDBRANCH  19  20
ENDBRANCH   1  19
TORSDOF 11
ENDMDL
MODEL 2
REMARK VINA RESULT:      -8.7      3.233      5.935
REMARK  Name = 
REMARK  13 active torsions:
REMARK  status: ('A' for Active; 'I' for Inactive)
REMARK    1  A    between atoms: C_1  and  C_2
REMARK    2  A    between atoms: C_5  and  O_6
REMARK    3  A    between atoms: O_6  and  C_7
REMARK    4  A    between atoms: C_7  and  C_8
REMARK    5  A    between atoms: C_8  and  O_9
REMARK    6  A    between atoms: C_8  and  C_10
REMARK    7  A    between atoms: C_10  and  N_11
REMARK    8  A    between atoms: N_14  and  C_15
REMARK    9  A    between atoms: C_20  and  C_21
REMARK   10  A    between atoms: C_24  and  C_25
REMARK   11  A    between atoms: C_25  and  C_27
REMARK   12  A    between atoms: C_27  and  C_28
REMARK   13  A    between atoms: C_28  and  C_29
REMARK                            x       y       z     vdW  Elec       q    Type
REMARK                         _______ _______ _______ _____ _____    ______ ____
ROOT
ATOM      1  O   UNL     1       3.262   7.416  18.258  0.00  0.00    +0.000 OA
ENDROOT
BRANCH   1   6
ATOM      2  C   UNL     1       2.160   2.828  21.434  0.00  0.00    +0.000 C 
ATOM      3  C   UNL     1       2.520   4.046  20.636  0.00  0.00    +0.000 A 
ATOM      4  C   UNL     1       1.725   5.185  20.640  0.00  0.00    +0.000 A 
ATOM      5  C   UNL     1       2.072   6.274  19.836  0.00  0.00    +0.000 A 
ATOM      6  C   UNL     1       3.211   6.265  19.013  0.00  0.00    +0.000 A 
ATOM      7  C   UNL     1       4.042   5.123  19.030  0.00  0.00    +0.000 A 
ATOM      8  C   UNL     1       3.679   4.038  19.854  0.00  0.00    +0.000 A 
BRANCH   7   9
ATOM      9  C   UNL     1       5.342   4.929  18.301  0.00  0.00    +0.000 C 
ATOM     10  O   UNL     1       6.281   4.335  18.825  0.00  0.00    +0.000 OA
BRANCH   9  11
ATOM     11  C   UNL     1       5.440   5.291  16.829  0.00  0.00    +0.000 C 
BRANCH  11  12
ATOM     12  C   UNL     1       5.052   4.160  15.890  0.00  0.00    +0.000 C 
BRANCH  12  13
ATOM     13  C   UNL     1       5.832   4.233  14.602  0.00  0.00    +0.000 A 
ATOM     14  C   UNL     1       6.983   5.029  14.517  0.00  0.00    +0.000 A 
ATOM     15  C   UNL     1       7.709   5.099  13.328  0.00  0.00    +0.000 A 
ATOM     16  C   UNL     1       7.289   4.378  12.211  0.00  0.00    +0.000 A 
ATOM     17  C   UNL     1       6.135   3.599  12.279  0.00  0.00    +0.000 A 
ATOM     18  C   UNL     1       5.405   3.531  13.467  0.00  0.00    +0.000 A 
ENDBRANCH  12  13
ENDBRANCH  11  12
ENDBRANCH   9  11
ENDBRANCH   7   9
ENDBRANCH   1   6
BRANCH   1  19
ATOM     19  C   UNL     1       2.051   8.086  17.936  0.00  0.00    +0.000 C 
BRANCH  19  20
ATOM     20  C   UNL     1       2.098   9.557  18.365  0.00  0.00    +0.000 C 
BRANCH  20  21
ATOM     21  O   UNL     1       2.111  10.416  17.221  0.00  0.00    +0.000 OA
ATOM     22  H   UNL     1       1.678  11.242  17.499  0.00  0.00    +0.000 HD
ENDBRANCH  20  21
BRANCH  20  23
ATOM     23  C   UNL     1       0.917   9.928  19.290  0.00  0.00    +0.000 C 
BRANCH  23  24
ATOM     24  N   UNL     1       1.213  10.997  20.263  0.00  0.00    +0.000 NA
ATOM     25  C   UNL     1       0.636  12.313  19.902  0.00  0.00    +0.000 C 
ATOM     26  C   UNL     1      -0.906  12.353  19.939  0.00  0.00    +0.000 C 
ATOM     27  N   UNL     1      -1.414  11.906  21.249  0.00  0.00    +0.000 N 
ATOM     28  C   UNL     1      -0.813  10.671  21.777  0.00  0.00    +0.000 C 
ATOM     29  C   UNL     1       0.723  10.647  21.609  0.00  0.00    +0.000 C 
BRANCH  27  30
ATOM     30  C   UNL     1      -2.175  12.743  22.053  0.00  0.00    +0.000 A 
ATOM     31  C   UNL     1      -1.604  13.313  23.212  0.00  0.00    +0.000 A 
ATOM     32  C   UNL     1      -2.289  14.221  24.025  0.00  0.00    +0.000 A 
ATOM     33  C   UNL     1      -3.589  14.575  23.714  0.00  0.00    +0.000 A 
ATOM     34  C   UNL     1      -4.198  14.012  22.599  0.00  0.00    +0.000 A 
ATOM     35  C   UNL     1      -3.514  13.105  21.761  0.00  0.00    +0.000 A 
ATOM     36  C   UNL     1      -4.265  12.620  20.546  0.00  0.00    +0.000 C 
ENDBRANCH  27  30
ENDBRANCH  23  24
ENDBRANCH  20  23
ENDBRANCH  19  20
ENDBRANCH   1  19
TORSDOF 11
ENDMDL
MODEL 3
REMARK VINA RESULT:      -8.7      4.344      8.454
REMARK  Name = 
REMARK  13 active torsions:
REMARK  status: ('A' for Active; 'I' for Inactive)
REMARK    1  A    between atoms: C_1  and  C_2
REMARK    2  A    between atoms: C_5  and  O_6
REMARK    3  A    between atoms: O_6  and  C_7
REMARK    4  A    between atoms: C_7  and  C_8
REMARK    5  A    between atoms: C_8  and  O_9
REMARK    6  A    between atoms: C_8  and  C_10
REMARK    7  A    between atoms: C_10  and  N_11
REMARK    8  A    between atoms: N_14  and  C_15
REMARK    9  A    between atoms: C_20  and  C_21
REMARK   10  A    between atoms: C_24  and  C_25
REMARK   11  A    between atoms: C_25  and  C_27
REMARK   12  A    between atoms: C_27  and  C_28
REMARK   13  A    between atoms: C_28  and  C_29
REMARK                            x       y       z     vdW  Elec       q    Type
REMARK                         _______ _______ _______ _____ _____    ______ ____
ROOT
ATOM      1  O   UNL     1       8.272  10.824  17.409  0.00  0.00    +0.000 OA
ENDROOT
BRANCH   1   6
ATOM      2  C   UNL     1       8.197  16.431  18.360  0.00  0.00    +0.000 C 
ATOM      3  C   UNL     1       8.276  14.964  18.055  0.00  0.00    +0.000 A 
ATOM      4  C   UNL     1       7.187  14.261  17.556  0.00  0.00    +0.000 A 
ATOM      5  C   UNL     1       7.291  12.884  17.343  0.00  0.00    +0.000 A 
ATOM      6  C   UNL     1       8.472  12.170  17.613  0.00  0.00    +0.000 A 
ATOM      7  C   UNL     1       9.593  12.886  18.088  0.00  0.00    +0.000 A 
ATOM      8  C   UNL     1       9.470  14.276  18.290  0.00  0.00    +0.000 A 
BRANCH   7   9
ATOM      9  C   UNL     1      10.970  12.348  18.362  0.00  0.00    +0.000 C 
ATOM     10  O   UNL     1      11.672  11.909  17.455  0.00  0.00    +0.000 OA
BRANCH   9  11
ATOM     11  C   UNL     1      11.587  12.528  19.739  0.00  0.00    +0.000 C 
BRANCH  11  12
ATOM     12  C   UNL     1      10.741  11.964  20.870  0.00  0.00    +0.000 C 
BRANCH  12  13
ATOM     13  C   UNL     1       9.782  13.001  21.399  0.00  0.00    +0.000 A 
ATOM     14  C   UNL     1       8.437  12.671  21.621  0.00  0.00    +0.000 A 
ATOM     15  C   UNL     1       7.547  13.626  22.111  0.00  0.00    +0.000 A 
ATOM     16  C   UNL     1       7.990  14.921  22.377  0.00  0.00    +0.000 A 
ATOM     17  C   UNL     1       9.320  15.264  22.141  0.00  0.00    +0.000 A 
ATOM     18  C   UNL     1      10.212  14.311  21.647  0.00  0.00    +0.000 A 
ENDBRANCH  12  13
ENDBRANCH  11  12
ENDBRANCH   9  11
ENDBRANCH   7   9
ENDBRANCH   1   6
BRANCH   1  19
ATOM     19  C   UNL     1       8.547   9.915  18.467  0.00  0.00    +0.000 C 
BRANCH  19  20
ATOM     20  C   UNL     1       8.308   8.465  18.031  0.00  0.00    +0.000 C 
BRANCH  20  21
ATOM     21  O   UNL     1       8.739   7.555  19.046  0.00  0.00    +0.000 OA
ATOM     22  H   UNL     1       9.486   7.060  18.667  0.00  0.00    +0.000 HD
ENDBRANCH  20  21
BRANCH  20  23
ATOM     23  C   UNL     1       6.826   8.202  17.682  0.00  0.00    +0.000 C 
BRANCH  23  24
ATOM     24  N   UNL     1       6.581   6.942  16.954  0.00  0.00    +0.000 NA
ATOM     25  C   UNL     1       6.662   5.732  17.806  0.00  0.00    +0.000 C 
ATOM     26  C   UNL     1       5.545   5.637  18.866  0.00  0.00    +0.000 C 
ATOM     27  N   UNL     1       4.213   5.743  18.240  0.00  0.00    +0.000 N 
ATOM     28  C   UNL     1       4.053   6.835  17.267  0.00  0.00    +0.000 C 
ATOM     29  C   UNL     1       5.257   6.946  16.306  0.00  0.00    +0.000 C 
BRANCH  27  30
ATOM     30  C   UNL     1       3.286   4.715  18.336  0.00  0.00    +0.000 A 
ATOM     31  C   UNL     1       3.380   3.601  17.473  0.00  0.00    +0.000 A 
ATOM     32  C   UNL     1       2.525   2.499  17.564  0.00  0.00    +0.000 A 
ATOM     33  C   UNL     1       1.524   2.484  18.518  0.00  0.00    +0.000 A 
ATOM     34  C   UNL     1       1.377   3.575  19.366  0.00  0.00    +0.000 A 
ATOM     35  C   UNL     1       2.242   4.689  19.295  0.00  0.00    +0.000 A 
ATOM     36  C   UNL     1       2.018   5.776  20.317  0.00  0.00    +0.000 C 
ENDBRANCH  27  30
ENDBRANCH  23  24
ENDBRANCH  20  23
ENDBRANCH  19  20
ENDBRANCH   1  19
TORSDOF 11
ENDMDL
MODEL 4
REMARK VINA RESULT:      -8.6      3.245      5.908
REMARK  Name = 
REMARK  13 active torsions:
REMARK  status: ('A' for Active; 'I' for Inactive)
REMARK    1  A    between atoms: C_1  and  C_2
REMARK    2  A    between atoms: C_5  and  O_6
REMARK    3  A    between atoms: O_6  and  C_7
REMARK    4  A    between atoms: C_7  and  C_8
REMARK    5  A    between atoms: C_8  and  O_9
REMARK    6  A    between atoms: C_8  and  C_10
REMARK    7  A    between atoms: C_10  and  N_11
REMARK    8  A    between atoms: N_14  and  C_15
REMARK    9  A    between atoms: C_20  and  C_21
REMARK   10  A    between atoms: C_24  and  C_25
REMARK   11  A    between atoms: C_25  and  C_27
REMARK   12  A    between atoms: C_27  and  C_28
REMARK   13  A    between atoms: C_28  and  C_29
REMARK                            x       y       z     vdW  Elec       q    Type
REMARK                         _______ _______ _______ _____ _____    ______ ____
ROOT
ATOM      1  O   UNL     1       2.954   7.409  17.830  0.00  0.00    +0.000 OA
ENDROOT
BRANCH   1   6
ATOM      2  C   UNL     1       2.874   1.726  18.043  0.00  0.00    +0.000 C 
ATOM      3  C   UNL     1       2.939   3.225  18.054  0.00  0.00    +0.000 A 
ATOM      4  C   UNL     1       1.793   4.007  18.129  0.00  0.00    +0.000 A 
ATOM      5  C   UNL     1       1.902   5.399  18.078  0.00  0.00    +0.000 A 
ATOM      6  C   UNL     1       3.141   6.051  17.956  0.00  0.00    +0.000 A 
ATOM      7  C   UNL     1       4.312   5.262  17.914  0.00  0.00    +0.000 A 
ATOM      8  C   UNL     1       4.182   3.860  17.973  0.00  0.00    +0.000 A 
BRANCH   7   9
ATOM      9  C   UNL     1       5.736   5.743  17.870  0.00  0.00    +0.000 C 
ATOM     10  O   UNL     1       6.490   5.581  18.825  0.00  0.00    +0.000 OA
BRANCH   9  11
ATOM     11  C   UNL     1       6.315   6.257  16.563  0.00  0.00    +0.000 C 
BRANCH  11  12
ATOM     12  C   UNL     1       7.389   5.358  15.970  0.00  0.00    +0.000 C 
BRANCH  12  13
ATOM     13  C   UNL     1       6.956   4.805  14.635  0.00  0.00    +0.000 A 
ATOM     14  C   UNL     1       5.780   4.048  14.531  0.00  0.00    +0.000 A 
ATOM     15  C   UNL     1       5.375   3.536  13.298  0.00  0.00    +0.000 A 
ATOM     16  C   UNL     1       6.145   3.770  12.160  0.00  0.00    +0.000 A 
ATOM     17  C   UNL     1       7.325   4.505  12.256  0.00  0.00    +0.000 A 
ATOM     18  C   UNL     1       7.734   5.015  13.489  0.00  0.00    +0.000 A 
ENDBRANCH  12  13
ENDBRANCH  11  12
ENDBRANCH   9  11
ENDBRANCH   7   9
ENDBRANCH   1   6
BRANCH   1  19
ATOM     19  C   UNL     1       1.697   7.970  18.182  0.00  0.00    +0.000 C 
BRANCH  19  20
ATOM     20  C   UNL     1       1.819   9.473  18.467  0.00  0.00    +0.000 C 
BRANCH  20  21
ATOM     21  O   UNL     1       1.859  10.216  17.247  0.00  0.00    +0.000 OA
ATOM     22  H   UNL     1       2.246   9.621  16.581  0.00  0.00    +0.000 HD
ENDBRANCH  20  21
BRANCH  20  23
ATOM     23  C   UNL     1       0.667   9.986  19.360  0.00  0.00    +0.000 C 
BRANCH  23  24
ATOM     24  N   UNL     1       0.916  11.299  19.987  0.00  0.00    +0.000 NA
ATOM     25  C   UNL     1      -0.130  12.308  19.700  0.00  0.00    +0.000 C 
ATOM     26  C   UNL     1      -1.503  11.983  20.326  0.00  0.00    +0.000 C 
ATOM     27  N   UNL     1      -1.381  11.760  21.778  0.00  0.00    +0.000 N 
ATOM     28  C   UNL     1      -0.284  10.873  22.196  0.00  0.00    +0.000 C 
ATOM     29  C   UNL     1       1.035  11.181  21.451  0.00  0.00    +0.000 C 
BRANCH  27  30
ATOM     30  C   UNL     1      -2.055  12.559  22.691  0.00  0.00    +0.000 A 
ATOM     31  C   UNL     1      -3.251  12.095  23.283  0.00  0.00    +0.000 A 
ATOM     32  C   UNL     1      -3.940  12.816  24.261  0.00  0.00    +0.000 A 
ATOM     33  C   UNL     1      -3.463  14.048  24.669  0.00  0.00    +0.000 A 
ATOM     34  C   UNL     1      -2.307  14.555  24.088  0.00  0.00    +0.000 A 
ATOM     35  C   UNL     1      -1.592  13.832  23.109  0.00  0.00    +0.000 A 
ATOM     36  C   UNL     1      -0.317  14.464  22.609  0.00  0.00    +0.000 C 
ENDBRANCH  27  30
ENDBRANCH  23  24
ENDBRANCH  20  23
ENDBRANCH  19  20
ENDBRANCH   1  19
TORSDOF 11
ENDMDL
MODEL 5
REMARK VINA RESULT:      -8.6      3.729      6.653
REMARK  Name = 
REMARK  13 active torsions:
REMARK  status: ('A' for Active; 'I' for Inactive)
REMARK    1  A    between atoms: C_1  and  C_2
REMARK    2  A    between atoms: C_5  and  O_6
REMARK    3  A    between atoms: O_6  and  C_7
REMARK    4  A    between atoms: C_7  and  C_8
REMARK    5  A    between atoms: C_8  and  O_9
REMARK    6  A    between atoms: C_8  and  C_10
REMARK    7  A    between atoms: C_10  and  N_11
REMARK    8  A    between atoms: N_14  and  C_15
REMARK    9  A    between atoms: C_20  and  C_21
REMARK   10  A    between atoms: C_24  and  C_25
REMARK   11  A    between atoms: C_25  and  C_27
REMARK   12  A    between atoms: C_27  and  C_28
REMARK   13  A    between atoms: C_28  and  C_29
REMARK                            x       y       z     vdW  Elec       q    Type
REMARK                         _______ _______ _______ _____ _____    ______ ____
ROOT
ATOM      1  O   UNL     1       2.313   7.407  20.093  0.00  0.00    +0.000 OA
ENDROOT
BRANCH   1   6
ATOM      2  C   UNL     1       1.103   1.961  18.987  0.00  0.00    +0.000 C 
ATOM      3  C   UNL     1       1.501   3.378  19.278  0.00  0.00    +0.000 A 
ATOM      4  C   UNL     1       1.085   4.032  20.431  0.00  0.00    +0.000 A 
ATOM      5  C   UNL     1       1.433   5.370  20.630  0.00  0.00    +0.000 A 
ATOM      6  C   UNL     1       2.201   6.092  19.700  0.00  0.00    +0.000 A 
ATOM      7  C   UNL     1       2.655   5.422  18.542  0.00  0.00    +0.000 A 
ATOM      8  C   UNL     1       2.299   4.070  18.363  0.00  0.00    +0.000 A 
BRANCH   7   9
ATOM      9  C   UNL     1       3.550   5.967  17.464  0.00  0.00    +0.000 C 
ATOM     10  O   UNL     1       3.686   7.177  17.304  0.00  0.00    +0.000 OA
BRANCH   9  11
ATOM     11  C   UNL     1       4.453   5.023  16.688  0.00  0.00    +0.000 C 
BRANCH  11  12
ATOM     12  C   UNL     1       5.646   5.708  16.039  0.00  0.00    +0.000 C 
BRANCH  12  13
ATOM     13  C   UNL     1       6.617   6.206  17.080  0.00  0.00    +0.000 A 
ATOM     14  C   UNL     1       7.013   5.370  18.134  0.00  0.00    +0.000 A 
ATOM     15  C   UNL     1       7.912   5.826  19.099  0.00  0.00    +0.000 A 
ATOM     16  C   UNL     1       8.419   7.122  19.022  0.00  0.00    +0.000 A 
ATOM     17  C   UNL     1       8.017   7.967  17.988  0.00  0.00    +0.000 A 
ATOM     18  C   UNL     1       7.114   7.515  17.025  0.00  0.00    +0.000 A 
ENDBRANCH  12  13
ENDBRANCH  11  12
ENDBRANCH   9  11
ENDBRANCH   7   9
ENDBRANCH   1   6
BRANCH   1  19
ATOM     19  C   UNL     1       1.597   7.851  21.237  0.00  0.00    +0.000 C 
BRANCH  19  20
ATOM     20  C   UNL     1       0.503   8.856  20.854  0.00  0.00    +0.000 C 
BRANCH  20  21
ATOM     21  O   UNL     1      -0.673   8.644  21.638  0.00  0.00    +0.000 OA
ATOM     22  H   UNL     1      -0.408   8.063  22.372  0.00  0.00    +0.000 HD
ENDBRANCH  20  21
BRANCH  20  23
ATOM     23  C   UNL     1       0.983  10.317  21.004  0.00  0.00    +0.000 C 
BRANCH  23  24
ATOM     24  N   UNL     1       0.007  11.331  20.561  0.00  0.00    +0.000 NA
ATOM     25  C   UNL     1       0.153  12.641  21.238  0.00  0.00    +0.000 C 
ATOM     26  C   UNL     1       1.463  13.380  20.896  0.00  0.00    +0.000 C 
ATOM     27  N   UNL     1       1.619  13.530  19.437  0.00  0.00    +0.000 N 
ATOM     28  C   UNL     1       1.366  12.318  18.643  0.00  0.00    +0.000 C 
ATOM     29  C   UNL     1       0.100  11.565  19.108  0.00  0.00    +0.000 C 
BRANCH  27  30
ATOM     30  C   UNL     1       1.701  14.782  18.845  0.00  0.00    +0.000 A 
ATOM     31  C   UNL     1       0.578  15.639  18.853  0.00  0.00    +0.000 A 
ATOM     32  C   UNL     1       0.614  16.938  18.340  0.00  0.00    +0.000 A 
ATOM     33  C   UNL     1       1.780  17.421  17.776  0.00  0.00    +0.000 A 
ATOM     34  C   UNL     1       2.899  16.599  17.719  0.00  0.00    +0.000 A 
ATOM     35  C   UNL     1       2.882  15.289  18.246  0.00  0.00    +0.000 A 
ATOM     36  C   UNL     1       4.182  14.526  18.183  0.00  0.00    +0.000 C 
ENDBRANCH  27  30
ENDBRANCH  23  24
ENDBRANCH  20  23
ENDBRANCH  19  20
ENDBRANCH   1  19
TORSDOF 11
ENDMDL
MODEL 6
REMARK VINA RESULT:      -8.5      3.175      6.387
REMARK  Name = 
REMARK  13 active torsions:
REMARK  status: ('A' for Active; 'I' for Inactive)
REMARK    1  A    between atoms: C_1  and  C_2
REMARK    2  A    between atoms: C_5  and  O_6
REMARK    3  A    between atoms: O_6  and  C_7
REMARK    4  A    between atoms: C_7  and  C_8
REMARK    5  A    between atoms: C_8  and  O_9
REMARK    6  A    between atoms: C_8  and  C_10
REMARK    7  A    between atoms: C_10  and  N_11
REMARK    8  A    between atoms: N_14  and  C_15
REMARK    9  A    between atoms: C_20  and  C_21
REMARK   10  A    between atoms: C_24  and  C_25
REMARK   11  A    between atoms: C_25  and  C_27
REMARK   12  A    between atoms: C_27  and  C_28
REMARK   13  A    between atoms: C_28  and  C_29
REMARK                            x       y       z     vdW  Elec       q    Type
REMARK                         _______ _______ _______ _____ _____    ______ ____
ROOT
ATOM      1  O   UNL     1       3.026   6.833  18.343  0.00  0.00    +0.000 OA
ENDROOT
BRANCH   1   6
ATOM      2  C   UNL     1       1.400   2.566  21.733  0.00  0.00    +0.000 C 
ATOM      3  C   UNL     1       1.900   3.655  20.832  0.00  0.00    +0.000 A 
ATOM      4  C   UNL     1       1.960   4.980  21.248  0.00  0.00    +0.000 A 
ATOM      5  C   UNL     1       2.379   5.967  20.354  0.00  0.00    +0.000 A 
ATOM      6  C   UNL     1       2.753   5.672  19.031  0.00  0.00    +0.000 A 
ATOM      7  C   UNL     1       2.726   4.323  18.613  0.00  0.00    +0.000 A 
ATOM      8  C   UNL     1       2.307   3.341  19.532  0.00  0.00    +0.000 A 
BRANCH   7   9
ATOM      9  C   UNL     1       3.158   3.771  17.283  0.00  0.00    +0.000 C 
ATOM     10  O   UNL     1       2.334   3.461  16.427  0.00  0.00    +0.000 OA
BRANCH   9  11
ATOM     11  C   UNL     1       4.631   3.780  16.908  0.00  0.00    +0.000 C 
BRANCH  11  12
ATOM     12  C   UNL     1       5.099   5.086  16.284  0.00  0.00    +0.000 C 
BRANCH  12  13
ATOM     13  C   UNL     1       6.156   5.744  17.135  0.00  0.00    +0.000 A 
ATOM     14  C   UNL     1       6.643   5.099  18.281  0.00  0.00    +0.000 A 
ATOM     15  C   UNL     1       7.622   5.704  19.070  0.00  0.00    +0.000 A 
ATOM     16  C   UNL     1       8.117   6.960  18.725  0.00  0.00    +0.000 A 
ATOM     17  C   UNL     1       7.625   7.618  17.599  0.00  0.00    +0.000 A 
ATOM     18  C   UNL     1       6.644   7.017  16.810  0.00  0.00    +0.000 A 
ENDBRANCH  12  13
ENDBRANCH  11  12
ENDBRANCH   9  11
ENDBRANCH   7   9
ENDBRANCH   1   6
BRANCH   1  19
ATOM     19  C   UNL     1       1.961   7.529  17.710  0.00  0.00    +0.000 C 
BRANCH  19  20
ATOM     20  C   UNL     1       1.878   8.981  18.198  0.00  0.00    +0.000 C 
BRANCH  20  21
ATOM     21  O   UNL     1       2.855   9.791  17.538  0.00  0.00    +0.000 OA
ATOM     22  H   UNL     1       2.497   9.978  16.653  0.00  0.00    +0.000 HD
ENDBRANCH  20  21
BRANCH  20  23
ATOM     23  C   UNL     1       0.469   9.580  17.992  0.00  0.00    +0.000 C 
BRANCH  23  24
ATOM     24  N   UNL     1      -0.169  10.082  19.224  0.00  0.00    +0.000 NA
ATOM     25  C   UNL     1       0.692  10.988  20.020  0.00  0.00    +0.000 C 
ATOM     26  C   UNL     1       0.999  12.331  19.326  0.00  0.00    +0.000 C 
ATOM     27  N   UNL     1      -0.245  13.016  18.928  0.00  0.00    +0.000 N 
ATOM     28  C   UNL     1      -1.241  12.178  18.242  0.00  0.00    +0.000 C 
ATOM     29  C   UNL     1      -1.420  10.803  18.925  0.00  0.00    +0.000 C 
BRANCH  27  30
ATOM     30  C   UNL     1      -0.571  14.269  19.427  0.00  0.00    +0.000 A 
ATOM     31  C   UNL     1      -0.213  15.428  18.705  0.00  0.00    +0.000 A 
ATOM     32  C   UNL     1      -0.574  16.716  19.113  0.00  0.00    +0.000 A 
ATOM     33  C   UNL     1      -1.294  16.888  20.281  0.00  0.00    +0.000 A 
ATOM     34  C   UNL     1      -1.639  15.775  21.038  0.00  0.00    +0.000 A 
ATOM     35  C   UNL     1      -1.294  14.468  20.631  0.00  0.00    +0.000 A 
ATOM     36  C   UNL     1      -1.788  13.343  21.506  0.00  0.00    +0.000 C 
ENDBRANCH  27  30
ENDBRANCH  23  24
ENDBRANCH  20  23
ENDBRANCH  19  20
ENDBRANCH   1  19
TORSDOF 11
ENDMDL
MODEL 7
REMARK VINA RESULT:      -8.5      3.939      6.553
REMARK  Name = 
REMARK  13 active torsions:
REMARK  status: ('A' for Active; 'I' for Inactive)
REMARK    1  A    between atoms: C_1  and  C_2
REMARK    2  A    between atoms: C_5  and  O_6
REMARK    3  A    between atoms: O_6  and  C_7
REMARK    4  A    between atoms: C_7  and  C_8
REMARK    5  A    between atoms: C_8  and  O_9
REMARK    6  A    between atoms: C_8  and  C_10
REMARK    7  A    between atoms: C_10  and  N_11
REMARK    8  A    between atoms: N_14  and  C_15
REMARK    9  A    between atoms: C_20  and  C_21
REMARK   10  A    between atoms: C_24  and  C_25
REMARK   11  A    between atoms: C_25  and  C_27
REMARK   12  A    between atoms: C_27  and  C_28
REMARK   13  A    between atoms: C_28  and  C_29
REMARK                            x       y       z     vdW  Elec       q    Type
REMARK                         _______ _______ _______ _____ _____    ______ ____
ROOT
ATOM      1  O   UNL     1       1.755   7.750  21.017  0.00  0.00    +0.000 OA
ENDROOT
BRANCH   1   6
ATOM      2  C   UNL     1       1.748   2.893  18.059  0.00  0.00    +0.000 C 
ATOM      3  C   UNL     1       1.827   4.184  18.818  0.00  0.00    +0.000 A 
ATOM      4  C   UNL     1       1.600   4.243  20.188  0.00  0.00    +0.000 A 
ATOM      5  C   UNL     1       1.628   5.478  20.840  0.00  0.00    +0.000 A 
ATOM      6  C   UNL     1       1.884   6.681  20.159  0.00  0.00    +0.000 A 
ATOM      7  C   UNL     1       2.149   6.623  18.773  0.00  0.00    +0.000 A 
ATOM      8  C   UNL     1       2.122   5.367  18.134  0.00  0.00    +0.000 A 
BRANCH   7   9
ATOM      9  C   UNL     1       2.525   7.762  17.867  0.00  0.00    +0.000 C 
ATOM     10  O   UNL     1       1.833   8.775  17.800  0.00  0.00    +0.000 OA
BRANCH   9  11
ATOM     11  C   UNL     1       3.877   7.756  17.174  0.00  0.00    +0.000 C 
BRANCH  11  12
ATOM     12  C   UNL     1       4.861   6.751  17.753  0.00  0.00    +0.000 C 
BRANCH  12  13
ATOM     13  C   UNL     1       5.266   5.730  16.719  0.00  0.00    +0.000 A 
ATOM     14  C   UNL     1       5.434   6.111  15.380  0.00  0.00    +0.000 A 
ATOM     15  C   UNL     1       5.810   5.170  14.420  0.00  0.00    +0.000 A 
ATOM     16  C   UNL     1       6.014   3.841  14.789  0.00  0.00    +0.000 A 
ATOM     17  C   UNL     1       5.830   3.450  16.114  0.00  0.00    +0.000 A 
ATOM     18  C   UNL     1       5.451   4.388  17.075  0.00  0.00    +0.000 A 
ENDBRANCH  12  13
ENDBRANCH  11  12
ENDBRANCH   9  11
ENDBRANCH   7   9
ENDBRANCH   1   6
BRANCH   1  19
ATOM     19  C   UNL     1       0.493   8.007  21.619  0.00  0.00    +0.000 C 
BRANCH  19  20
ATOM     20  C   UNL     1       0.368   9.475  22.044  0.00  0.00    +0.000 C 
BRANCH  20  21
ATOM     21  O   UNL     1       1.141   9.726  23.221  0.00  0.00    +0.000 OA
ATOM     22  H   UNL     1       1.003   8.960  23.804  0.00  0.00    +0.000 HD
ENDBRANCH  20  21
BRANCH  20  23
ATOM     23  C   UNL     1       0.792  10.442  20.917  0.00  0.00    +0.000 C 
BRANCH  23  24
ATOM     24  N   UNL     1      -0.155  11.545  20.666  0.00  0.00    +0.000 NA
ATOM     25  C   UNL     1       0.204  12.811  21.346  0.00  0.00    +0.000 C 
ATOM     26  C   UNL     1       1.498  13.462  20.815  0.00  0.00    +0.000 C 
ATOM     27  N   UNL     1       1.430  13.658  19.355  0.00  0.00    +0.000 N 
ATOM     28  C   UNL     1       0.954  12.502  18.580  0.00  0.00    +0.000 C 
ATOM     29  C   UNL     1      -0.278  11.830  19.225  0.00  0.00    +0.000 C 
BRANCH  27  30
ATOM     30  C   UNL     1       1.518  14.923  18.792  0.00  0.00    +0.000 A 
ATOM     31  C   UNL     1       0.388  15.770  18.787  0.00  0.00    +0.000 A 
ATOM     32  C   UNL     1       0.427  17.081  18.302  0.00  0.00    +0.000 A 
ATOM     33  C   UNL     1       1.605  17.585  17.781  0.00  0.00    +0.000 A 
ATOM     34  C   UNL     1       2.731  16.773  17.738  0.00  0.00    +0.000 A 
ATOM     35  C   UNL     1       2.711  15.452  18.237  0.00  0.00    +0.000 A 
ATOM     36  C   UNL     1       4.018  14.700  18.193  0.00  0.00    +0.000 C 
ENDBRANCH  27  30
ENDBRANCH  23  24
ENDBRANCH  20  23
ENDBRANCH  19  20
ENDBRANCH   1  19
TORSDOF 11
ENDMDL
MODEL 8
REMARK VINA RESULT:      -8.4      3.890      7.205
REMARK  Name = 
REMARK  13 active torsions:
REMARK  status: ('A' for Active; 'I' for Inactive)
REMARK    1  A    between atoms: C_1  and  C_2
REMARK    2  A    between atoms: C_5  and  O_6
REMARK    3  A    between atoms: O_6  and  C_7
REMARK    4  A    between atoms: C_7  and  C_8
REMARK    5  A    between atoms: C_8  and  O_9
REMARK    6  A    between atoms: C_8  and  C_10
REMARK    7  A    between atoms: C_10  and  N_11
REMARK    8  A    between atoms: N_14  and  C_15
REMARK    9  A    between atoms: C_20  and  C_21
REMARK   10  A    between atoms: C_24  and  C_25
REMARK   11  A    between atoms: C_25  and  C_27
REMARK   12  A    between atoms: C_27  and  C_28
REMARK   13  A    between atoms: C_28  and  C_29
REMARK                            x       y       z     vdW  Elec       q    Type
REMARK                         _______ _______ _______ _____ _____    ______ ____
ROOT
ATOM      1  O   UNL     1       1.631   8.283  18.079  0.00  0.00    +0.000 OA
ENDROOT
BRANCH   1   6
ATOM      2  C   UNL     1       6.175   4.892  18.527  0.00  0.00    +0.000 C 
ATOM      3  C   UNL     1       4.930   5.720  18.405  0.00  0.00    +0.000 A 
ATOM      4  C   UNL     1       4.743   6.610  17.354  0.00  0.00    +0.000 A 
ATOM      5  C   UNL     1       3.593   7.402  17.315  0.00  0.00    +0.000 A 
ATOM      6  C   UNL     1       2.600   7.332  18.308  0.00  0.00    +0.000 A 
ATOM      7  C   UNL     1       2.769   6.406  19.360  0.00  0.00    +0.000 A 
ATOM      8  C   UNL     1       3.933   5.611  19.378  0.00  0.00    +0.000 A 
BRANCH   7   9
ATOM      9  C   UNL     1       1.805   6.105  20.475  0.00  0.00    +0.000 C 
ATOM     10  O   UNL     1       1.720   6.839  21.455  0.00  0.00    +0.000 OA
BRANCH   9  11
ATOM     11  C   UNL     1       0.783   4.994  20.305  0.00  0.00    +0.000 C 
BRANCH  11  12
ATOM     12  C   UNL     1       1.227   3.656  20.875  0.00  0.00    +0.000 C 
BRANCH  12  13
ATOM     13  C   UNL     1       2.123   2.925  19.907  0.00  0.00    +0.000 A 
ATOM     14  C   UNL     1       3.387   2.475  20.315  0.00  0.00    +0.000 A 
ATOM     15  C   UNL     1       4.218   1.797  19.423  0.00  0.00    +0.000 A 
ATOM     16  C   UNL     1       3.796   1.568  18.114  0.00  0.00    +0.000 A 
ATOM     17  C   UNL     1       2.550   2.027  17.693  0.00  0.00    +0.000 A 
ATOM     18  C   UNL     1       1.718   2.709  18.583  0.00  0.00    +0.000 A 
ENDBRANCH  12  13
ENDBRANCH  11  12
ENDBRANCH   9  11
ENDBRANCH   7   9
ENDBRANCH   1   6
BRANCH   1  19
ATOM     19  C   UNL     1       1.322   9.216  19.105  0.00  0.00    +0.000 C 
BRANCH  19  20
ATOM     20  C   UNL     1       1.597  10.655  18.651  0.00  0.00    +0.000 C 
BRANCH  20  21
ATOM     21  O   UNL     1       2.149  10.670  17.332  0.00  0.00    +0.000 OA
ATOM     22  H   UNL     1       2.878  10.025  17.337  0.00  0.00    +0.000 HD
ENDBRANCH  20  21
BRANCH  20  23
ATOM     23  C   UNL     1       0.325  11.531  18.701  0.00  0.00    +0.000 C 
BRANCH  23  24
ATOM     24  N   UNL     1       0.453  12.753  19.517  0.00  0.00    +0.000 NA
ATOM     25  C   UNL     1      -0.766  13.594  19.535  0.00  0.00    +0.000 C 
ATOM     26  C   UNL     1      -1.969  12.938  20.245  0.00  0.00    +0.000 C 
ATOM     27  N   UNL     1      -1.609  12.517  21.612  0.00  0.00    +0.000 N 
ATOM     28  C   UNL     1      -0.339  11.784  21.738  0.00  0.00    +0.000 C 
ATOM     29  C   UNL     1       0.796  12.431  20.914  0.00  0.00    +0.000 C 
BRANCH  27  30
ATOM     30  C   UNL     1      -2.262  13.033  22.723  0.00  0.00    +0.000 A 
ATOM     31  C   UNL     1      -3.383  12.358  23.254  0.00  0.00    +0.000 A 
ATOM     32  C   UNL     1      -4.042  12.783  24.412  0.00  0.00    +0.000 A 
ATOM     33  C   UNL     1      -3.610  13.919  25.070  0.00  0.00    +0.000 A 
ATOM     34  C   UNL     1      -2.530  14.630  24.561  0.00  0.00    +0.000 A 
ATOM     35  C   UNL     1      -1.845  14.206  23.401  0.00  0.00    +0.000 A 
ATOM     36  C   UNL     1      -0.648  15.028  22.994  0.00  0.00    +0.000 C 
ENDBRANCH  27  30
ENDBRANCH  23  24
ENDBRANCH  20  23
ENDBRANCH  19  20
ENDBRANCH   1  19
TORSDOF 11
ENDMDL
MODEL 9
REMARK VINA RESULT:      -8.4      3.870      7.114
REMARK  Name = 
REMARK  13 active torsions:
REMARK  status: ('A' for Active; 'I' for Inactive)
REMARK    1  A    between atoms: C_1  and  C_2
REMARK    2  A    between atoms: C_5  and  O_6
REMARK    3  A    between atoms: O_6  and  C_7
REMARK    4  A    between atoms: C_7  and  C_8
REMARK    5  A    between atoms: C_8  and  O_9
REMARK    6  A    between atoms: C_8  and  C_10
REMARK    7  A    between atoms: C_10  and  N_11
REMARK    8  A    between atoms: N_14  and  C_15
REMARK    9  A    between atoms: C_20  and  C_21
REMARK   10  A    between atoms: C_24  and  C_25
REMARK   11  A    between atoms: C_25  and  C_27
REMARK   12  A    between atoms: C_27  and  C_28
REMARK   13  A    between atoms: C_28  and  C_29
REMARK                            x       y       z     vdW  Elec       q    Type
REMARK                         _______ _______ _______ _____ _____    ______ ____
ROOT
ATOM      1  O   UNL     1       1.671   8.221  17.872  0.00  0.00    +0.000 OA
ENDROOT
BRANCH   1   6
ATOM      2  C   UNL     1       6.223   4.920  18.723  0.00  0.00    +0.000 C 
ATOM      3  C   UNL     1       4.977   5.724  18.499  0.00  0.00    +0.000 A 
ATOM      4  C   UNL     1       4.813   6.521  17.372  0.00  0.00    +0.000 A 
ATOM      5  C   UNL     1       3.659   7.297  17.236  0.00  0.00    +0.000 A 
ATOM      6  C   UNL     1       2.639   7.301  18.204  0.00  0.00    +0.000 A 
ATOM      7  C   UNL     1       2.785   6.467  19.335  0.00  0.00    +0.000 A 
ATOM      8  C   UNL     1       3.954   5.687  19.450  0.00  0.00    +0.000 A 
BRANCH   7   9
ATOM      9  C   UNL     1       1.794   6.251  20.444  0.00  0.00    +0.000 C 
ATOM     10  O   UNL     1       1.604   7.110  21.301  0.00  0.00    +0.000 OA
BRANCH   9  11
ATOM     11  C   UNL     1       0.868   5.047  20.401  0.00  0.00    +0.000 C 
BRANCH  11  12
ATOM     12  C   UNL     1       1.468   3.788  21.009  0.00  0.00    +0.000 C 
BRANCH  12  13
ATOM     13  C   UNL     1       2.246   3.008  19.979  0.00  0.00    +0.000 A 
ATOM     14  C   UNL     1       3.491   2.453  20.306  0.00  0.00    +0.000 A 
ATOM     15  C   UNL     1       4.214   1.729  19.357  0.00  0.00    +0.000 A 
ATOM     16  C   UNL     1       3.701   1.558  18.072  0.00  0.00    +0.000 A 
ATOM     17  C   UNL     1       2.473   2.122  17.732  0.00  0.00    +0.000 A 
ATOM     18  C   UNL     1       1.750   2.850  18.678  0.00  0.00    +0.000 A 
ENDBRANCH  12  13
ENDBRANCH  11  12
ENDBRANCH   9  11
ENDBRANCH   7   9
ENDBRANCH   1   6
BRANCH   1  19
ATOM     19  C   UNL     1       1.987   9.606  17.916  0.00  0.00    +0.000 C 
BRANCH  19  20
ATOM     20  C   UNL     1       0.783  10.438  18.375  0.00  0.00    +0.000 C 
BRANCH  20  21
ATOM     21  O   UNL     1      -0.368  10.140  17.581  0.00  0.00    +0.000 OA
ATOM     22  H   UNL     1      -0.993   9.683  18.171  0.00  0.00    +0.000 HD
ENDBRANCH  20  21
BRANCH  20  23
ATOM     23  C   UNL     1       0.465  10.217  19.870  0.00  0.00    +0.000 C 
BRANCH  23  24
ATOM     24  N   UNL     1       0.640  11.412  20.717  0.00  0.00    +0.000 NA
ATOM     25  C   UNL     1      -0.066  12.614  20.214  0.00  0.00    +0.000 C 
ATOM     26  C   UNL     1      -1.604  12.498  20.251  0.00  0.00    +0.000 C 
ATOM     27  N   UNL     1      -2.075  12.149  21.604  0.00  0.00    +0.000 N 
ATOM     28  C   UNL     1      -1.354  11.049  22.264  0.00  0.00    +0.000 C 
ATOM     29  C   UNL     1       0.177  11.166  22.095  0.00  0.00    +0.000 C 
BRANCH  27  30
ATOM     30  C   UNL     1      -2.925  12.988  22.312  0.00  0.00    +0.000 A 
ATOM     31  C   UNL     1      -4.322  12.793  22.243  0.00  0.00    +0.000 A 
ATOM     32  C   UNL     1      -5.229  13.553  22.986  0.00  0.00    +0.000 A 
ATOM     33  C   UNL     1      -4.765  14.558  23.815  0.00  0.00    +0.000 A 
ATOM     34  C   UNL     1      -3.400  14.803  23.887  0.00  0.00    +0.000 A 
ATOM     35  C   UNL     1      -2.470  14.034  23.153  0.00  0.00    +0.000 A 
ATOM     36  C   UNL     1      -1.013  14.357  23.374  0.00  0.00    +0.000 C 
ENDBRANCH  27  30
ENDBRANCH  23  24
ENDBRANCH  20  23
ENDBRANCH  19  20
ENDBRANCH   1  19
TORSDOF 11
ENDMDL
