MODEL 1
REMARK VINA RESULT:      -4.6      0.000      0.000
REMARK  Name = 
REMARK  5 active torsions:
REMARK  status: ('A' for Active; 'I' for Inactive)
REMARK    1  A    between atoms: C_1  and  C_2
REMARK    2  A    between atoms: C_4  and  C_5
REMARK    3  A    between atoms: C_5  and  N_6
REMARK    4  A    between atoms: C_7  and  C_8
REMARK    5  A    between atoms: N_9  and  C_10
REMARK                            x       y       z     vdW  Elec       q    Type
REMARK                         _______ _______ _______ _____ _____    ______ ____
ROOT
ATOM      1  C   UNL     1       2.107   3.743  17.833  0.00  0.00    +0.000 C 
ATOM      2  C   UNL     1       3.434   4.287  17.431  0.00  0.00    +0.000 A 
ATOM      3  C   UNL     1       4.507   3.644  16.847  0.00  0.00    +0.000 A 
ATOM      4  C   UNL     1       5.552   4.590  16.657  0.00  0.00    +0.000 A 
ATOM      5  C   UNL     1       5.076   5.805  17.135  0.00  0.00    +0.000 A 
ATOM      6  C   UNL     1       5.759   7.129  17.169  0.00  0.00    +0.000 C 
ATOM      7  N   UNL     1       3.793   5.608  17.600  0.00  0.00    +0.000 N 
ATOM      8  C   UNL     1       2.930   6.619  18.180  0.00  0.00    +0.000 C 
ENDROOT
BRANCH   4   9
ATOM      9  C   UNL     1       6.907   4.314  16.088  0.00  0.00    +0.000 C 
BRANCH   9  10
ATOM     10  N   UNL     1       7.872   4.214  17.176  0.00  0.00    +0.000 NA
ATOM     11  H   UNL     1       8.191   5.152  17.413  0.00  0.00    +0.000 HD
ATOM     12  H   UNL     1       8.687   3.706  16.847  0.00  0.00    +0.000 HD
ENDBRANCH   9  10
ENDBRANCH   4   9
TORSDOF 2
ENDMDL
MODEL 2
REMARK VINA RESULT:      -4.6      2.323      4.539
REMARK  Name = 
REMARK  5 active torsions:
REMARK  status: ('A' for Active; 'I' for Inactive)
REMARK    1  A    between atoms: C_1  and  C_2
REMARK    2  A    between atoms: C_4  and  C_5
REMARK    3  A    between atoms: C_5  and  N_6
REMARK    4  A    between atoms: C_7  and  C_8
REMARK    5  A    between atoms: N_9  and  C_10
REMARK                            x       y       z     vdW  Elec       q    Type
REMARK                         _______ _______ _______ _____ _____    ______ ____
ROOT
ATOM      1  C   UNL     1       4.075   6.711  17.345  0.00  0.00    +0.000 C 
ATOM      2  C   UNL     1       3.545   5.469  17.974  0.00  0.00    +0.000 A 
ATOM      3  C   UNL     1       2.271   4.939  17.933  0.00  0.00    +0.000 A 
ATOM      4  C   UNL     1       2.258   3.736  18.693  0.00  0.00    +0.000 A 
ATOM      5  C   UNL     1       3.549   3.563  19.179  0.00  0.00    +0.000 A 
ATOM      6  C   UNL     1       4.090   2.460  20.025  0.00  0.00    +0.000 C 
ATOM      7  N   UNL     1       4.318   4.618  18.736  0.00  0.00    +0.000 N 
ATOM      8  C   UNL     1       5.726   4.824  19.012  0.00  0.00    +0.000 C 
ENDROOT
BRANCH   4   9
ATOM      9  C   UNL     1       1.075   2.857  18.945  0.00  0.00    +0.000 C 
BRANCH   9  10
ATOM     10  N   UNL     1       0.485   3.205  20.232  0.00  0.00    +0.000 NA
ATOM     11  H   UNL     1       1.039   2.773  20.969  0.00  0.00    +0.000 HD
ATOM     12  H   UNL     1      -0.442   2.797  20.289  0.00  0.00    +0.000 HD
ENDBRANCH   9  10
ENDBRANCH   4   9
TORSDOF 2
ENDMDL
MODEL 3
REMARK VINA RESULT:      -4.6      2.508      4.828
REMARK  Name = 
REMARK  5 active torsions:
REMARK  status: ('A' for Active; 'I' for Inactive)
REMARK    1  A    between atoms: C_1  and  C_2
REMARK    2  A    between atoms: C_4  and  C_5
REMARK    3  A    between atoms: C_5  and  N_6
REMARK    4  A    between atoms: C_7  and  C_8
REMARK    5  A    between atoms: N_9  and  C_10
REMARK                            x       y       z     vdW  Elec       q    Type
REMARK                         _______ _______ _______ _____ _____    ______ ____
ROOT
ATOM      1  C   UNL     1       2.982   6.828  18.065  0.00  0.00    +0.000 C 
ATOM      2  C   UNL     1       2.698   5.482  18.637  0.00  0.00    +0.000 A 
ATOM      3  C   UNL     1       1.898   5.135  19.707  0.00  0.00    +0.000 A 
ATOM      4  C   UNL     1       1.950   3.721  19.868  0.00  0.00    +0.000 A 
ATOM      5  C   UNL     1       2.791   3.241  18.871  0.00  0.00    +0.000 A 
ATOM      6  C   UNL     1       3.185   1.834  18.578  0.00  0.00    +0.000 C 
ATOM      7  N   UNL     1       3.236   4.317  18.132  0.00  0.00    +0.000 N 
ATOM      8  C   UNL     1       4.131   4.259  16.994  0.00  0.00    +0.000 C 
ENDROOT
BRANCH   4   9
ATOM      9  C   UNL     1       1.261   2.923  20.928  0.00  0.00    +0.000 C 
BRANCH   9  10
ATOM     10  N   UNL     1       2.155   2.770  22.069  0.00  0.00    +0.000 NA
ATOM     11  H   UNL     1       2.202   1.782  22.313  0.00  0.00    +0.000 HD
ATOM     12  H   UNL     1       1.752   3.246  22.869  0.00  0.00    +0.000 HD
ENDBRANCH   9  10
ENDBRANCH   4   9
TORSDOF 2
ENDMDL
MODEL 4
REMARK VINA RESULT:      -4.6      1.956      3.116
REMARK  Name = 
REMARK  5 active torsions:
REMARK  status: ('A' for Active; 'I' for Inactive)
REMARK    1  A    between atoms: C_1  and  C_2
REMARK    2  A    between atoms: C_4  and  C_5
REMARK    3  A    between atoms: C_5  and  N_6
REMARK    4  A    between atoms: C_7  and  C_8
REMARK    5  A    between atoms: N_9  and  C_10
REMARK                            x       y       z     vdW  Elec       q    Type
REMARK                         _______ _______ _______ _____ _____    ______ ____
ROOT
ATOM      1  C   UNL     1       6.099   3.751  14.826  0.00  0.00    +0.000 C 
ATOM      2  C   UNL     1       6.239   4.395  16.162  0.00  0.00    +0.000 A 
ATOM      3  C   UNL     1       7.319   5.062  16.705  0.00  0.00    +0.000 A 
ATOM      4  C   UNL     1       6.968   5.497  18.014  0.00  0.00    +0.000 A 
ATOM      5  C   UNL     1       5.660   5.077  18.232  0.00  0.00    +0.000 A 
ATOM      6  C   UNL     1       4.803   5.277  19.434  0.00  0.00    +0.000 C 
ATOM      7  N   UNL     1       5.231   4.412  17.103  0.00  0.00    +0.000 N 
ATOM      8  C   UNL     1       3.924   3.816  16.908  0.00  0.00    +0.000 C 
ENDROOT
BRANCH   4   9
ATOM      9  C   UNL     1       7.852   6.228  18.973  0.00  0.00    +0.000 C 
BRANCH   9  10
ATOM     10  N   UNL     1       8.300   5.305  20.009  0.00  0.00    +0.000 NA
ATOM     11  H   UNL     1       8.526   5.842  20.845  0.00  0.00    +0.000 HD
ATOM     12  H   UNL     1       9.163   4.865  19.706  0.00  0.00    +0.000 HD
ENDBRANCH   9  10
ENDBRANCH   4   9
TORSDOF 2
ENDMDL
MODEL 5
REMARK VINA RESULT:      -4.5      2.135      4.683
REMARK  Name = 
REMARK  5 active torsions:
REMARK  status: ('A' for Active; 'I' for Inactive)
REMARK    1  A    between atoms: C_1  and  C_2
REMARK    2  A    between atoms: C_4  and  C_5
REMARK    3  A    between atoms: C_5  and  N_6
REMARK    4  A    between atoms: C_7  and  C_8
REMARK    5  A    between atoms: N_9  and  C_10
REMARK                            x       y       z     vdW  Elec       q    Type
REMARK                         _______ _______ _______ _____ _____    ______ ____
ROOT
ATOM      1  C   UNL     1       3.614   6.776  17.717  0.00  0.00    +0.000 C 
ATOM      2  C   UNL     1       3.093   5.414  18.022  0.00  0.00    +0.000 A 
ATOM      3  C   UNL     1       1.882   5.040  18.569  0.00  0.00    +0.000 A 
ATOM      4  C   UNL     1       1.850   3.621  18.666  0.00  0.00    +0.000 A 
ATOM      5  C   UNL     1       3.063   3.164  18.163  0.00  0.00    +0.000 A 
ATOM      6  C   UNL     1       3.548   1.762  18.023  0.00  0.00    +0.000 C 
ATOM      7  N   UNL     1       3.805   4.259  17.775  0.00  0.00    +0.000 N 
ATOM      8  C   UNL     1       5.132   4.229  17.193  0.00  0.00    +0.000 C 
ENDROOT
BRANCH   4   9
ATOM      9  C   UNL     1       0.741   2.795  19.235  0.00  0.00    +0.000 C 
BRANCH   9  10
ATOM     10  N   UNL     1       0.677   3.007  20.676  0.00  0.00    +0.000 NA
ATOM     11  H   UNL     1      -0.189   3.497  20.893  0.00  0.00    +0.000 HD
ATOM     12  H   UNL     1       1.435   3.623  20.951  0.00  0.00    +0.000 HD
ENDBRANCH   9  10
ENDBRANCH   4   9
TORSDOF 2
ENDMDL
MODEL 6
REMARK VINA RESULT:      -4.5      2.924      4.760
REMARK  Name = 
REMARK  5 active torsions:
REMARK  status: ('A' for Active; 'I' for Inactive)
REMARK    1  A    between atoms: C_1  and  C_2
REMARK    2  A    between atoms: C_4  and  C_5
REMARK    3  A    between atoms: C_5  and  N_6
REMARK    4  A    between atoms: C_7  and  C_8
REMARK    5  A    between atoms: N_9  and  C_10
REMARK                            x       y       z     vdW  Elec       q    Type
REMARK                         _______ _______ _______ _____ _____    ______ ____
ROOT
ATOM      1  C   UNL     1       1.477   2.576  21.569  0.00  0.00    +0.000 C 
ATOM      2  C   UNL     1       1.902   3.687  20.673  0.00  0.00    +0.000 A 
ATOM      3  C   UNL     1       1.774   5.051  20.845  0.00  0.00    +0.000 A 
ATOM      4  C   UNL     1       2.333   5.703  19.710  0.00  0.00    +0.000 A 
ATOM      5  C   UNL     1       2.797   4.700  18.867  0.00  0.00    +0.000 A 
ATOM      6  C   UNL     1       3.478   4.828  17.548  0.00  0.00    +0.000 C 
ATOM      7  N   UNL     1       2.531   3.485  19.462  0.00  0.00    +0.000 N 
ATOM      8  C   UNL     1       2.855   2.180  18.921  0.00  0.00    +0.000 C 
ENDROOT
BRANCH   4   9
ATOM      9  C   UNL     1       2.374   7.178  19.465  0.00  0.00    +0.000 C 
BRANCH   9  10
ATOM     10  N   UNL     1       1.889   7.874  20.651  0.00  0.00    +0.000 NA
ATOM     11  H   UNL     1       2.488   7.628  21.437  0.00  0.00    +0.000 HD
ATOM     12  H   UNL     1       0.961   7.531  20.876  0.00  0.00    +0.000 HD
ENDBRANCH   9  10
ENDBRANCH   4   9
TORSDOF 2
ENDMDL
MODEL 7
REMARK VINA RESULT:      -4.5      1.930      3.282
REMARK  Name = 
REMARK  5 active torsions:
REMARK  status: ('A' for Active; 'I' for Inactive)
REMARK    1  A    between atoms: C_1  and  C_2
REMARK    2  A    between atoms: C_4  and  C_5
REMARK    3  A    between atoms: C_5  and  N_6
REMARK    4  A    between atoms: C_7  and  C_8
REMARK    5  A    between atoms: N_9  and  C_10
REMARK                            x       y       z     vdW  Elec       q    Type
REMARK                         _______ _______ _______ _____ _____    ______ ____
ROOT
ATOM      1  C   UNL     1       5.000   6.494  16.278  0.00  0.00    +0.000 C 
ATOM      2  C   UNL     1       4.382   5.520  17.220  0.00  0.00    +0.000 A 
ATOM      3  C   UNL     1       4.662   4.181  17.406  0.00  0.00    +0.000 A 
ATOM      4  C   UNL     1       3.801   3.677  18.421  0.00  0.00    +0.000 A 
ATOM      5  C   UNL     1       3.012   4.744  18.835  0.00  0.00    +0.000 A 
ATOM      6  C   UNL     1       1.951   4.772  19.881  0.00  0.00    +0.000 C 
ATOM      7  N   UNL     1       3.374   5.854  18.100  0.00  0.00    +0.000 N 
ATOM      8  C   UNL     1       2.801   7.180  18.218  0.00  0.00    +0.000 C 
ENDROOT
BRANCH   4   9
ATOM      9  C   UNL     1       3.740   2.267  18.914  0.00  0.00    +0.000 C 
BRANCH   9  10
ATOM     10  N   UNL     1       4.885   2.013  19.781  0.00  0.00    +0.000 NA
ATOM     11  H   UNL     1       5.730   2.309  19.296  0.00  0.00    +0.000 HD
ATOM     12  H   UNL     1       4.970   1.012  19.927  0.00  0.00    +0.000 HD
ENDBRANCH   9  10
ENDBRANCH   4   9
TORSDOF 2
ENDMDL
MODEL 8
REMARK VINA RESULT:      -4.5      2.722      4.042
REMARK  Name = 
REMARK  5 active torsions:
REMARK  status: ('A' for Active; 'I' for Inactive)
REMARK    1  A    between atoms: C_1  and  C_2
REMARK    2  A    between atoms: C_4  and  C_5
REMARK    3  A    between atoms: C_5  and  N_6
REMARK    4  A    between atoms: C_7  and  C_8
REMARK    5  A    between atoms: N_9  and  C_10
REMARK                            x       y       z     vdW  Elec       q    Type
REMARK                         _______ _______ _______ _____ _____    ______ ____
ROOT
ATOM      1  C   UNL     1       3.118   7.195  18.047  0.00  0.00    +0.000 C 
ATOM      2  C   UNL     1       2.791   5.774  18.350  0.00  0.00    +0.000 A 
ATOM      3  C   UNL     1       3.045   4.638  17.607  0.00  0.00    +0.000 A 
ATOM      4  C   UNL     1       2.537   3.513  18.316  0.00  0.00    +0.000 A 
ATOM      5  C   UNL     1       1.984   4.005  19.492  0.00  0.00    +0.000 A 
ATOM      6  C   UNL     1       1.324   3.257  20.600  0.00  0.00    +0.000 C 
ATOM      7  N   UNL     1       2.144   5.375  19.500  0.00  0.00    +0.000 N 
ATOM      8  C   UNL     1       1.712   6.279  20.547  0.00  0.00    +0.000 C 
ENDROOT
BRANCH   4   9
ATOM      9  C   UNL     1       2.566   2.090  17.860  0.00  0.00    +0.000 C 
BRANCH   9  10
ATOM     10  N   UNL     1       3.836   1.488  18.250  0.00  0.00    +0.000 NA
ATOM     11  H   UNL     1       3.874   0.542  17.875  0.00  0.00    +0.000 HD
ATOM     12  H   UNL     1       3.860   1.400  19.261  0.00  0.00    +0.000 HD
ENDBRANCH   9  10
ENDBRANCH   4   9
TORSDOF 2
ENDMDL
MODEL 9
REMARK VINA RESULT:      -4.5      1.652      3.558
REMARK  Name = 
REMARK  5 active torsions:
REMARK  status: ('A' for Active; 'I' for Inactive)
REMARK    1  A    between atoms: C_1  and  C_2
REMARK    2  A    between atoms: C_4  and  C_5
REMARK    3  A    between atoms: C_5  and  N_6
REMARK    4  A    between atoms: C_7  and  C_8
REMARK    5  A    between atoms: N_9  and  C_10
REMARK                            x       y       z     vdW  Elec       q    Type
REMARK                         _______ _______ _______ _____ _____    ______ ____
ROOT
ATOM      1  C   UNL     1       2.422   7.255  18.760  0.00  0.00    +0.000 C 
ATOM      2  C   UNL     1       2.795   5.916  18.222  0.00  0.00    +0.000 A 
ATOM      3  C   UNL     1       2.149   4.704  18.362  0.00  0.00    +0.000 A 
ATOM      4  C   UNL     1       2.897   3.713  17.667  0.00  0.00    +0.000 A 
ATOM      5  C   UNL     1       3.992   4.363  17.110  0.00  0.00    +0.000 A 
ATOM      6  C   UNL     1       5.089   3.797  16.274  0.00  0.00    +0.000 C 
ATOM      7  N   UNL     1       3.918   5.696  17.453  0.00  0.00    +0.000 N 
ATOM      8  C   UNL     1       4.862   6.729  17.075  0.00  0.00    +0.000 C 
ENDROOT
BRANCH   4   9
ATOM      9  C   UNL     1       2.578   2.254  17.587  0.00  0.00    +0.000 C 
BRANCH   9  10
ATOM     10  N   UNL     1       1.684   1.899  18.683  0.00  0.00    +0.000 NA
ATOM     11  H   UNL     1       1.368   0.941  18.546  0.00  0.00    +0.000 HD
ATOM     12  H   UNL     1       0.857   2.486  18.636  0.00  0.00    +0.000 HD
ENDBRANCH   9  10
ENDBRANCH   4   9
TORSDOF 2
ENDMDL
