MODEL 1
REMARK VINA RESULT:      -7.6      0.000      0.000
REMARK  Name = 
REMARK  8 active torsions:
REMARK  status: ('A' for Active; 'I' for Inactive)
REMARK    1  A    between atoms: C_1  and  O_2
REMARK    2  A    between atoms: O_2  and  C_3
REMARK    3  A    between atoms: C_6  and  C_7
REMARK    4  A    between atoms: C_15  and  N_16
REMARK    5  A    between atoms: N_16  and  C_17
REMARK    6  A    between atoms: C_17  and  C_18
REMARK    7  A    between atoms: C_18  and  O_19
REMARK    8  A    between atoms: C_20  and  C_21
REMARK                            x       y       z     vdW  Elec       q    Type
REMARK                         _______ _______ _______ _____ _____    ______ ____
ROOT
ATOM      1  C   UNL     1       2.643   4.019  18.281  0.00  0.00    +0.000 C 
ATOM      2  C   UNL     1       4.002   4.097  17.611  0.00  0.00    +0.000 A 
ATOM      3  C   UNL     1       4.160   4.460  16.273  0.00  0.00    +0.000 A 
ATOM      4  C   UNL     1       5.445   4.643  15.809  0.00  0.00    +0.000 A 
ATOM      5  C   UNL     1       6.549   4.517  16.629  0.00  0.00    +0.000 A 
ATOM      6  C   UNL     1       6.421   4.163  17.948  0.00  0.00    +0.000 A 
ATOM      7  C   UNL     1       5.140   3.901  18.422  0.00  0.00    +0.000 A 
ATOM      8  O   UNL     1       5.071   3.515  19.723  0.00  0.00    +0.000 OA
ATOM      9  C   UNL     1       3.808   3.154  20.311  0.00  0.00    +0.000 C 
ATOM     10  C   UNL     1       2.754   2.791  19.240  0.00  0.00    +0.000 C 
ATOM     11  C   UNL     1       1.396   2.283  19.744  0.00  0.00    +0.000 C 
ATOM     12  O   UNL     1       7.707   4.794  15.986  0.00  0.00    +0.000 OA
ATOM     13  C   UNL     1       7.236   4.825  14.627  0.00  0.00    +0.000 C 
ATOM     14  O   UNL     1       5.802   4.961  14.530  0.00  0.00    +0.000 OA
ENDROOT
BRANCH   1  18
ATOM     15  C   UNL     1       1.753   7.884  20.144  0.00  0.00    +0.000 A 
ATOM     16  C   UNL     1       1.448   6.712  20.817  0.00  0.00    +0.000 A 
ATOM     17  C   UNL     1       1.696   5.482  20.211  0.00  0.00    +0.000 A 
ATOM     18  C   UNL     1       2.254   5.376  18.913  0.00  0.00    +0.000 A 
ATOM     19  C   UNL     1       2.481   6.578  18.233  0.00  0.00    +0.000 A 
ATOM     20  C   UNL     1       2.216   7.817  18.832  0.00  0.00    +0.000 A 
BRANCH  15  22
ATOM     21  C   UNL     1       0.734   8.892  21.980  0.00  0.00    +0.000 C 
ATOM     22  O   UNL     1       1.546   9.055  20.815  0.00  0.00    +0.000 OA
ENDBRANCH  15  22
ENDBRANCH   1  18
BRANCH   9  23
ATOM     23  N   UNL     1       4.084   2.087  21.298  0.00  0.00    +0.000 NA
ATOM     24  H   UNL     1       3.268   1.474  21.285  0.00  0.00    +0.000 HD
BRANCH  23  25
ATOM     25  C   UNL     1       5.243   1.304  20.792  0.00  0.00    +0.000 C 
BRANCH  25  26
ATOM     26  C   UNL     1       5.819   0.298  21.786  0.00  0.00    +0.000 C 
BRANCH  26  27
ATOM     27  O   UNL     1       6.714   0.929  22.694  0.00  0.00    +0.000 OA
ATOM     28  H   UNL     1       6.478   1.869  22.679  0.00  0.00    +0.000 HD
ENDBRANCH  26  27
ENDBRANCH  25  26
ENDBRANCH  23  25
ENDBRANCH   9  23
TORSDOF 6
ENDMDL
MODEL 2
REMARK VINA RESULT:      -6.8      1.235      1.554
REMARK  Name = 
REMARK  8 active torsions:
REMARK  status: ('A' for Active; 'I' for Inactive)
REMARK    1  A    between atoms: C_1  and  O_2
REMARK    2  A    between atoms: O_2  and  C_3
REMARK    3  A    between atoms: C_6  and  C_7
REMARK    4  A    between atoms: C_15  and  N_16
REMARK    5  A    between atoms: N_16  and  C_17
REMARK    6  A    between atoms: C_17  and  C_18
REMARK    7  A    between atoms: C_18  and  O_19
REMARK    8  A    between atoms: C_20  and  C_21
REMARK                            x       y       z     vdW  Elec       q    Type
REMARK                         _______ _______ _______ _____ _____    ______ ____
ROOT
ATOM      1  C   UNL     1       2.524   4.733  17.871  0.00  0.00    +0.000 C 
ATOM      2  C   UNL     1       3.939   4.637  17.333  0.00  0.00    +0.000 A 
ATOM      3  C   UNL     1       4.285   5.058  16.048  0.00  0.00    +0.000 A 
ATOM      4  C   UNL     1       5.623   5.064  15.717  0.00  0.00    +0.000 A 
ATOM      5  C   UNL     1       6.606   4.710  16.620  0.00  0.00    +0.000 A 
ATOM      6  C   UNL     1       6.294   4.295  17.888  0.00  0.00    +0.000 A 
ATOM      7  C   UNL     1       4.946   4.210  18.224  0.00  0.00    +0.000 A 
ATOM      8  O   UNL     1       4.689   3.755  19.478  0.00  0.00    +0.000 OA
ATOM      9  C   UNL     1       3.333   3.562  19.919  0.00  0.00    +0.000 C 
ATOM     10  C   UNL     1       2.349   3.443  18.733  0.00  0.00    +0.000 C 
ATOM     11  C   UNL     1       0.886   3.124  19.071  0.00  0.00    +0.000 C 
ATOM     12  O   UNL     1       7.852   4.840  16.106  0.00  0.00    +0.000 OA
ATOM     13  C   UNL     1       7.530   5.035  14.718  0.00  0.00    +0.000 C 
ATOM     14  O   UNL     1       6.151   5.403  14.505  0.00  0.00    +0.000 OA
ENDROOT
BRANCH   1  18
ATOM     15  C   UNL     1       1.625   8.550  19.824  0.00  0.00    +0.000 A 
ATOM     16  C   UNL     1       2.022   8.536  18.498  0.00  0.00    +0.000 A 
ATOM     17  C   UNL     1       2.345   7.326  17.885  0.00  0.00    +0.000 A 
ATOM     18  C   UNL     1       2.284   6.090  18.573  0.00  0.00    +0.000 A 
ATOM     19  C   UNL     1       1.950   6.148  19.931  0.00  0.00    +0.000 A 
ATOM     20  C   UNL     1       1.643   7.365  20.556  0.00  0.00    +0.000 A 
BRANCH  15  22
ATOM     21  C   UNL     1      -0.155   9.919  20.443  0.00  0.00    +0.000 C 
ATOM     22  O   UNL     1       1.262   9.758  20.349  0.00  0.00    +0.000 OA
ENDBRANCH  15  22
ENDBRANCH   1  18
BRANCH   9  23
ATOM     23  N   UNL     1       3.343   2.402  20.838  0.00  0.00    +0.000 NA
ATOM     24  H   UNL     1       2.750   1.694  20.403  0.00  0.00    +0.000 HD
BRANCH  23  25
ATOM     25  C   UNL     1       4.732   1.870  20.866  0.00  0.00    +0.000 C 
BRANCH  25  26
ATOM     26  C   UNL     1       4.939   0.579  20.077  0.00  0.00    +0.000 C 
BRANCH  26  27
ATOM     27  O   UNL     1       4.451   0.707  18.747  0.00  0.00    +0.000 OA
ATOM     28  H   UNL     1       4.032  -0.142  18.542  0.00  0.00    +0.000 HD
ENDBRANCH  26  27
ENDBRANCH  25  26
ENDBRANCH  23  25
ENDBRANCH   9  23
TORSDOF 6
ENDMDL
MODEL 3
REMARK VINA RESULT:      -6.6      2.334      2.776
REMARK  Name = 
REMARK  8 active torsions:
REMARK  status: ('A' for Active; 'I' for Inactive)
REMARK    1  A    between atoms: C_1  and  O_2
REMARK    2  A    between atoms: O_2  and  C_3
REMARK    3  A    between atoms: C_6  and  C_7
REMARK    4  A    between atoms: C_15  and  N_16
REMARK    5  A    between atoms: N_16  and  C_17
REMARK    6  A    between atoms: C_17  and  C_18
REMARK    7  A    between atoms: C_18  and  O_19
REMARK    8  A    between atoms: C_20  and  C_21
REMARK                            x       y       z     vdW  Elec       q    Type
REMARK                         _______ _______ _______ _____ _____    ______ ____
ROOT
ATOM      1  C   UNL     1       2.853   5.958  17.917  0.00  0.00    +0.000 C 
ATOM      2  C   UNL     1       4.358   6.137  17.988  0.00  0.00    +0.000 A 
ATOM      3  C   UNL     1       5.035   7.109  17.251  0.00  0.00    +0.000 A 
ATOM      4  C   UNL     1       6.378   7.281  17.504  0.00  0.00    +0.000 A 
ATOM      5  C   UNL     1       7.043   6.558  18.475  0.00  0.00    +0.000 A 
ATOM      6  C   UNL     1       6.401   5.599  19.214  0.00  0.00    +0.000 A 
ATOM      7  C   UNL     1       5.062   5.355  18.928  0.00  0.00    +0.000 A 
ATOM      8  O   UNL     1       4.484   4.367  19.660  0.00  0.00    +0.000 OA
ATOM      9  C   UNL     1       3.120   3.978  19.410  0.00  0.00    +0.000 C 
ATOM     10  C   UNL     1       2.642   4.413  18.007  0.00  0.00    +0.000 C 
ATOM     11  C   UNL     1       1.239   3.960  17.578  0.00  0.00    +0.000 C 
ATOM     12  O   UNL     1       8.340   6.924  18.596  0.00  0.00    +0.000 OA
ATOM     13  C   UNL     1       8.481   7.738  17.419  0.00  0.00    +0.000 C 
ATOM     14  O   UNL     1       7.214   8.150  16.863  0.00  0.00    +0.000 OA
ENDROOT
BRANCH   1  18
ATOM     15  C   UNL     1       1.025   8.504  20.978  0.00  0.00    +0.000 A 
ATOM     16  C   UNL     1       1.216   7.157  21.233  0.00  0.00    +0.000 A 
ATOM     17  C   UNL     1       1.763   6.337  20.247  0.00  0.00    +0.000 A 
ATOM     18  C   UNL     1       2.136   6.831  18.973  0.00  0.00    +0.000 A 
ATOM     19  C   UNL     1       1.861   8.181  18.724  0.00  0.00    +0.000 A 
ATOM     20  C   UNL     1       1.294   9.004  19.706  0.00  0.00    +0.000 A 
BRANCH  15  22
ATOM     21  C   UNL     1      -0.135  10.440  21.555  0.00  0.00    +0.000 C 
ATOM     22  O   UNL     1       0.545   9.266  22.005  0.00  0.00    +0.000 OA
ENDBRANCH  15  22
ENDBRANCH   1  18
BRANCH   9  23
ATOM     23  N   UNL     1       3.035   2.524  19.673  0.00  0.00    +0.000 NA
ATOM     24  H   UNL     1       3.933   2.134  19.385  0.00  0.00    +0.000 HD
BRANCH  23  25
ATOM     25  C   UNL     1       2.919   2.345  21.146  0.00  0.00    +0.000 C 
BRANCH  25  26
ATOM     26  C   UNL     1       1.657   2.943  21.766  0.00  0.00    +0.000 C 
BRANCH  26  27
ATOM     27  O   UNL     1       0.555   2.855  20.871  0.00  0.00    +0.000 OA
ATOM     28  H   UNL     1      -0.127   3.436  21.242  0.00  0.00    +0.000 HD
ENDBRANCH  26  27
ENDBRANCH  25  26
ENDBRANCH  23  25
ENDBRANCH   9  23
TORSDOF 6
ENDMDL
MODEL 4
REMARK VINA RESULT:      -6.5      8.083     10.125
REMARK  Name = 
REMARK  8 active torsions:
REMARK  status: ('A' for Active; 'I' for Inactive)
REMARK    1  A    between atoms: C_1  and  O_2
REMARK    2  A    between atoms: O_2  and  C_3
REMARK    3  A    between atoms: C_6  and  C_7
REMARK    4  A    between atoms: C_15  and  N_16
REMARK    5  A    between atoms: N_16  and  C_17
REMARK    6  A    between atoms: C_17  and  C_18
REMARK    7  A    between atoms: C_18  and  O_19
REMARK    8  A    between atoms: C_20  and  C_21
REMARK                            x       y       z     vdW  Elec       q    Type
REMARK                         _______ _______ _______ _____ _____    ______ ____
ROOT
ATOM      1  C   UNL     1       0.946  11.325  19.466  0.00  0.00    +0.000 C 
ATOM      2  C   UNL     1       1.402  12.768  19.360  0.00  0.00    +0.000 A 
ATOM      3  C   UNL     1       2.296  13.205  18.381  0.00  0.00    +0.000 A 
ATOM      4  C   UNL     1       2.525  14.560  18.285  0.00  0.00    +0.000 A 
ATOM      5  C   UNL     1       1.876  15.475  19.090  0.00  0.00    +0.000 A 
ATOM      6  C   UNL     1       0.992  15.073  20.058  0.00  0.00    +0.000 A 
ATOM      7  C   UNL     1       0.798  13.706  20.224  0.00  0.00    +0.000 A 
ATOM      8  O   UNL     1      -0.055  13.359  21.223  0.00  0.00    +0.000 OA
ATOM      9  C   UNL     1      -0.287  11.973  21.535  0.00  0.00    +0.000 C 
ATOM     10  C   UNL     1       0.842  11.063  21.001  0.00  0.00    +0.000 C 
ATOM     11  C   UNL     1       0.766   9.573  21.366  0.00  0.00    +0.000 C 
ATOM     12  O   UNL     1       2.206  16.753  18.791  0.00  0.00    +0.000 OA
ATOM     13  C   UNL     1       3.327  16.524  17.921  0.00  0.00    +0.000 C 
ATOM     14  O   UNL     1       3.388  15.171  17.422  0.00  0.00    +0.000 OA
ENDROOT
BRANCH   1  18
ATOM     15  C   UNL     1      -2.538  10.690  16.886  0.00  0.00    +0.000 A 
ATOM     16  C   UNL     1      -2.420  11.870  17.599  0.00  0.00    +0.000 A 
ATOM     17  C   UNL     1      -1.331  12.059  18.449  0.00  0.00    +0.000 A 
ATOM     18  C   UNL     1      -0.324  11.078  18.619  0.00  0.00    +0.000 A 
ATOM     19  C   UNL     1      -0.513   9.868  17.941  0.00  0.00    +0.000 A 
ATOM     20  C   UNL     1      -1.616   9.667  17.100  0.00  0.00    +0.000 A 
BRANCH  15  22
ATOM     21  C   UNL     1      -3.197  10.193  14.708  0.00  0.00    +0.000 C 
ATOM     22  O   UNL     1      -3.592  10.590  16.023  0.00  0.00    +0.000 OA
ENDBRANCH  15  22
ENDBRANCH   1  18
BRANCH   9  23
ATOM     23  N   UNL     1      -0.512  11.895  22.995  0.00  0.00    +0.000 NA
ATOM     24  H   UNL     1      -0.496  12.857  23.334  0.00  0.00    +0.000 HD
BRANCH  23  25
ATOM     25  C   UNL     1      -1.887  11.367  23.205  0.00  0.00    +0.000 C 
BRANCH  25  26
ATOM     26  C   UNL     1      -2.961  12.436  23.399  0.00  0.00    +0.000 C 
BRANCH  26  27
ATOM     27  O   UNL     1      -4.044  11.939  24.175  0.00  0.00    +0.000 OA
ATOM     28  H   UNL     1      -3.654  11.665  25.019  0.00  0.00    +0.000 HD
ENDBRANCH  26  27
ENDBRANCH  25  26
ENDBRANCH  23  25
ENDBRANCH   9  23
TORSDOF 6
ENDMDL
MODEL 5
REMARK VINA RESULT:      -6.5      8.236     11.695
REMARK  Name = 
REMARK  8 active torsions:
REMARK  status: ('A' for Active; 'I' for Inactive)
REMARK    1  A    between atoms: C_1  and  O_2
REMARK    2  A    between atoms: O_2  and  C_3
REMARK    3  A    between atoms: C_6  and  C_7
REMARK    4  A    between atoms: C_15  and  N_16
REMARK    5  A    between atoms: N_16  and  C_17
REMARK    6  A    between atoms: C_17  and  C_18
REMARK    7  A    between atoms: C_18  and  O_19
REMARK    8  A    between atoms: C_20  and  C_21
REMARK                            x       y       z     vdW  Elec       q    Type
REMARK                         _______ _______ _______ _____ _____    ______ ____
ROOT
ATOM      1  C   UNL     1      -0.468  11.807  19.893  0.00  0.00    +0.000 C 
ATOM      2  C   UNL     1      -1.854  12.069  20.452  0.00  0.00    +0.000 A 
ATOM      3  C   UNL     1      -2.077  12.374  21.796  0.00  0.00    +0.000 A 
ATOM      4  C   UNL     1      -3.353  12.740  22.163  0.00  0.00    +0.000 A 
ATOM      5  C   UNL     1      -4.381  12.848  21.248  0.00  0.00    +0.000 A 
ATOM      6  C   UNL     1      -4.189  12.558  19.922  0.00  0.00    +0.000 A 
ATOM      7  C   UNL     1      -2.927  12.115  19.537  0.00  0.00    +0.000 A 
ATOM      8  O   UNL     1      -2.799  11.801  18.221  0.00  0.00    +0.000 OA
ATOM      9  C   UNL     1      -1.561  11.271  17.715  0.00  0.00    +0.000 C 
ATOM     10  C   UNL     1      -0.684  10.674  18.840  0.00  0.00    +0.000 C 
ATOM     11  C   UNL     1       0.616   9.977  18.413  0.00  0.00    +0.000 C 
ATOM     12  O   UNL     1      -5.535  13.275  21.812  0.00  0.00    +0.000 OA
ATOM     13  C   UNL     1      -5.195  13.147  23.203  0.00  0.00    +0.000 C 
ATOM     14  O   UNL     1      -3.773  13.035  23.429  0.00  0.00    +0.000 OA
ENDROOT
BRANCH   1  18
ATOM     15  C   UNL     1       1.470  15.551  18.701  0.00  0.00    +0.000 A 
ATOM     16  C   UNL     1       0.111  15.537  18.967  0.00  0.00    +0.000 A 
ATOM     17  C   UNL     1      -0.514  14.340  19.310  0.00  0.00    +0.000 A 
ATOM     18  C   UNL     1       0.191  13.115  19.398  0.00  0.00    +0.000 A 
ATOM     19  C   UNL     1       1.547  13.151  19.050  0.00  0.00    +0.000 A 
ATOM     20  C   UNL     1       2.175  14.350  18.687  0.00  0.00    +0.000 A 
BRANCH  15  22
ATOM     21  C   UNL     1       1.135  17.668  17.789  0.00  0.00    +0.000 C 
ATOM     22  O   UNL     1       2.036  16.765  18.432  0.00  0.00    +0.000 OA
ENDBRANCH  15  22
ENDBRANCH   1  18
BRANCH   9  23
ATOM     23  N   UNL     1      -1.911  10.326  16.632  0.00  0.00    +0.000 NA
ATOM     24  H   UNL     1      -2.406   9.555  17.081  0.00  0.00    +0.000 HD
BRANCH  23  25
ATOM     25  C   UNL     1      -2.875  11.017  15.734  0.00  0.00    +0.000 C 
BRANCH  25  26
ATOM     26  C   UNL     1      -3.566  10.110  14.718  0.00  0.00    +0.000 C 
BRANCH  26  27
ATOM     27  O   UNL     1      -2.867  10.100  13.479  0.00  0.00    +0.000 OA
ATOM     28  H   UNL     1      -3.180  10.882  12.998  0.00  0.00    +0.000 HD
ENDBRANCH  26  27
ENDBRANCH  25  26
ENDBRANCH  23  25
ENDBRANCH   9  23
TORSDOF 6
ENDMDL
MODEL 6
REMARK VINA RESULT:      -6.5      7.376     12.049
REMARK  Name = 
REMARK  8 active torsions:
REMARK  status: ('A' for Active; 'I' for Inactive)
REMARK    1  A    between atoms: C_1  and  O_2
REMARK    2  A    between atoms: O_2  and  C_3
REMARK    3  A    between atoms: C_6  and  C_7
REMARK    4  A    between atoms: C_15  and  N_16
REMARK    5  A    between atoms: N_16  and  C_17
REMARK    6  A    between atoms: C_17  and  C_18
REMARK    7  A    between atoms: C_18  and  O_19
REMARK    8  A    between atoms: C_20  and  C_21
REMARK                            x       y       z     vdW  Elec       q    Type
REMARK                         _______ _______ _______ _____ _____    ______ ____
ROOT
ATOM      1  C   UNL     1      -1.739  13.456  20.894  0.00  0.00    +0.000 C 
ATOM      2  C   UNL     1      -2.854  13.830  21.853  0.00  0.00    +0.000 A 
ATOM      3  C   UNL     1      -3.594  15.007  21.724  0.00  0.00    +0.000 A 
ATOM      4  C   UNL     1      -4.678  15.173  22.558  0.00  0.00    +0.000 A 
ATOM      5  C   UNL     1      -5.062  14.208  23.468  0.00  0.00    +0.000 A 
ATOM      6  C   UNL     1      -4.355  13.043  23.613  0.00  0.00    +0.000 A 
ATOM      7  C   UNL     1      -3.214  12.882  22.834  0.00  0.00    +0.000 A 
ATOM      8  O   UNL     1      -2.526  11.730  23.045  0.00  0.00    +0.000 OA
ATOM      9  C   UNL     1      -1.293  11.478  22.346  0.00  0.00    +0.000 C 
ATOM     10  C   UNL     1      -0.662  12.778  21.799  0.00  0.00    +0.000 C 
ATOM     11  C   UNL     1       0.713  12.655  21.128  0.00  0.00    +0.000 C 
ATOM     12  O   UNL     1      -6.183  14.552  24.144  0.00  0.00    +0.000 OA
ATOM     13  C   UNL     1      -6.288  15.935  23.767  0.00  0.00    +0.000 C 
ATOM     14  O   UNL     1      -5.495  16.266  22.608  0.00  0.00    +0.000 OA
ENDROOT
BRANCH   1  18
ATOM     15  C   UNL     1      -3.299  11.318  17.403  0.00  0.00    +0.000 A 
ATOM     16  C   UNL     1      -4.145  11.616  18.458  0.00  0.00    +0.000 A 
ATOM     17  C   UNL     1      -3.642  12.263  19.586  0.00  0.00    +0.000 A 
ATOM     18  C   UNL     1      -2.281  12.633  19.702  0.00  0.00    +0.000 A 
ATOM     19  C   UNL     1      -1.439  12.251  18.650  0.00  0.00    +0.000 A 
ATOM     20  C   UNL     1      -1.937  11.584  17.523  0.00  0.00    +0.000 A 
BRANCH  15  22
ATOM     21  C   UNL     1      -2.930  10.546  15.237  0.00  0.00    +0.000 C 
ATOM     22  O   UNL     1      -3.864  10.740  16.301  0.00  0.00    +0.000 OA
ENDBRANCH  15  22
ENDBRANCH   1  18
BRANCH   9  23
ATOM     23  N   UNL     1      -0.429  10.707  23.267  0.00  0.00    +0.000 NA
ATOM     24  H   UNL     1      -0.936  10.655  24.151  0.00  0.00    +0.000 HD
BRANCH  23  25
ATOM     25  C   UNL     1      -0.326   9.325  22.726  0.00  0.00    +0.000 C 
BRANCH  25  26
ATOM     26  C   UNL     1       0.997   9.005  22.032  0.00  0.00    +0.000 C 
BRANCH  26  27
ATOM     27  O   UNL     1       2.104   9.356  22.853  0.00  0.00    +0.000 OA
ATOM     28  H   UNL     1       2.032  10.313  22.992  0.00  0.00    +0.000 HD
ENDBRANCH  26  27
ENDBRANCH  25  26
ENDBRANCH  23  25
ENDBRANCH   9  23
TORSDOF 6
ENDMDL
MODEL 7
REMARK VINA RESULT:      -6.4      1.414      1.955
REMARK  Name = 
REMARK  8 active torsions:
REMARK  status: ('A' for Active; 'I' for Inactive)
REMARK    1  A    between atoms: C_1  and  O_2
REMARK    2  A    between atoms: O_2  and  C_3
REMARK    3  A    between atoms: C_6  and  C_7
REMARK    4  A    between atoms: C_15  and  N_16
REMARK    5  A    between atoms: N_16  and  C_17
REMARK    6  A    between atoms: C_17  and  C_18
REMARK    7  A    between atoms: C_18  and  O_19
REMARK    8  A    between atoms: C_20  and  C_21
REMARK                            x       y       z     vdW  Elec       q    Type
REMARK                         _______ _______ _______ _____ _____    ______ ____
ROOT
ATOM      1  C   UNL     1       2.635   4.583  17.541  0.00  0.00    +0.000 C 
ATOM      2  C   UNL     1       4.053   4.538  17.003  0.00  0.00    +0.000 A 
ATOM      3  C   UNL     1       4.412   5.109  15.782  0.00  0.00    +0.000 A 
ATOM      4  C   UNL     1       5.752   5.142  15.462  0.00  0.00    +0.000 A 
ATOM      5  C   UNL     1       6.725   4.670  16.320  0.00  0.00    +0.000 A 
ATOM      6  C   UNL     1       6.400   4.106  17.527  0.00  0.00    +0.000 A 
ATOM      7  C   UNL     1       5.049   3.995  17.842  0.00  0.00    +0.000 A 
ATOM      8  O   UNL     1       4.779   3.393  19.029  0.00  0.00    +0.000 OA
ATOM      9  C   UNL     1       3.418   3.162  19.436  0.00  0.00    +0.000 C 
ATOM     10  C   UNL     1       2.441   3.199  18.238  0.00  0.00    +0.000 C 
ATOM     11  C   UNL     1       0.973   2.857  18.527  0.00  0.00    +0.000 C 
ATOM     12  O   UNL     1       7.976   4.849  15.834  0.00  0.00    +0.000 OA
ATOM     13  C   UNL     1       7.666   5.215  14.478  0.00  0.00    +0.000 C 
ATOM     14  O   UNL     1       6.292   5.621  14.303  0.00  0.00    +0.000 OA
ENDROOT
BRANCH   1  18
ATOM     15  C   UNL     1       1.758   8.135  19.951  0.00  0.00    +0.000 A 
ATOM     16  C   UNL     1       2.096   8.279  18.616  0.00  0.00    +0.000 A 
ATOM     17  C   UNL     1       2.411   7.153  17.857  0.00  0.00    +0.000 A 
ATOM     18  C   UNL     1       2.403   5.846  18.402  0.00  0.00    +0.000 A 
ATOM     19  C   UNL     1       2.130   5.744  19.771  0.00  0.00    +0.000 A 
ATOM     20  C   UNL     1       1.830   6.875  20.542  0.00  0.00    +0.000 A 
BRANCH  15  22
ATOM     21  C   UNL     1       1.073   9.020  21.994  0.00  0.00    +0.000 C 
ATOM     22  O   UNL     1       1.398   9.267  20.625  0.00  0.00    +0.000 OA
ENDBRANCH  15  22
ENDBRANCH   1  18
BRANCH   9  23
ATOM     23  N   UNL     1       3.410   1.899  20.206  0.00  0.00    +0.000 NA
ATOM     24  H   UNL     1       4.349   1.510  20.118  0.00  0.00    +0.000 HD
BRANCH  23  25
ATOM     25  C   UNL     1       3.202   2.253  21.637  0.00  0.00    +0.000 C 
BRANCH  25  26
ATOM     26  C   UNL     1       1.977   3.123  21.910  0.00  0.00    +0.000 C 
BRANCH  26  27
ATOM     27  O   UNL     1       0.945   2.374  22.539  0.00  0.00    +0.000 OA
ATOM     28  H   UNL     1       0.679   1.704  21.890  0.00  0.00    +0.000 HD
ENDBRANCH  26  27
ENDBRANCH  25  26
ENDBRANCH  23  25
ENDBRANCH   9  23
TORSDOF 6
ENDMDL
MODEL 8
REMARK VINA RESULT:      -6.3      8.084     11.490
REMARK  Name = 
REMARK  8 active torsions:
REMARK  status: ('A' for Active; 'I' for Inactive)
REMARK    1  A    between atoms: C_1  and  O_2
REMARK    2  A    between atoms: O_2  and  C_3
REMARK    3  A    between atoms: C_6  and  C_7
REMARK    4  A    between atoms: C_15  and  N_16
REMARK    5  A    between atoms: N_16  and  C_17
REMARK    6  A    between atoms: C_17  and  C_18
REMARK    7  A    between atoms: C_18  and  O_19
REMARK    8  A    between atoms: C_20  and  C_21
REMARK                            x       y       z     vdW  Elec       q    Type
REMARK                         _______ _______ _______ _____ _____    ______ ____
ROOT
ATOM      1  C   UNL     1       0.086  11.634  19.922  0.00  0.00    +0.000 C 
ATOM      2  C   UNL     1      -1.197  11.981  20.653  0.00  0.00    +0.000 A 
ATOM      3  C   UNL     1      -1.227  12.299  22.012  0.00  0.00    +0.000 A 
ATOM      4  C   UNL     1      -2.420  12.743  22.537  0.00  0.00    +0.000 A 
ATOM      5  C   UNL     1      -3.549  12.913  21.760  0.00  0.00    +0.000 A 
ATOM      6  C   UNL     1      -3.547  12.611  20.423  0.00  0.00    +0.000 A 
ATOM      7  C   UNL     1      -2.374  12.092  19.883  0.00  0.00    +0.000 A 
ATOM      8  O   UNL     1      -2.436  11.770  18.565  0.00  0.00    +0.000 OA
ATOM      9  C   UNL     1      -1.308  11.164  17.908  0.00  0.00    +0.000 C 
ATOM     10  C   UNL     1      -0.331  10.516  18.916  0.00  0.00    +0.000 C 
ATOM     11  C   UNL     1       0.858   9.741  18.332  0.00  0.00    +0.000 C 
ATOM     12  O   UNL     1      -4.592  13.410  22.464  0.00  0.00    +0.000 OA
ATOM     13  C   UNL     1      -4.085  13.262  23.801  0.00  0.00    +0.000 C 
ATOM     14  O   UNL     1      -2.655  13.064  23.843  0.00  0.00    +0.000 OA
ENDROOT
BRANCH   1  18
ATOM     15  C   UNL     1       2.074  15.255  18.461  0.00  0.00    +0.000 A 
ATOM     16  C   UNL     1       0.753  15.316  18.872  0.00  0.00    +0.000 A 
ATOM     17  C   UNL     1       0.108  14.158  19.302  0.00  0.00    +0.000 A 
ATOM     18  C   UNL     1       0.755  12.899  19.336  0.00  0.00    +0.000 A 
ATOM     19  C   UNL     1       2.065  12.859  18.844  0.00  0.00    +0.000 A 
ATOM     20  C   UNL     1       2.711  14.018  18.394  0.00  0.00    +0.000 A 
BRANCH  15  22
ATOM     21  C   UNL     1       1.727  17.473  17.842  0.00  0.00    +0.000 C 
ATOM     22  O   UNL     1       2.669  16.433  18.112  0.00  0.00    +0.000 OA
ENDBRANCH  15  22
ENDBRANCH   1  18
BRANCH   9  23
ATOM     23  N   UNL     1      -1.851  10.242  16.887  0.00  0.00    +0.000 NA
ATOM     24  H   UNL     1      -2.522   9.647  17.374  0.00  0.00    +0.000 HD
BRANCH  23  25
ATOM     25  C   UNL     1      -2.608  11.063  15.904  0.00  0.00    +0.000 C 
BRANCH  25  26
ATOM     26  C   UNL     1      -4.127  11.006  16.057  0.00  0.00    +0.000 C 
BRANCH  26  27
ATOM     27  O   UNL     1      -4.618  12.157  16.733  0.00  0.00    +0.000 OA
ATOM     28  H   UNL     1      -3.834  12.606  17.083  0.00  0.00    +0.000 HD
ENDBRANCH  26  27
ENDBRANCH  25  26
ENDBRANCH  23  25
ENDBRANCH   9  23
TORSDOF 6
ENDMDL
MODEL 9
REMARK VINA RESULT:      -6.3      5.154      8.825
REMARK  Name = 
REMARK  8 active torsions:
REMARK  status: ('A' for Active; 'I' for Inactive)
REMARK    1  A    between atoms: C_1  and  O_2
REMARK    2  A    between atoms: O_2  and  C_3
REMARK    3  A    between atoms: C_6  and  C_7
REMARK    4  A    between atoms: C_15  and  N_16
REMARK    5  A    between atoms: N_16  and  C_17
REMARK    6  A    between atoms: C_17  and  C_18
REMARK    7  A    between atoms: C_18  and  O_19
REMARK    8  A    between atoms: C_20  and  C_21
REMARK                            x       y       z     vdW  Elec       q    Type
REMARK                         _______ _______ _______ _____ _____    ______ ____
ROOT
ATOM      1  C   UNL     1      -0.969  11.482  20.662  0.00  0.00    +0.000 C 
ATOM      2  C   UNL     1      -1.525  11.059  19.315  0.00  0.00    +0.000 A 
ATOM      3  C   UNL     1      -2.673  11.629  18.762  0.00  0.00    +0.000 A 
ATOM      4  C   UNL     1      -3.002  11.277  17.472  0.00  0.00    +0.000 A 
ATOM      5  C   UNL     1      -2.221  10.423  16.719  0.00  0.00    +0.000 A 
ATOM      6  C   UNL     1      -1.088   9.850  17.237  0.00  0.00    +0.000 A 
ATOM      7  C   UNL     1      -0.772  10.133  18.562  0.00  0.00    +0.000 A 
ATOM      8  O   UNL     1       0.336   9.509  19.039  0.00  0.00    +0.000 OA
ATOM      9  C   UNL     1       0.729   9.671  20.415  0.00  0.00    +0.000 C 
ATOM     10  C   UNL     1      -0.443  10.157  21.298  0.00  0.00    +0.000 C 
ATOM     11  C   UNL     1      -0.180  10.262  22.807  0.00  0.00    +0.000 C 
ATOM     12  O   UNL     1      -2.697  10.257  15.463  0.00  0.00    +0.000 OA
ATOM     13  C   UNL     1      -3.994  10.861  15.606  0.00  0.00    +0.000 C 
ATOM     14  O   UNL     1      -4.101  11.697  16.778  0.00  0.00    +0.000 OA
ENDROOT
BRANCH   1  18
ATOM     15  C   UNL     1       1.724  14.908  20.202  0.00  0.00    +0.000 A 
ATOM     16  C   UNL     1       1.449  14.101  19.111  0.00  0.00    +0.000 A 
ATOM     17  C   UNL     1       0.622  12.990  19.263  0.00  0.00    +0.000 A 
ATOM     18  C   UNL     1       0.043  12.642  20.508  0.00  0.00    +0.000 A 
ATOM     19  C   UNL     1       0.401  13.435  21.604  0.00  0.00    +0.000 A 
ATOM     20  C   UNL     1       1.247  14.543  21.459  0.00  0.00    +0.000 A 
BRANCH  15  22
ATOM     21  C   UNL     1       2.020  16.798  18.874  0.00  0.00    +0.000 C 
ATOM     22  O   UNL     1       2.488  16.017  19.975  0.00  0.00    +0.000 OA
ENDBRANCH  15  22
ENDBRANCH   1  18
BRANCH   9  23
ATOM     23  N   UNL     1       1.339   8.392  20.839  0.00  0.00    +0.000 NA
ATOM     24  H   UNL     1       0.561   7.762  21.039  0.00  0.00    +0.000 HD
BRANCH  23  25
ATOM     25  C   UNL     1       2.074   7.841  19.669  0.00  0.00    +0.000 C 
BRANCH  25  26
ATOM     26  C   UNL     1       2.313   6.333  19.715  0.00  0.00    +0.000 C 
BRANCH  26  27
ATOM     27  O   UNL     1       2.327   5.856  21.055  0.00  0.00    +0.000 OA
ATOM     28  H   UNL     1       1.425   5.987  21.386  0.00  0.00    +0.000 HD
ENDBRANCH  26  27
ENDBRANCH  25  26
ENDBRANCH  23  25
ENDBRANCH   9  23
TORSDOF 6
ENDMDL
