MODEL 1
REMARK VINA RESULT:      -7.4      0.000      0.000
REMARK  Name = 
REMARK  7 active torsions:
REMARK  status: ('A' for Active; 'I' for Inactive)
REMARK    1  A    between atoms: C_1  and  C_2
REMARK    2  A    between atoms: C_6  and  C_7
REMARK    3  A    between atoms: C_8  and  O_9
REMARK    4  A    between atoms: O_9  and  C_10
REMARK    5  A    between atoms: C_10  and  C_11
REMARK    6  A    between atoms: N_13  and  C_14
REMARK    7  A    between atoms: C_19  and  O_20
REMARK                            x       y       z     vdW  Elec       q    Type
REMARK                         _______ _______ _______ _____ _____    ______ ____
ROOT
ATOM      1  C   UNL     1       6.036   4.431  17.018  0.00  0.00    +0.000 C 
ATOM      2  O   UNL     1       7.214   4.180  17.226  0.00  0.00    +0.000 OA
ATOM      3  N   UNL     1       5.508   4.333  15.765  0.00  0.00    +0.000 N 
ATOM      4  H   UNL     1       4.495   4.492  15.632  0.00  0.00    +0.000 HD
ENDROOT
BRANCH   3   5
ATOM      5  C   UNL     1       6.312   4.062  14.591  0.00  0.00    +0.000 C 
ATOM      6  C   UNL     1       5.448   3.554  13.423  0.00  0.00    +0.000 C 
ATOM      7  C   UNL     1       6.348   3.251  12.217  0.00  0.00    +0.000 C 
ATOM      8  C   UNL     1       7.129   4.505  11.791  0.00  0.00    +0.000 C 
ATOM      9  C   UNL     1       7.956   5.065  12.960  0.00  0.00    +0.000 C 
ATOM     10  C   UNL     1       7.049   5.353  14.166  0.00  0.00    +0.000 C 
BRANCH  10  11
ATOM     11  O   UNL     1       7.794   5.900  15.227  0.00  0.00    +0.000 OA
ATOM     12  H   UNL     1       8.072   5.152  15.818  0.00  0.00    +0.000 HD
ENDBRANCH  10  11
ENDBRANCH   3   5
BRANCH   1  13
ATOM     13  C   UNL     1       5.183   4.899  18.152  0.00  0.00    +0.000 C 
BRANCH  13  14
ATOM     14  O   UNL     1       3.858   4.599  17.933  0.00  0.00    +0.000 OA
BRANCH  14  22
ATOM     15  C   UNL     1       2.331   6.585  19.764  0.00  0.00    +0.000 C 
ATOM     16  C   UNL     1       2.187   5.080  19.718  0.00  0.00    +0.000 A 
ATOM     17  C   UNL     1       1.248   4.526  20.606  0.00  0.00    +0.000 A 
ATOM     18  C   UNL     1       1.007   3.161  20.646  0.00  0.00    +0.000 A 
ATOM     19  C   UNL     1       1.698   2.306  19.798  0.00  0.00    +0.000 A 
ATOM     20  C   UNL     1       2.647   2.810  18.899  0.00  0.00    +0.000 A 
ATOM     21  C   UNL     1       3.364   1.848  17.985  0.00  0.00    +0.000 C 
ATOM     22  C   UNL     1       2.916   4.200  18.843  0.00  0.00    +0.000 A 
ENDBRANCH  14  22
ENDBRANCH  13  14
ENDBRANCH   1  13
TORSDOF 5
ENDMDL
MODEL 2
REMARK VINA RESULT:      -7.4      0.119      1.965
REMARK  Name = 
REMARK  7 active torsions:
REMARK  status: ('A' for Active; 'I' for Inactive)
REMARK    1  A    between atoms: C_1  and  C_2
REMARK    2  A    between atoms: C_6  and  C_7
REMARK    3  A    between atoms: C_8  and  O_9
REMARK    4  A    between atoms: O_9  and  C_10
REMARK    5  A    between atoms: C_10  and  C_11
REMARK    6  A    between atoms: N_13  and  C_14
REMARK    7  A    between atoms: C_19  and  O_20
REMARK                            x       y       z     vdW  Elec       q    Type
REMARK                         _______ _______ _______ _____ _____    ______ ____
ROOT
ATOM      1  C   UNL     1       5.981   4.493  17.070  0.00  0.00    +0.000 C 
ATOM      2  O   UNL     1       7.141   4.161  17.273  0.00  0.00    +0.000 OA
ATOM      3  N   UNL     1       5.439   4.418  15.823  0.00  0.00    +0.000 N 
ATOM      4  H   UNL     1       4.438   4.646  15.695  0.00  0.00    +0.000 HD
ENDROOT
BRANCH   3   5
ATOM      5  C   UNL     1       6.213   4.078  14.646  0.00  0.00    +0.000 C 
ATOM      6  C   UNL     1       5.309   3.597  13.497  0.00  0.00    +0.000 C 
ATOM      7  C   UNL     1       6.176   3.219  12.289  0.00  0.00    +0.000 C 
ATOM      8  C   UNL     1       7.023   4.418  11.830  0.00  0.00    +0.000 C 
ATOM      9  C   UNL     1       7.892   4.954  12.979  0.00  0.00    +0.000 C 
ATOM     10  C   UNL     1       7.017   5.317  14.187  0.00  0.00    +0.000 C 
BRANCH  10  11
ATOM     11  O   UNL     1       7.803   5.842  15.229  0.00  0.00    +0.000 OA
ATOM     12  H   UNL     1       7.932   5.123  15.902  0.00  0.00    +0.000 HD
ENDBRANCH  10  11
ENDBRANCH   3   5
BRANCH   1  13
ATOM     13  C   UNL     1       5.172   5.031  18.205  0.00  0.00    +0.000 C 
BRANCH  13  14
ATOM     14  O   UNL     1       3.827   4.828  17.995  0.00  0.00    +0.000 OA
BRANCH  14  22
ATOM     15  C   UNL     1       3.434   1.751  18.050  0.00  0.00    +0.000 C 
ATOM     16  C   UNL     1       2.700   2.786  18.872  0.00  0.00    +0.000 A 
ATOM     17  C   UNL     1       1.734   2.289  19.764  0.00  0.00    +0.000 A 
ATOM     18  C   UNL     1       1.006   3.133  20.589  0.00  0.00    +0.000 A 
ATOM     19  C   UNL     1       1.224   4.504  20.548  0.00  0.00    +0.000 A 
ATOM     20  C   UNL     1       2.173   5.049  19.672  0.00  0.00    +0.000 A 
ATOM     21  C   UNL     1       2.388   6.541  19.671  0.00  0.00    +0.000 C 
ATOM     22  C   UNL     1       2.924   4.207  18.814  0.00  0.00    +0.000 A 
ENDBRANCH  14  22
ENDBRANCH  13  14
ENDBRANCH   1  13
TORSDOF 5
ENDMDL
MODEL 3
REMARK VINA RESULT:      -6.9      2.809      4.071
REMARK  Name = 
REMARK  7 active torsions:
REMARK  status: ('A' for Active; 'I' for Inactive)
REMARK    1  A    between atoms: C_1  and  C_2
REMARK    2  A    between atoms: C_6  and  C_7
REMARK    3  A    between atoms: C_8  and  O_9
REMARK    4  A    between atoms: O_9  and  C_10
REMARK    5  A    between atoms: C_10  and  C_11
REMARK    6  A    between atoms: N_13  and  C_14
REMARK    7  A    between atoms: C_19  and  O_20
REMARK                            x       y       z     vdW  Elec       q    Type
REMARK                         _______ _______ _______ _____ _____    ______ ____
ROOT
ATOM      1  C   UNL     1       4.200   4.155  16.732  0.00  0.00    +0.000 C 
ATOM      2  O   UNL     1       5.020   3.312  16.394  0.00  0.00    +0.000 OA
ATOM      3  N   UNL     1       4.595   5.382  17.170  0.00  0.00    +0.000 N 
ATOM      4  H   UNL     1       3.877   6.094  17.389  0.00  0.00    +0.000 HD
ENDROOT
BRANCH   3   5
ATOM      5  C   UNL     1       5.984   5.730  17.393  0.00  0.00    +0.000 C 
ATOM      6  C   UNL     1       6.239   7.224  17.129  0.00  0.00    +0.000 C 
ATOM      7  C   UNL     1       7.727   7.534  17.346  0.00  0.00    +0.000 C 
ATOM      8  C   UNL     1       8.156   7.168  18.777  0.00  0.00    +0.000 C 
ATOM      9  C   UNL     1       7.857   5.691  19.083  0.00  0.00    +0.000 C 
ATOM     10  C   UNL     1       6.369   5.389  18.851  0.00  0.00    +0.000 C 
BRANCH  10  11
ATOM     11  O   UNL     1       6.081   4.048  19.165  0.00  0.00    +0.000 OA
ATOM     12  H   UNL     1       6.828   3.490  18.823  0.00  0.00    +0.000 HD
ENDBRANCH  10  11
ENDBRANCH   3   5
BRANCH   1  13
ATOM     13  C   UNL     1       2.748   3.804  16.705  0.00  0.00    +0.000 C 
BRANCH  13  14
ATOM     14  O   UNL     1       2.073   4.404  17.743  0.00  0.00    +0.000 OA
BRANCH  14  22
ATOM     15  C   UNL     1       1.449   1.498  18.634  0.00  0.00    +0.000 C 
ATOM     16  C   UNL     1       1.730   2.690  19.520  0.00  0.00    +0.000 A 
ATOM     17  C   UNL     1       1.710   2.445  20.904  0.00  0.00    +0.000 A 
ATOM     18  C   UNL     1       1.973   3.451  21.823  0.00  0.00    +0.000 A 
ATOM     19  C   UNL     1       2.266   4.735  21.384  0.00  0.00    +0.000 A 
ATOM     20  C   UNL     1       2.294   5.031  20.014  0.00  0.00    +0.000 A 
ATOM     21  C   UNL     1       2.632   6.435  19.581  0.00  0.00    +0.000 C 
ATOM     22  C   UNL     1       2.022   4.022  19.057  0.00  0.00    +0.000 A 
ENDBRANCH  14  22
ENDBRANCH  13  14
ENDBRANCH   1  13
TORSDOF 5
ENDMDL
MODEL 4
REMARK VINA RESULT:      -6.9      3.272      5.474
REMARK  Name = 
REMARK  7 active torsions:
REMARK  status: ('A' for Active; 'I' for Inactive)
REMARK    1  A    between atoms: C_1  and  C_2
REMARK    2  A    between atoms: C_6  and  C_7
REMARK    3  A    between atoms: C_8  and  O_9
REMARK    4  A    between atoms: O_9  and  C_10
REMARK    5  A    between atoms: C_10  and  C_11
REMARK    6  A    between atoms: N_13  and  C_14
REMARK    7  A    between atoms: C_19  and  O_20
REMARK                            x       y       z     vdW  Elec       q    Type
REMARK                         _______ _______ _______ _____ _____    ______ ____
ROOT
ATOM      1  C   UNL     1       4.535   5.349  18.241  0.00  0.00    +0.000 C 
ATOM      2  O   UNL     1       5.247   5.723  19.163  0.00  0.00    +0.000 OA
ATOM      3  N   UNL     1       3.494   6.112  17.805  0.00  0.00    +0.000 N 
ATOM      4  H   UNL     1       2.949   5.798  16.984  0.00  0.00    +0.000 HD
ENDROOT
BRANCH   3   5
ATOM      5  C   UNL     1       3.077   7.330  18.470  0.00  0.00    +0.000 C 
ATOM      6  C   UNL     1       2.321   8.265  17.509  0.00  0.00    +0.000 C 
ATOM      7  C   UNL     1       1.932   9.551  18.250  0.00  0.00    +0.000 C 
ATOM      8  C   UNL     1       1.058   9.232  19.475  0.00  0.00    +0.000 C 
ATOM      9  C   UNL     1       1.771   8.252  20.421  0.00  0.00    +0.000 C 
ATOM     10  C   UNL     1       2.167   6.974  19.668  0.00  0.00    +0.000 C 
BRANCH  10  11
ATOM     11  O   UNL     1       2.788   6.058  20.538  0.00  0.00    +0.000 OA
ATOM     12  H   UNL     1       3.769   6.144  20.416  0.00  0.00    +0.000 HD
ENDBRANCH  10  11
ENDBRANCH   3   5
BRANCH   1  13
ATOM     13  C   UNL     1       4.790   4.012  17.625  0.00  0.00    +0.000 C 
BRANCH  13  14
ATOM     14  O   UNL     1       3.743   3.151  17.858  0.00  0.00    +0.000 OA
BRANCH  14  22
ATOM     15  C   UNL     1       4.881   2.097  20.545  0.00  0.00    +0.000 C 
ATOM     16  C   UNL     1       3.463   2.534  20.256  0.00  0.00    +0.000 A 
ATOM     17  C   UNL     1       2.564   2.455  21.335  0.00  0.00    +0.000 A 
ATOM     18  C   UNL     1       1.240   2.846  21.205  0.00  0.00    +0.000 A 
ATOM     19  C   UNL     1       0.772   3.330  19.990  0.00  0.00    +0.000 A 
ATOM     20  C   UNL     1       1.628   3.422  18.884  0.00  0.00    +0.000 A 
ATOM     21  C   UNL     1       1.083   3.968  17.588  0.00  0.00    +0.000 C 
ATOM     22  C   UNL     1       2.984   3.023  18.989  0.00  0.00    +0.000 A 
ENDBRANCH  14  22
ENDBRANCH  13  14
ENDBRANCH   1  13
TORSDOF 5
ENDMDL
MODEL 5
REMARK VINA RESULT:      -6.8      3.090      5.336
REMARK  Name = 
REMARK  7 active torsions:
REMARK  status: ('A' for Active; 'I' for Inactive)
REMARK    1  A    between atoms: C_1  and  C_2
REMARK    2  A    between atoms: C_6  and  C_7
REMARK    3  A    between atoms: C_8  and  O_9
REMARK    4  A    between atoms: O_9  and  C_10
REMARK    5  A    between atoms: C_10  and  C_11
REMARK    6  A    between atoms: N_13  and  C_14
REMARK    7  A    between atoms: C_19  and  O_20
REMARK                            x       y       z     vdW  Elec       q    Type
REMARK                         _______ _______ _______ _____ _____    ______ ____
ROOT
ATOM      1  C   UNL     1       2.721   5.864  19.234  0.00  0.00    +0.000 C 
ATOM      2  O   UNL     1       2.122   5.054  18.541  0.00  0.00    +0.000 OA
ATOM      3  N   UNL     1       4.048   6.108  19.041  0.00  0.00    +0.000 N 
ATOM      4  H   UNL     1       4.511   6.843  19.601  0.00  0.00    +0.000 HD
ENDROOT
BRANCH   3   5
ATOM      5  C   UNL     1       4.861   5.348  18.113  0.00  0.00    +0.000 C 
ATOM      6  C   UNL     1       4.694   5.858  16.671  0.00  0.00    +0.000 C 
ATOM      7  C   UNL     1       5.548   5.002  15.725  0.00  0.00    +0.000 C 
ATOM      8  C   UNL     1       7.029   5.049  16.136  0.00  0.00    +0.000 C 
ATOM      9  C   UNL     1       7.214   4.599  17.594  0.00  0.00    +0.000 C 
ATOM     10  C   UNL     1       6.347   5.453  18.530  0.00  0.00    +0.000 C 
BRANCH  10  11
ATOM     11  O   UNL     1       6.538   5.070  19.870  0.00  0.00    +0.000 OA
ATOM     12  H   UNL     1       7.515   5.045  20.041  0.00  0.00    +0.000 HD
ENDBRANCH  10  11
ENDBRANCH   3   5
BRANCH   1  13
ATOM     13  C   UNL     1       1.989   6.555  20.338  0.00  0.00    +0.000 C 
BRANCH  13  14
ATOM     14  O   UNL     1       2.167   7.918  20.275  0.00  0.00    +0.000 OA
BRANCH  14  22
ATOM     15  C   UNL     1       0.401   9.052  22.560  0.00  0.00    +0.000 C 
ATOM     16  C   UNL     1       0.376   9.442  21.099  0.00  0.00    +0.000 A 
ATOM     17  C   UNL     1      -0.553  10.436  20.745  0.00  0.00    +0.000 A 
ATOM     18  C   UNL     1      -0.659  10.897  19.441  0.00  0.00    +0.000 A 
ATOM     19  C   UNL     1       0.161  10.377  18.450  0.00  0.00    +0.000 A 
ATOM     20  C   UNL     1       1.100   9.381  18.752  0.00  0.00    +0.000 A 
ATOM     21  C   UNL     1       1.982   8.855  17.648  0.00  0.00    +0.000 C 
ATOM     22  C   UNL     1       1.224   8.889  20.075  0.00  0.00    +0.000 A 
ENDBRANCH  14  22
ENDBRANCH  13  14
ENDBRANCH   1  13
TORSDOF 5
ENDMDL
MODEL 6
REMARK VINA RESULT:      -6.8      2.861      3.619
REMARK  Name = 
REMARK  7 active torsions:
REMARK  status: ('A' for Active; 'I' for Inactive)
REMARK    1  A    between atoms: C_1  and  C_2
REMARK    2  A    between atoms: C_6  and  C_7
REMARK    3  A    between atoms: C_8  and  O_9
REMARK    4  A    between atoms: O_9  and  C_10
REMARK    5  A    between atoms: C_10  and  C_11
REMARK    6  A    between atoms: N_13  and  C_14
REMARK    7  A    between atoms: C_19  and  O_20
REMARK                            x       y       z     vdW  Elec       q    Type
REMARK                         _______ _______ _______ _____ _____    ______ ____
ROOT
ATOM      1  C   UNL     1       4.077   3.986  16.769  0.00  0.00    +0.000 C 
ATOM      2  O   UNL     1       4.889   3.101  16.538  0.00  0.00    +0.000 OA
ATOM      3  N   UNL     1       4.483   5.240  17.111  0.00  0.00    +0.000 N 
ATOM      4  H   UNL     1       3.774   5.981  17.239  0.00  0.00    +0.000 HD
ENDROOT
BRANCH   3   5
ATOM      5  C   UNL     1       5.871   5.579  17.354  0.00  0.00    +0.000 C 
ATOM      6  C   UNL     1       6.141   7.070  17.083  0.00  0.00    +0.000 C 
ATOM      7  C   UNL     1       7.627   7.371  17.321  0.00  0.00    +0.000 C 
ATOM      8  C   UNL     1       8.030   7.014  18.761  0.00  0.00    +0.000 C 
ATOM      9  C   UNL     1       7.715   5.542  19.075  0.00  0.00    +0.000 C 
ATOM     10  C   UNL     1       6.230   5.247  18.821  0.00  0.00    +0.000 C 
BRANCH  10  11
ATOM     11  O   UNL     1       5.927   3.911  19.140  0.00  0.00    +0.000 OA
ATOM     12  H   UNL     1       6.738   3.506  19.545  0.00  0.00    +0.000 HD
ENDBRANCH  10  11
ENDBRANCH   3   5
BRANCH   1  13
ATOM     13  C   UNL     1       2.619   3.661  16.719  0.00  0.00    +0.000 C 
BRANCH  13  14
ATOM     14  O   UNL     1       1.929   4.329  17.704  0.00  0.00    +0.000 OA
BRANCH  14  22
ATOM     15  C   UNL     1       2.777   6.524  19.727  0.00  0.00    +0.000 C 
ATOM     16  C   UNL     1       2.358   5.104  20.034  0.00  0.00    +0.000 A 
ATOM     17  C   UNL     1       2.350   4.747  21.394  0.00  0.00    +0.000 A 
ATOM     18  C   UNL     1       1.965   3.480  21.808  0.00  0.00    +0.000 A 
ATOM     19  C   UNL     1       1.575   2.531  20.874  0.00  0.00    +0.000 A 
ATOM     20  C   UNL     1       1.571   2.837  19.506  0.00  0.00    +0.000 A 
ATOM     21  C   UNL     1       1.125   1.781  18.526  0.00  0.00    +0.000 C 
ATOM     22  C   UNL     1       1.966   4.122  19.057  0.00  0.00    +0.000 A 
ENDBRANCH  14  22
ENDBRANCH  13  14
ENDBRANCH   1  13
TORSDOF 5
ENDMDL
MODEL 7
REMARK VINA RESULT:      -6.7      2.893      7.242
REMARK  Name = 
REMARK  7 active torsions:
REMARK  status: ('A' for Active; 'I' for Inactive)
REMARK    1  A    between atoms: C_1  and  C_2
REMARK    2  A    between atoms: C_6  and  C_7
REMARK    3  A    between atoms: C_8  and  O_9
REMARK    4  A    between atoms: O_9  and  C_10
REMARK    5  A    between atoms: C_10  and  C_11
REMARK    6  A    between atoms: N_13  and  C_14
REMARK    7  A    between atoms: C_19  and  O_20
REMARK                            x       y       z     vdW  Elec       q    Type
REMARK                         _______ _______ _______ _____ _____    ______ ____
ROOT
ATOM      1  C   UNL     1       2.393   5.452  20.249  0.00  0.00    +0.000 C 
ATOM      2  O   UNL     1       1.299   5.021  20.585  0.00  0.00    +0.000 OA
ATOM      3  N   UNL     1       2.587   6.783  20.035  0.00  0.00    +0.000 N 
ATOM      4  H   UNL     1       3.538   7.124  19.813  0.00  0.00    +0.000 HD
ENDROOT
BRANCH   3   5
ATOM      5  C   UNL     1       1.509   7.750  20.056  0.00  0.00    +0.000 C 
ATOM      6  C   UNL     1       1.373   8.412  21.439  0.00  0.00    +0.000 C 
ATOM      7  C   UNL     1       0.199   9.400  21.418  0.00  0.00    +0.000 C 
ATOM      8  C   UNL     1       0.409  10.473  20.337  0.00  0.00    +0.000 C 
ATOM      9  C   UNL     1       0.606   9.833  18.954  0.00  0.00    +0.000 C 
ATOM     10  C   UNL     1       1.774   8.836  18.987  0.00  0.00    +0.000 C 
BRANCH  10  11
ATOM     11  O   UNL     1       1.983   8.273  17.715  0.00  0.00    +0.000 OA
ATOM     12  H   UNL     1       1.893   9.000  17.045  0.00  0.00    +0.000 HD
ENDBRANCH  10  11
ENDBRANCH   3   5
BRANCH   1  13
ATOM     13  C   UNL     1       3.513   4.489  20.027  0.00  0.00    +0.000 C 
BRANCH  13  14
ATOM     14  O   UNL     1       4.589   5.109  19.434  0.00  0.00    +0.000 OA
BRANCH  14  22
ATOM     15  C   UNL     1       3.109   3.879  17.000  0.00  0.00    +0.000 C 
ATOM     16  C   UNL     1       4.582   4.200  17.113  0.00  0.00    +0.000 A 
ATOM     17  C   UNL     1       5.362   3.911  15.980  0.00  0.00    +0.000 A 
ATOM     18  C   UNL     1       6.723   4.179  15.949  0.00  0.00    +0.000 A 
ATOM     19  C   UNL     1       7.346   4.747  17.052  0.00  0.00    +0.000 A 
ATOM     20  C   UNL     1       6.612   5.049  18.208  0.00  0.00    +0.000 A 
ATOM     21  C   UNL     1       7.325   5.679  19.377  0.00  0.00    +0.000 C 
ATOM     22  C   UNL     1       5.222   4.779  18.266  0.00  0.00    +0.000 A 
ENDBRANCH  14  22
ENDBRANCH  13  14
ENDBRANCH   1  13
TORSDOF 5
ENDMDL
MODEL 8
REMARK VINA RESULT:      -6.7      4.346      8.356
REMARK  Name = 
REMARK  7 active torsions:
REMARK  status: ('A' for Active; 'I' for Inactive)
REMARK    1  A    between atoms: C_1  and  C_2
REMARK    2  A    between atoms: C_6  and  C_7
REMARK    3  A    between atoms: C_8  and  O_9
REMARK    4  A    between atoms: O_9  and  C_10
REMARK    5  A    between atoms: C_10  and  C_11
REMARK    6  A    between atoms: N_13  and  C_14
REMARK    7  A    between atoms: C_19  and  O_20
REMARK                            x       y       z     vdW  Elec       q    Type
REMARK                         _______ _______ _______ _____ _____    ______ ____
ROOT
ATOM      1  C   UNL     1       1.356   7.551  20.679  0.00  0.00    +0.000 C 
ATOM      2  O   UNL     1       2.066   8.091  19.841  0.00  0.00    +0.000 OA
ATOM      3  N   UNL     1       0.401   8.256  21.348  0.00  0.00    +0.000 N 
ATOM      4  H   UNL     1      -0.225   7.758  22.004  0.00  0.00    +0.000 HD
ENDROOT
BRANCH   3   5
ATOM      5  C   UNL     1       0.247   9.691  21.221  0.00  0.00    +0.000 C 
ATOM      6  C   UNL     1      -0.544  10.062  19.954  0.00  0.00    +0.000 C 
ATOM      7  C   UNL     1      -0.651  11.589  19.849  0.00  0.00    +0.000 C 
ATOM      8  C   UNL     1      -1.339  12.175  21.093  0.00  0.00    +0.000 C 
ATOM      9  C   UNL     1      -0.598  11.768  22.378  0.00  0.00    +0.000 C 
ATOM     10  C   UNL     1      -0.485  10.239  22.468  0.00  0.00    +0.000 C 
BRANCH  10  11
ATOM     11  O   UNL     1       0.160   9.858  23.659  0.00  0.00    +0.000 OA
ATOM     12  H   UNL     1       0.036   8.880  23.770  0.00  0.00    +0.000 HD
ENDBRANCH  10  11
ENDBRANCH   3   5
BRANCH   1  13
ATOM     13  C   UNL     1       1.581   6.109  20.999  0.00  0.00    +0.000 C 
BRANCH  13  14
ATOM     14  O   UNL     1       2.562   5.571  20.198  0.00  0.00    +0.000 OA
BRANCH  14  22
ATOM     15  C   UNL     1       1.354   2.899  21.214  0.00  0.00    +0.000 C 
ATOM     16  C   UNL     1       1.962   3.176  19.858  0.00  0.00    +0.000 A 
ATOM     17  C   UNL     1       1.974   2.095  18.958  0.00  0.00    +0.000 A 
ATOM     18  C   UNL     1       2.485   2.225  17.676  0.00  0.00    +0.000 A 
ATOM     19  C   UNL     1       3.000   3.443  17.252  0.00  0.00    +0.000 A 
ATOM     20  C   UNL     1       3.016   4.548  18.113  0.00  0.00    +0.000 A 
ATOM     21  C   UNL     1       3.571   5.856  17.607  0.00  0.00    +0.000 C 
ATOM     22  C   UNL     1       2.505   4.439  19.430  0.00  0.00    +0.000 A 
ENDBRANCH  14  22
ENDBRANCH  13  14
ENDBRANCH   1  13
TORSDOF 5
ENDMDL
MODEL 9
REMARK VINA RESULT:      -6.6      4.183      7.408
REMARK  Name = 
REMARK  7 active torsions:
REMARK  status: ('A' for Active; 'I' for Inactive)
REMARK    1  A    between atoms: C_1  and  C_2
REMARK    2  A    between atoms: C_6  and  C_7
REMARK    3  A    between atoms: C_8  and  O_9
REMARK    4  A    between atoms: O_9  and  C_10
REMARK    5  A    between atoms: C_10  and  C_11
REMARK    6  A    between atoms: N_13  and  C_14
REMARK    7  A    between atoms: C_19  and  O_20
REMARK                            x       y       z     vdW  Elec       q    Type
REMARK                         _______ _______ _______ _____ _____    ______ ____
ROOT
ATOM      1  C   UNL     1       2.116   7.066  19.957  0.00  0.00    +0.000 C 
ATOM      2  O   UNL     1       2.204   7.399  18.783  0.00  0.00    +0.000 OA
ATOM      3  N   UNL     1       2.276   5.766  20.331  0.00  0.00    +0.000 N 
ATOM      4  H   UNL     1       2.257   5.526  21.337  0.00  0.00    +0.000 HD
ENDROOT
BRANCH   3   5
ATOM      5  C   UNL     1       2.426   4.684  19.379  0.00  0.00    +0.000 C 
ATOM      6  C   UNL     1       3.909   4.385  19.096  0.00  0.00    +0.000 C 
ATOM      7  C   UNL     1       4.013   3.258  18.060  0.00  0.00    +0.000 C 
ATOM      8  C   UNL     1       3.304   1.990  18.562  0.00  0.00    +0.000 C 
ATOM      9  C   UNL     1       1.834   2.278  18.907  0.00  0.00    +0.000 C 
ATOM     10  C   UNL     1       1.739   3.415  19.934  0.00  0.00    +0.000 C 
BRANCH  10  11
ATOM     11  O   UNL     1       0.398   3.659  20.281  0.00  0.00    +0.000 OA
ATOM     12  H   UNL     1       0.133   2.984  20.959  0.00  0.00    +0.000 HD
ENDBRANCH  10  11
ENDBRANCH   3   5
BRANCH   1  13
ATOM     13  C   UNL     1       1.778   8.101  20.980  0.00  0.00    +0.000 C 
BRANCH  13  14
ATOM     14  O   UNL     1       0.447   8.442  20.919  0.00  0.00    +0.000 OA
BRANCH  14  22
ATOM     15  C   UNL     1      -0.159   9.993  18.300  0.00  0.00    +0.000 C 
ATOM     16  C   UNL     1      -0.403  10.455  19.719  0.00  0.00    +0.000 A 
ATOM     17  C   UNL     1      -0.975  11.732  19.859  0.00  0.00    +0.000 A 
ATOM     18  C   UNL     1      -1.267  12.262  21.107  0.00  0.00    +0.000 A 
ATOM     19  C   UNL     1      -0.998  11.529  22.255  0.00  0.00    +0.000 A 
ATOM     20  C   UNL     1      -0.424  10.254  22.168  0.00  0.00    +0.000 A 
ATOM     21  C   UNL     1      -0.163   9.486  23.439  0.00  0.00    +0.000 C 
ATOM     22  C   UNL     1      -0.110   9.693  20.905  0.00  0.00    +0.000 A 
ENDBRANCH  14  22
ENDBRANCH  13  14
ENDBRANCH   1  13
TORSDOF 5
ENDMDL
