MODEL 1
REMARK VINA RESULT:      -8.8      0.000      0.000
REMARK  Name = 
REMARK  5 active torsions:
REMARK  status: ('A' for Active; 'I' for Inactive)
REMARK    1  A    between atoms: C_1  and  C_2
REMARK    2  A    between atoms: N_4  and  C_5
REMARK    3  A    between atoms: C_11  and  N_12
REMARK    4  A    between atoms: C_17  and  C_18
REMARK    5  A    between atoms: C_20  and  C_21
REMARK                            x       y       z     vdW  Elec       q    Type
REMARK                         _______ _______ _______ _____ _____    ______ ____
ROOT
ATOM      1  C   UNL     1      -0.083  11.368  19.350  0.00  0.00    +0.000 C 
ATOM      2  C   UNL     1       0.196  10.049  19.475  0.00  0.00    +0.000 C 
ATOM      3  C   UNL     1       1.522   9.560  18.986  0.00  0.00    +0.000 C 
ATOM      4  N   UNL     1       2.380  10.272  18.342  0.00  0.00    +0.000 NA
ATOM      5  C   UNL     1       1.951  11.598  17.964  0.00  0.00    +0.000 C 
ATOM      6  N   UNL     1       3.088  12.511  17.922  0.00  0.00    +0.000 N 
ATOM      7  C   UNL     1       2.412  13.747  18.123  0.00  0.00    +0.000 A 
ATOM      8  C   UNL     1       2.999  14.986  17.948  0.00  0.00    +0.000 A 
ATOM      9  C   UNL     1       2.226  16.104  18.226  0.00  0.00    +0.000 A 
ATOM     10  C   UNL     1       0.914  15.951  18.707  0.00  0.00    +0.000 A 
ATOM     11  C   UNL     1       0.355  14.677  18.931  0.00  0.00    +0.000 A 
ATOM     12  C   UNL     1       1.113  13.564  18.637  0.00  0.00    +0.000 A 
ATOM     13  N   UNL     1       0.872  12.180  18.769  0.00  0.00    +0.000 N 
ATOM     14  H   UNL     1       3.621  12.306  18.763  0.00  0.00    +0.000 HD
ENDROOT
BRANCH   3  15
ATOM     15  C   UNL     1       1.875   8.116  19.174  0.00  0.00    +0.000 A 
ATOM     16  C   UNL     1       2.416   7.438  18.061  0.00  0.00    +0.000 A 
ATOM     17  C   UNL     1       2.720   6.080  18.126  0.00  0.00    +0.000 A 
ATOM     18  C   UNL     1       2.490   5.397  19.310  0.00  0.00    +0.000 A 
ATOM     19  F   UNL     1       2.756   4.087  19.375  0.00  0.00    +0.000 F 
ATOM     20  C   UNL     1       1.984   6.053  20.430  0.00  0.00    +0.000 A 
ATOM     21  C   UNL     1       1.681   7.418  20.368  0.00  0.00    +0.000 A 
ENDBRANCH   3  15
BRANCH   1  27
ATOM     22  C   UNL     1      -0.782  13.197  21.904  0.00  0.00    +0.000 C 
ATOM     23  C   UNL     1      -1.705  12.676  20.861  0.00  0.00    +0.000 A 
ATOM     24  N   UNL     1      -3.000  13.027  20.852  0.00  0.00    +0.000 NA
ATOM     25  N   UNL     1      -3.549  12.357  19.793  0.00  0.00    +0.000 N 
ATOM     26  C   UNL     1      -2.568  11.682  19.089  0.00  0.00    +0.000 A 
ATOM     27  C   UNL     1      -1.375  11.845  19.762  0.00  0.00    +0.000 A 
BRANCH  25  28
ATOM     28  C   UNL     1      -4.970  12.326  19.618  0.00  0.00    +0.000 A 
ATOM     29  C   UNL     1      -5.804  12.078  20.717  0.00  0.00    +0.000 A 
ATOM     30  C   UNL     1      -7.195  12.186  20.575  0.00  0.00    +0.000 A 
ATOM     31  C   UNL     1      -7.759  12.501  19.339  0.00  0.00    +0.000 A 
ATOM     32  C   UNL     1      -6.940  12.670  18.228  0.00  0.00    +0.000 A 
ATOM     33  C   UNL     1      -5.553  12.572  18.364  0.00  0.00    +0.000 A 
ENDBRANCH  25  28
BRANCH  26  34
ATOM     34  N   UNL     1      -2.764  11.081  17.867  0.00  0.00    +0.000 N 
ATOM     35  C   UNL     1      -3.202   9.826  17.539  0.00  0.00    +0.000 A 
ATOM     36  N   UNL     1      -3.116   9.638  16.243  0.00  0.00    +0.000 NA
ATOM     37  C   UNL     1      -2.610  10.822  15.804  0.00  0.00    +0.000 A 
ATOM     38  N   UNL     1      -2.421  11.745  16.746  0.00  0.00    +0.000 NA
ENDBRANCH  26  34
ENDBRANCH   1  27
TORSDOF 4
ENDMDL
MODEL 2
REMARK VINA RESULT:      -8.7      0.496      1.039
REMARK  Name = 
REMARK  5 active torsions:
REMARK  status: ('A' for Active; 'I' for Inactive)
REMARK    1  A    between atoms: C_1  and  C_2
REMARK    2  A    between atoms: N_4  and  C_5
REMARK    3  A    between atoms: C_11  and  N_12
REMARK    4  A    between atoms: C_17  and  C_18
REMARK    5  A    between atoms: C_20  and  C_21
REMARK                            x       y       z     vdW  Elec       q    Type
REMARK                         _______ _______ _______ _____ _____    ______ ____
ROOT
ATOM      1  C   UNL     1      -0.011  11.308  19.166  0.00  0.00    +0.000 C 
ATOM      2  C   UNL     1       0.298   9.993  19.253  0.00  0.00    +0.000 C 
ATOM      3  C   UNL     1       1.653   9.555  18.797  0.00  0.00    +0.000 C 
ATOM      4  N   UNL     1       2.515  10.311  18.211  0.00  0.00    +0.000 NA
ATOM      5  C   UNL     1       2.065  11.639  17.865  0.00  0.00    +0.000 C 
ATOM      6  N   UNL     1       3.180  12.580  17.898  0.00  0.00    +0.000 N 
ATOM      7  C   UNL     1       2.464  13.791  18.117  0.00  0.00    +0.000 A 
ATOM      8  C   UNL     1       3.026  15.050  18.009  0.00  0.00    +0.000 A 
ATOM      9  C   UNL     1       2.214  16.138  18.297  0.00  0.00    +0.000 A 
ATOM     10  C   UNL     1       0.890  15.935  18.724  0.00  0.00    +0.000 A 
ATOM     11  C   UNL     1       0.356  14.640  18.881  0.00  0.00    +0.000 A 
ATOM     12  C   UNL     1       1.153  13.558  18.576  0.00  0.00    +0.000 A 
ATOM     13  N   UNL     1       0.944  12.164  18.650  0.00  0.00    +0.000 N 
ATOM     14  H   UNL     1       3.687  12.358  18.750  0.00  0.00    +0.000 HD
ENDROOT
BRANCH   3  15
ATOM     15  C   UNL     1       2.036   8.114  18.946  0.00  0.00    +0.000 A 
ATOM     16  C   UNL     1       1.720   7.489  20.171  0.00  0.00    +0.000 A 
ATOM     17  C   UNL     1       2.090   6.170  20.420  0.00  0.00    +0.000 A 
ATOM     18  C   UNL     1       2.772   5.468  19.439  0.00  0.00    +0.000 A 
ATOM     19  F   UNL     1       3.153   4.207  19.678  0.00  0.00    +0.000 F 
ATOM     20  C   UNL     1       3.070   6.055  18.212  0.00  0.00    +0.000 A 
ATOM     21  C   UNL     1       2.697   7.380  17.957  0.00  0.00    +0.000 A 
ENDBRANCH   3  15
BRANCH   1  27
ATOM     22  C   UNL     1      -0.858  12.968  21.789  0.00  0.00    +0.000 C 
ATOM     23  C   UNL     1      -1.723  12.495  20.676  0.00  0.00    +0.000 A 
ATOM     24  N   UNL     1      -3.023  12.825  20.629  0.00  0.00    +0.000 NA
ATOM     25  N   UNL     1      -3.511  12.211  19.508  0.00  0.00    +0.000 N 
ATOM     26  C   UNL     1      -2.487  11.597  18.811  0.00  0.00    +0.000 A 
ATOM     27  C   UNL     1      -1.328  11.738  19.546  0.00  0.00    +0.000 A 
BRANCH  25  28
ATOM     28  C   UNL     1      -4.923  12.167  19.267  0.00  0.00    +0.000 A 
ATOM     29  C   UNL     1      -5.808  11.970  20.336  0.00  0.00    +0.000 A 
ATOM     30  C   UNL     1      -7.191  12.067  20.123  0.00  0.00    +0.000 A 
ATOM     31  C   UNL     1      -7.695  12.319  18.847  0.00  0.00    +0.000 A 
ATOM     32  C   UNL     1      -6.824  12.438  17.770  0.00  0.00    +0.000 A 
ATOM     33  C   UNL     1      -5.445  12.350  17.976  0.00  0.00    +0.000 A 
ENDBRANCH  25  28
BRANCH  26  34
ATOM     34  N   UNL     1      -2.617  11.067  17.548  0.00  0.00    +0.000 N 
ATOM     35  C   UNL     1      -2.479  11.639  16.311  0.00  0.00    +0.000 A 
ATOM     36  N   UNL     1      -2.821  10.787  15.374  0.00  0.00    +0.000 NA
ATOM     37  C   UNL     1      -3.171   9.684  16.090  0.00  0.00    +0.000 A 
ATOM     38  N   UNL     1      -3.022   9.790  17.410  0.00  0.00    +0.000 NA
ENDBRANCH  26  34
ENDBRANCH   1  27
TORSDOF 4
ENDMDL
MODEL 3
REMARK VINA RESULT:      -8.7      1.292      2.887
REMARK  Name = 
REMARK  5 active torsions:
REMARK  status: ('A' for Active; 'I' for Inactive)
REMARK    1  A    between atoms: C_1  and  C_2
REMARK    2  A    between atoms: N_4  and  C_5
REMARK    3  A    between atoms: C_11  and  N_12
REMARK    4  A    between atoms: C_17  and  C_18
REMARK    5  A    between atoms: C_20  and  C_21
REMARK                            x       y       z     vdW  Elec       q    Type
REMARK                         _______ _______ _______ _____ _____    ______ ____
ROOT
ATOM      1  C   UNL     1      -0.375  11.499  18.839  0.00  0.00    +0.000 C 
ATOM      2  C   UNL     1       0.010  10.208  18.963  0.00  0.00    +0.000 C 
ATOM      3  C   UNL     1       1.457   9.882  18.774  0.00  0.00    +0.000 C 
ATOM      4  N   UNL     1       2.357  10.715  18.382  0.00  0.00    +0.000 NA
ATOM      5  C   UNL     1       1.884  12.018  17.976  0.00  0.00    +0.000 C 
ATOM      6  N   UNL     1       2.896  13.035  18.243  0.00  0.00    +0.000 N 
ATOM      7  C   UNL     1       2.061  14.185  18.339  0.00  0.00    +0.000 A 
ATOM      8  C   UNL     1       2.536  15.483  18.364  0.00  0.00    +0.000 A 
ATOM      9  C   UNL     1       1.604  16.500  18.506  0.00  0.00    +0.000 A 
ATOM     10  C   UNL     1       0.241  16.191  18.661  0.00  0.00    +0.000 A 
ATOM     11  C   UNL     1      -0.213  14.857  18.688  0.00  0.00    +0.000 A 
ATOM     12  C   UNL     1       0.707  13.844  18.527  0.00  0.00    +0.000 A 
ATOM     13  N   UNL     1       0.594  12.437  18.535  0.00  0.00    +0.000 N 
ATOM     14  H   UNL     1       3.243  12.823  19.174  0.00  0.00    +0.000 HD
ENDROOT
BRANCH   3  15
ATOM     15  C   UNL     1       1.913   8.468  18.971  0.00  0.00    +0.000 A 
ATOM     16  C   UNL     1       2.554   7.843  17.881  0.00  0.00    +0.000 A 
ATOM     17  C   UNL     1       2.959   6.512  17.954  0.00  0.00    +0.000 A 
ATOM     18  C   UNL     1       2.730   5.804  19.123  0.00  0.00    +0.000 A 
ATOM     19  F   UNL     1       3.094   4.518  19.194  0.00  0.00    +0.000 F 
ATOM     20  C   UNL     1       2.125   6.409  20.221  0.00  0.00    +0.000 A 
ATOM     21  C   UNL     1       1.720   7.748  20.153  0.00  0.00    +0.000 A 
ENDBRANCH   3  15
BRANCH   1  27
ATOM     22  C   UNL     1      -2.692  11.075  16.647  0.00  0.00    +0.000 C 
ATOM     23  C   UNL     1      -2.813  11.617  18.026  0.00  0.00    +0.000 A 
ATOM     24  N   UNL     1      -4.015  11.918  18.542  0.00  0.00    +0.000 NA
ATOM     25  N   UNL     1      -3.758  12.407  19.794  0.00  0.00    +0.000 N 
ATOM     26  C   UNL     1      -2.410  12.302  20.084  0.00  0.00    +0.000 A 
ATOM     27  C   UNL     1      -1.770  11.822  18.961  0.00  0.00    +0.000 A 
BRANCH  25  28
ATOM     28  C   UNL     1      -4.800  13.035  20.550  0.00  0.00    +0.000 A 
ATOM     29  C   UNL     1      -4.857  14.432  20.636  0.00  0.00    +0.000 A 
ATOM     30  C   UNL     1      -5.953  15.049  21.257  0.00  0.00    +0.000 A 
ATOM     31  C   UNL     1      -6.970  14.282  21.825  0.00  0.00    +0.000 A 
ATOM     32  C   UNL     1      -6.879  12.894  21.811  0.00  0.00    +0.000 A 
ATOM     33  C   UNL     1      -5.794  12.273  21.188  0.00  0.00    +0.000 A 
ENDBRANCH  25  28
BRANCH  26  34
ATOM     34  N   UNL     1      -1.866  12.521  21.329  0.00  0.00    +0.000 N 
ATOM     35  C   UNL     1      -1.670  11.677  22.389  0.00  0.00    +0.000 A 
ATOM     36  N   UNL     1      -1.231  12.347  23.429  0.00  0.00    +0.000 NA
ATOM     37  C   UNL     1      -1.172  13.622  22.958  0.00  0.00    +0.000 A 
ATOM     38  N   UNL     1      -1.505  13.772  21.677  0.00  0.00    +0.000 NA
ENDBRANCH  26  34
ENDBRANCH   1  27
TORSDOF 4
ENDMDL
MODEL 4
REMARK VINA RESULT:      -8.6      1.309      2.971
REMARK  Name = 
REMARK  5 active torsions:
REMARK  status: ('A' for Active; 'I' for Inactive)
REMARK    1  A    between atoms: C_1  and  C_2
REMARK    2  A    between atoms: N_4  and  C_5
REMARK    3  A    between atoms: C_11  and  N_12
REMARK    4  A    between atoms: C_17  and  C_18
REMARK    5  A    between atoms: C_20  and  C_21
REMARK                            x       y       z     vdW  Elec       q    Type
REMARK                         _______ _______ _______ _____ _____    ______ ____
ROOT
ATOM      1  C   UNL     1      -0.344  11.521  18.774  0.00  0.00    +0.000 C 
ATOM      2  C   UNL     1       0.042  10.226  18.862  0.00  0.00    +0.000 C 
ATOM      3  C   UNL     1       1.489   9.906  18.660  0.00  0.00    +0.000 C 
ATOM      4  N   UNL     1       2.386  10.750  18.288  0.00  0.00    +0.000 NA
ATOM      5  C   UNL     1       1.912  12.063  17.920  0.00  0.00    +0.000 C 
ATOM      6  N   UNL     1       2.924  13.073  18.211  0.00  0.00    +0.000 N 
ATOM      7  C   UNL     1       2.090  14.219  18.340  0.00  0.00    +0.000 A 
ATOM      8  C   UNL     1       2.564  15.516  18.399  0.00  0.00    +0.000 A 
ATOM      9  C   UNL     1       1.632  16.529  18.571  0.00  0.00    +0.000 A 
ATOM     10  C   UNL     1       0.270  16.215  18.722  0.00  0.00    +0.000 A 
ATOM     11  C   UNL     1      -0.184  14.881  18.715  0.00  0.00    +0.000 A 
ATOM     12  C   UNL     1       0.737  13.873  18.524  0.00  0.00    +0.000 A 
ATOM     13  N   UNL     1       0.624  12.467  18.493  0.00  0.00    +0.000 N 
ATOM     14  H   UNL     1       3.274  12.836  19.135  0.00  0.00    +0.000 HD
ENDROOT
BRANCH   3  15
ATOM     15  C   UNL     1       1.945   8.488  18.817  0.00  0.00    +0.000 A 
ATOM     16  C   UNL     1       1.688   7.864  20.057  0.00  0.00    +0.000 A 
ATOM     17  C   UNL     1       2.127   6.567  20.312  0.00  0.00    +0.000 A 
ATOM     18  C   UNL     1       2.820   5.887  19.324  0.00  0.00    +0.000 A 
ATOM     19  F   UNL     1       3.268   4.649  19.569  0.00  0.00    +0.000 F 
ATOM     20  C   UNL     1       3.061   6.472  18.084  0.00  0.00    +0.000 A 
ATOM     21  C   UNL     1       2.618   7.774  17.822  0.00  0.00    +0.000 A 
ENDBRANCH   3  15
BRANCH   1  27
ATOM     22  C   UNL     1      -2.678  11.098  16.600  0.00  0.00    +0.000 C 
ATOM     23  C   UNL     1      -2.789  11.635  17.982  0.00  0.00    +0.000 A 
ATOM     24  N   UNL     1      -3.987  11.931  18.509  0.00  0.00    +0.000 NA
ATOM     25  N   UNL     1      -3.721  12.417  19.761  0.00  0.00    +0.000 N 
ATOM     26  C   UNL     1      -2.371  12.314  20.040  0.00  0.00    +0.000 A 
ATOM     27  C   UNL     1      -1.738  11.840  18.909  0.00  0.00    +0.000 A 
BRANCH  25  28
ATOM     28  C   UNL     1      -4.759  13.039  20.528  0.00  0.00    +0.000 A 
ATOM     29  C   UNL     1      -5.729  12.250  21.161  0.00  0.00    +0.000 A 
ATOM     30  C   UNL     1      -6.659  12.848  22.024  0.00  0.00    +0.000 A 
ATOM     31  C   UNL     1      -6.652  14.227  22.228  0.00  0.00    +0.000 A 
ATOM     32  C   UNL     1      -5.741  15.023  21.542  0.00  0.00    +0.000 A 
ATOM     33  C   UNL     1      -4.807  14.434  20.687  0.00  0.00    +0.000 A 
ENDBRANCH  25  28
BRANCH  26  34
ATOM     34  N   UNL     1      -1.816  12.530  21.280  0.00  0.00    +0.000 N 
ATOM     35  C   UNL     1      -1.617  11.685  22.339  0.00  0.00    +0.000 A 
ATOM     36  N   UNL     1      -1.168  12.352  23.376  0.00  0.00    +0.000 NA
ATOM     37  C   UNL     1      -1.106  13.627  22.905  0.00  0.00    +0.000 A 
ATOM     38  N   UNL     1      -1.447  13.779  21.626  0.00  0.00    +0.000 NA
ENDBRANCH  26  34
ENDBRANCH   1  27
TORSDOF 4
ENDMDL
MODEL 5
REMARK VINA RESULT:      -8.1      0.641      1.021
REMARK  Name = 
REMARK  5 active torsions:
REMARK  status: ('A' for Active; 'I' for Inactive)
REMARK    1  A    between atoms: C_1  and  C_2
REMARK    2  A    between atoms: N_4  and  C_5
REMARK    3  A    between atoms: C_11  and  N_12
REMARK    4  A    between atoms: C_17  and  C_18
REMARK    5  A    between atoms: C_20  and  C_21
REMARK                            x       y       z     vdW  Elec       q    Type
REMARK                         _______ _______ _______ _____ _____    ______ ____
ROOT
ATOM      1  C   UNL     1      -0.084  11.733  19.526  0.00  0.00    +0.000 C 
ATOM      2  C   UNL     1       0.169  10.405  19.597  0.00  0.00    +0.000 C 
ATOM      3  C   UNL     1       1.437   9.896  18.990  0.00  0.00    +0.000 C 
ATOM      4  N   UNL     1       2.258  10.601  18.294  0.00  0.00    +0.000 NA
ATOM      5  C   UNL     1       1.836  11.946  17.982  0.00  0.00    +0.000 C 
ATOM      6  N   UNL     1       2.990  12.831  17.867  0.00  0.00    +0.000 N 
ATOM      7  C   UNL     1       2.366  14.079  18.151  0.00  0.00    +0.000 A 
ATOM      8  C   UNL     1       2.970  15.307  17.957  0.00  0.00    +0.000 A 
ATOM      9  C   UNL     1       2.253  16.436  18.322  0.00  0.00    +0.000 A 
ATOM     10  C   UNL     1       0.981  16.304  18.906  0.00  0.00    +0.000 A 
ATOM     11  C   UNL     1       0.408  15.040  19.147  0.00  0.00    +0.000 A 
ATOM     12  C   UNL     1       1.109  13.916  18.766  0.00  0.00    +0.000 A 
ATOM     13  N   UNL     1       0.843  12.535  18.886  0.00  0.00    +0.000 N 
ATOM     14  H   UNL     1       3.584  12.593  18.657  0.00  0.00    +0.000 HD
ENDROOT
BRANCH   3  15
ATOM     15  C   UNL     1       1.766   8.439  19.115  0.00  0.00    +0.000 A 
ATOM     16  C   UNL     1       1.544   7.836  20.371  0.00  0.00    +0.000 A 
ATOM     17  C   UNL     1       1.874   6.502  20.596  0.00  0.00    +0.000 A 
ATOM     18  C   UNL     1       2.422   5.763  19.559  0.00  0.00    +0.000 A 
ATOM     19  F   UNL     1       2.765   4.487  19.772  0.00  0.00    +0.000 F 
ATOM     20  C   UNL     1       2.623   6.329  18.303  0.00  0.00    +0.000 A 
ATOM     21  C   UNL     1       2.289   7.669  18.073  0.00  0.00    +0.000 A 
ENDBRANCH   3  15
BRANCH   1  27
ATOM     22  C   UNL     1      -0.528  13.468  22.199  0.00  0.00    +0.000 C 
ATOM     23  C   UNL     1      -1.543  13.023  21.207  0.00  0.00    +0.000 A 
ATOM     24  N   UNL     1      -2.822  13.415  21.311  0.00  0.00    +0.000 NA
ATOM     25  N   UNL     1      -3.471  12.810  20.268  0.00  0.00    +0.000 N 
ATOM     26  C   UNL     1      -2.568  12.137  19.465  0.00  0.00    +0.000 A 
ATOM     27  C   UNL     1      -1.324  12.232  20.053  0.00  0.00    +0.000 A 
BRANCH  25  28
ATOM     28  C   UNL     1      -4.901  12.832  20.200  0.00  0.00    +0.000 A 
ATOM     29  C   UNL     1      -5.653  11.980  21.020  0.00  0.00    +0.000 A 
ATOM     30  C   UNL     1      -7.050  12.100  21.055  0.00  0.00    +0.000 A 
ATOM     31  C   UNL     1      -7.702  13.034  20.251  0.00  0.00    +0.000 A 
ATOM     32  C   UNL     1      -6.966  13.828  19.378  0.00  0.00    +0.000 A 
ATOM     33  C   UNL     1      -5.574  13.719  19.343  0.00  0.00    +0.000 A 
ENDBRANCH  25  28
BRANCH  26  34
ATOM     34  N   UNL     1      -2.875  11.598  18.237  0.00  0.00    +0.000 N 
ATOM     35  C   UNL     1      -3.839  10.701  17.861  0.00  0.00    +0.000 A 
ATOM     36  N   UNL     1      -3.686  10.370  16.600  0.00  0.00    +0.000 NA
ATOM     37  C   UNL     1      -2.596  11.097  16.233  0.00  0.00    +0.000 A 
ATOM     38  N   UNL     1      -2.095  11.891  17.178  0.00  0.00    +0.000 NA
ENDBRANCH  26  34
ENDBRANCH   1  27
TORSDOF 4
ENDMDL
MODEL 6
REMARK VINA RESULT:      -7.8      1.846      3.554
REMARK  Name = 
REMARK  5 active torsions:
REMARK  status: ('A' for Active; 'I' for Inactive)
REMARK    1  A    between atoms: C_1  and  C_2
REMARK    2  A    between atoms: N_4  and  C_5
REMARK    3  A    between atoms: C_11  and  N_12
REMARK    4  A    between atoms: C_17  and  C_18
REMARK    5  A    between atoms: C_20  and  C_21
REMARK                            x       y       z     vdW  Elec       q    Type
REMARK                         _______ _______ _______ _____ _____    ______ ____
ROOT
ATOM      1  C   UNL     1      -0.994  12.161  19.409  0.00  0.00    +0.000 C 
ATOM      2  C   UNL     1      -0.544  10.884  19.453  0.00  0.00    +0.000 C 
ATOM      3  C   UNL     1       0.881  10.626  19.084  0.00  0.00    +0.000 C 
ATOM      4  N   UNL     1       1.692  11.504  18.608  0.00  0.00    +0.000 NA
ATOM      5  C   UNL     1       1.121  12.793  18.295  0.00  0.00    +0.000 C 
ATOM      6  N   UNL     1       2.116  13.848  18.464  0.00  0.00    +0.000 N 
ATOM      7  C   UNL     1       1.253  14.958  18.687  0.00  0.00    +0.000 A 
ATOM      8  C   UNL     1       1.674  16.275  18.688  0.00  0.00    +0.000 A 
ATOM      9  C   UNL     1       0.725  17.248  18.966  0.00  0.00    +0.000 A 
ATOM     10  C   UNL     1      -0.595  16.876  19.275  0.00  0.00    +0.000 A 
ATOM     11  C   UNL     1      -0.988  15.524  19.324  0.00  0.00    +0.000 A 
ATOM     12  C   UNL     1      -0.053  14.556  19.028  0.00  0.00    +0.000 A 
ATOM     13  N   UNL     1      -0.107  13.145  19.014  0.00  0.00    +0.000 N 
ATOM     14  H   UNL     1       2.581  13.632  19.341  0.00  0.00    +0.000 HD
ENDROOT
BRANCH   3  15
ATOM     15  C   UNL     1       1.414   9.229  19.190  0.00  0.00    +0.000 A 
ATOM     16  C   UNL     1       1.264   8.577  20.432  0.00  0.00    +0.000 A 
ATOM     17  C   UNL     1       1.780   7.299  20.639  0.00  0.00    +0.000 A 
ATOM     18  C   UNL     1       2.443   6.667  19.599  0.00  0.00    +0.000 A 
ATOM     19  F   UNL     1       2.964   5.450  19.796  0.00  0.00    +0.000 F 
ATOM     20  C   UNL     1       2.579   7.281  18.356  0.00  0.00    +0.000 A 
ATOM     21  C   UNL     1       2.058   8.563  18.144  0.00  0.00    +0.000 A 
ENDBRANCH   3  15
BRANCH   1  27
ATOM     22  C   UNL     1      -3.569  11.337  17.663  0.00  0.00    +0.000 C 
ATOM     23  C   UNL     1      -3.527  12.042  18.972  0.00  0.00    +0.000 A 
ATOM     24  N   UNL     1      -4.659  12.341  19.628  0.00  0.00    +0.000 NA
ATOM     25  N   UNL     1      -4.258  12.997  20.760  0.00  0.00    +0.000 N 
ATOM     26  C   UNL     1      -2.878  13.003  20.850  0.00  0.00    +0.000 A 
ATOM     27  C   UNL     1      -2.375  12.420  19.705  0.00  0.00    +0.000 A 
BRANCH  25  28
ATOM     28  C   UNL     1      -5.222  13.658  21.588  0.00  0.00    +0.000 A 
ATOM     29  C   UNL     1      -5.783  14.873  21.174  0.00  0.00    +0.000 A 
ATOM     30  C   UNL     1      -6.826  15.448  21.915  0.00  0.00    +0.000 A 
ATOM     31  C   UNL     1      -7.284  14.840  23.084  0.00  0.00    +0.000 A 
ATOM     32  C   UNL     1      -6.677  13.675  23.541  0.00  0.00    +0.000 A 
ATOM     33  C   UNL     1      -5.643  13.093  22.804  0.00  0.00    +0.000 A 
ENDBRANCH  25  28
BRANCH  26  34
ATOM     34  N   UNL     1      -2.176  13.407  21.962  0.00  0.00    +0.000 N 
ATOM     35  C   UNL     1      -1.414  12.700  22.854  0.00  0.00    +0.000 A 
ATOM     36  N   UNL     1      -1.030  13.476  23.840  0.00  0.00    +0.000 NA
ATOM     37  C   UNL     1      -1.588  14.672  23.511  0.00  0.00    +0.000 A 
ATOM     38  N   UNL     1      -2.256  14.692  22.358  0.00  0.00    +0.000 NA
ENDBRANCH  26  34
ENDBRANCH   1  27
TORSDOF 4
ENDMDL
MODEL 7
REMARK VINA RESULT:      -7.8      4.242      6.263
REMARK  Name = 
REMARK  5 active torsions:
REMARK  status: ('A' for Active; 'I' for Inactive)
REMARK    1  A    between atoms: C_1  and  C_2
REMARK    2  A    between atoms: N_4  and  C_5
REMARK    3  A    between atoms: C_11  and  N_12
REMARK    4  A    between atoms: C_17  and  C_18
REMARK    5  A    between atoms: C_20  and  C_21
REMARK                            x       y       z     vdW  Elec       q    Type
REMARK                         _______ _______ _______ _____ _____    ______ ____
ROOT
ATOM      1  C   UNL     1       2.791  15.556  20.036  0.00  0.00    +0.000 C 
ATOM      2  C   UNL     1       4.064  15.120  20.181  0.00  0.00    +0.000 C 
ATOM      3  C   UNL     1       5.017  15.335  19.048  0.00  0.00    +0.000 C 
ATOM      4  N   UNL     1       4.695  15.796  17.890  0.00  0.00    +0.000 NA
ATOM      5  C   UNL     1       3.284  15.989  17.652  0.00  0.00    +0.000 C 
ATOM      6  N   UNL     1       3.069  17.096  16.725  0.00  0.00    +0.000 N 
ATOM      7  C   UNL     1       1.743  17.463  17.093  0.00  0.00    +0.000 A 
ATOM      8  C   UNL     1       0.953  18.333  16.365  0.00  0.00    +0.000 A 
ATOM      9  C   UNL     1      -0.303  18.631  16.873  0.00  0.00    +0.000 A 
ATOM     10  C   UNL     1      -0.711  18.090  18.105  0.00  0.00    +0.000 A 
ATOM     11  C   UNL     1       0.133  17.249  18.857  0.00  0.00    +0.000 A 
ATOM     12  C   UNL     1       1.374  16.935  18.346  0.00  0.00    +0.000 A 
ATOM     13  N   UNL     1       2.448  16.166  18.844  0.00  0.00    +0.000 N 
ATOM     14  H   UNL     1       3.696  17.830  17.042  0.00  0.00    +0.000 HD
ENDROOT
BRANCH   3  15
ATOM     15  C   UNL     1       6.446  14.917  19.214  0.00  0.00    +0.000 A 
ATOM     16  C   UNL     1       7.176  14.644  18.038  0.00  0.00    +0.000 A 
ATOM     17  C   UNL     1       8.493  14.194  18.099  0.00  0.00    +0.000 A 
ATOM     18  C   UNL     1       9.087  14.022  19.339  0.00  0.00    +0.000 A 
ATOM     19  F   UNL     1      10.343  13.566  19.408  0.00  0.00    +0.000 F 
ATOM     20  C   UNL     1       8.394  14.312  20.512  0.00  0.00    +0.000 A 
ATOM     21  C   UNL     1       7.072  14.768  20.455  0.00  0.00    +0.000 A 
ENDBRANCH   3  15
BRANCH   1  27
ATOM     22  C   UNL     1       2.527  17.105  22.844  0.00  0.00    +0.000 C 
ATOM     23  C   UNL     1       1.690  15.993  22.320  0.00  0.00    +0.000 A 
ATOM     24  N   UNL     1       0.613  15.567  22.997  0.00  0.00    +0.000 NA
ATOM     25  N   UNL     1       0.104  14.536  22.254  0.00  0.00    +0.000 N 
ATOM     26  C   UNL     1       0.806  14.404  21.070  0.00  0.00    +0.000 A 
ATOM     27  C   UNL     1       1.848  15.307  21.091  0.00  0.00    +0.000 A 
BRANCH  25  28
ATOM     28  C   UNL     1      -0.927  13.700  22.793  0.00  0.00    +0.000 A 
ATOM     29  C   UNL     1      -2.052  14.279  23.395  0.00  0.00    +0.000 A 
ATOM     30  C   UNL     1      -3.124  13.467  23.796  0.00  0.00    +0.000 A 
ATOM     31  C   UNL     1      -3.063  12.083  23.636  0.00  0.00    +0.000 A 
ATOM     32  C   UNL     1      -1.915  11.498  23.110  0.00  0.00    +0.000 A 
ATOM     33  C   UNL     1      -0.848  12.301  22.702  0.00  0.00    +0.000 A 
ENDBRANCH  25  28
BRANCH  26  34
ATOM     34  N   UNL     1       0.420  13.596  20.026  0.00  0.00    +0.000 N 
ATOM     35  C   UNL     1      -0.625  13.696  19.146  0.00  0.00    +0.000 A 
ATOM     36  N   UNL     1      -0.686  12.626  18.388  0.00  0.00    +0.000 NA
ATOM     37  C   UNL     1       0.357  11.880  18.843  0.00  0.00    +0.000 A 
ATOM     38  N   UNL     1       1.085  12.445  19.806  0.00  0.00    +0.000 NA
ENDBRANCH  26  34
ENDBRANCH   1  27
TORSDOF 4
ENDMDL
MODEL 8
REMARK VINA RESULT:      -7.7      1.941      3.551
REMARK  Name = 
REMARK  5 active torsions:
REMARK  status: ('A' for Active; 'I' for Inactive)
REMARK    1  A    between atoms: C_1  and  C_2
REMARK    2  A    between atoms: N_4  and  C_5
REMARK    3  A    between atoms: C_11  and  N_12
REMARK    4  A    between atoms: C_17  and  C_18
REMARK    5  A    between atoms: C_20  and  C_21
REMARK                            x       y       z     vdW  Elec       q    Type
REMARK                         _______ _______ _______ _____ _____    ______ ____
ROOT
ATOM      1  C   UNL     1      -1.024  12.324  19.519  0.00  0.00    +0.000 C 
ATOM      2  C   UNL     1      -0.574  11.050  19.595  0.00  0.00    +0.000 C 
ATOM      3  C   UNL     1       0.842  10.777  19.198  0.00  0.00    +0.000 C 
ATOM      4  N   UNL     1       1.640  11.638  18.671  0.00  0.00    +0.000 NA
ATOM      5  C   UNL     1       1.062  12.916  18.329  0.00  0.00    +0.000 C 
ATOM      6  N   UNL     1       2.061  13.974  18.436  0.00  0.00    +0.000 N 
ATOM      7  C   UNL     1       1.205  15.093  18.644  0.00  0.00    +0.000 A 
ATOM      8  C   UNL     1       1.626  16.408  18.588  0.00  0.00    +0.000 A 
ATOM      9  C   UNL     1       0.685  17.391  18.858  0.00  0.00    +0.000 A 
ATOM     10  C   UNL     1      -0.626  17.033  19.214  0.00  0.00    +0.000 A 
ATOM     11  C   UNL     1      -1.019  15.683  19.319  0.00  0.00    +0.000 A 
ATOM     12  C   UNL     1      -0.092  14.704  19.033  0.00  0.00    +0.000 A 
ATOM     13  N   UNL     1      -0.148  13.294  19.068  0.00  0.00    +0.000 N 
ATOM     14  H   UNL     1       2.549  13.788  19.307  0.00  0.00    +0.000 HD
ENDROOT
BRANCH   3  15
ATOM     15  C   UNL     1       1.377   9.384  19.337  0.00  0.00    +0.000 A 
ATOM     16  C   UNL     1       1.988   8.815  18.200  0.00  0.00    +0.000 A 
ATOM     17  C   UNL     1       2.462   7.505  18.220  0.00  0.00    +0.000 A 
ATOM     18  C   UNL     1       2.332   6.762  19.382  0.00  0.00    +0.000 A 
ATOM     19  F   UNL     1       2.762   5.495  19.403  0.00  0.00    +0.000 F 
ATOM     20  C   UNL     1       1.758   7.313  20.525  0.00  0.00    +0.000 A 
ATOM     21  C   UNL     1       1.283   8.630  20.510  0.00  0.00    +0.000 A 
ENDBRANCH   3  15
BRANCH   1  27
ATOM     22  C   UNL     1      -3.644  11.457  17.864  0.00  0.00    +0.000 C 
ATOM     23  C   UNL     1      -3.567  12.200  19.150  0.00  0.00    +0.000 A 
ATOM     24  N   UNL     1      -4.682  12.520  19.825  0.00  0.00    +0.000 NA
ATOM     25  N   UNL     1      -4.252  13.208  20.927  0.00  0.00    +0.000 N 
ATOM     26  C   UNL     1      -2.870  13.213  20.982  0.00  0.00    +0.000 A 
ATOM     27  C   UNL     1      -2.397  12.596  19.842  0.00  0.00    +0.000 A 
BRANCH  25  28
ATOM     28  C   UNL     1      -5.193  13.894  21.760  0.00  0.00    +0.000 A 
ATOM     29  C   UNL     1      -5.691  13.271  22.912  0.00  0.00    +0.000 A 
ATOM     30  C   UNL     1      -6.502  13.993  23.801  0.00  0.00    +0.000 A 
ATOM     31  C   UNL     1      -6.848  15.316  23.529  0.00  0.00    +0.000 A 
ATOM     32  C   UNL     1      -6.420  15.914  22.348  0.00  0.00    +0.000 A 
ATOM     33  C   UNL     1      -5.606  15.203  21.463  0.00  0.00    +0.000 A 
ENDBRANCH  25  28
BRANCH  26  34
ATOM     34  N   UNL     1      -2.139  13.647  22.064  0.00  0.00    +0.000 N 
ATOM     35  C   UNL     1      -1.447  12.954  23.022  0.00  0.00    +0.000 A 
ATOM     36  N   UNL     1      -1.000  13.775  23.943  0.00  0.00    +0.000 NA
ATOM     37  C   UNL     1      -1.447  14.984  23.506  0.00  0.00    +0.000 A 
ATOM     38  N   UNL     1      -2.105  14.963  22.348  0.00  0.00    +0.000 NA
ENDBRANCH  26  34
ENDBRANCH   1  27
TORSDOF 4
ENDMDL
MODEL 9
REMARK VINA RESULT:      -7.6      1.995      3.831
REMARK  Name = 
REMARK  5 active torsions:
REMARK  status: ('A' for Active; 'I' for Inactive)
REMARK    1  A    between atoms: C_1  and  C_2
REMARK    2  A    between atoms: N_4  and  C_5
REMARK    3  A    between atoms: C_11  and  N_12
REMARK    4  A    between atoms: C_17  and  C_18
REMARK    5  A    between atoms: C_20  and  C_21
REMARK                            x       y       z     vdW  Elec       q    Type
REMARK                         _______ _______ _______ _____ _____    ______ ____
ROOT
ATOM      1  C   UNL     1      -1.595  12.417  19.551  0.00  0.00    +0.000 C 
ATOM      2  C   UNL     1      -1.040  11.184  19.500  0.00  0.00    +0.000 C 
ATOM      3  C   UNL     1       0.406  11.076  19.132  0.00  0.00    +0.000 C 
ATOM      4  N   UNL     1       1.142  12.056  18.740  0.00  0.00    +0.000 NA
ATOM      5  C   UNL     1       0.467  13.313  18.522  0.00  0.00    +0.000 C 
ATOM      6  N   UNL     1       1.367  14.430  18.790  0.00  0.00    +0.000 N 
ATOM      7  C   UNL     1       0.412  15.443  19.089  0.00  0.00    +0.000 A 
ATOM      8  C   UNL     1       0.719  16.785  19.201  0.00  0.00    +0.000 A 
ATOM      9  C   UNL     1      -0.311  17.650  19.542  0.00  0.00    +0.000 A 
ATOM     10  C   UNL     1      -1.597  17.145  19.801  0.00  0.00    +0.000 A 
ATOM     11  C   UNL     1      -1.874  15.765  19.736  0.00  0.00    +0.000 A 
ATOM     12  C   UNL     1      -0.859  14.906  19.377  0.00  0.00    +0.000 A 
ATOM     13  N   UNL     1      -0.793  13.502  19.249  0.00  0.00    +0.000 N 
ATOM     14  H   UNL     1       1.842  14.184  19.654  0.00  0.00    +0.000 HD
ENDROOT
BRANCH   3  15
ATOM     15  C   UNL     1       1.054   9.726  19.133  0.00  0.00    +0.000 A 
ATOM     16  C   UNL     1       1.066   9.020  20.355  0.00  0.00    +0.000 A 
ATOM     17  C   UNL     1       1.697   7.783  20.464  0.00  0.00    +0.000 A 
ATOM     18  C   UNL     1       2.314   7.244  19.346  0.00  0.00    +0.000 A 
ATOM     19  F   UNL     1       2.944   6.068  19.446  0.00  0.00    +0.000 F 
ATOM     20  C   UNL     1       2.290   7.910  18.123  0.00  0.00    +0.000 A 
ATOM     21  C   UNL     1       1.654   9.151  18.009  0.00  0.00    +0.000 A 
ENDBRANCH   3  15
BRANCH   1  27
ATOM     22  C   UNL     1      -4.079  11.694  17.636  0.00  0.00    +0.000 C 
ATOM     23  C   UNL     1      -4.107  12.195  19.036  0.00  0.00    +0.000 A 
ATOM     24  N   UNL     1      -5.267  12.314  19.700  0.00  0.00    +0.000 NA
ATOM     25  N   UNL     1      -4.931  12.818  20.927  0.00  0.00    +0.000 N 
ATOM     26  C   UNL     1      -3.557  12.903  21.052  0.00  0.00    +0.000 A 
ATOM     27  C   UNL     1      -2.997  12.535  19.847  0.00  0.00    +0.000 A 
BRANCH  25  28
ATOM     28  C   UNL     1      -5.952  13.279  21.820  0.00  0.00    +0.000 A 
ATOM     29  C   UNL     1      -6.851  12.366  22.385  0.00  0.00    +0.000 A 
ATOM     30  C   UNL     1      -7.759  12.795  23.364  0.00  0.00    +0.000 A 
ATOM     31  C   UNL     1      -7.801  14.133  23.754  0.00  0.00    +0.000 A 
ATOM     32  C   UNL     1      -6.963  15.058  23.140  0.00  0.00    +0.000 A 
ATOM     33  C   UNL     1      -6.052  14.636  22.169  0.00  0.00    +0.000 A 
ENDBRANCH  25  28
BRANCH  26  34
ATOM     34  N   UNL     1      -2.902  13.182  22.230  0.00  0.00    +0.000 N 
ATOM     35  C   UNL     1      -2.455  14.364  22.756  0.00  0.00    +0.000 A 
ATOM     36  N   UNL     1      -1.768  14.144  23.852  0.00  0.00    +0.000 NA
ATOM     37  C   UNL     1      -1.816  12.789  23.966  0.00  0.00    +0.000 A 
ATOM     38  N   UNL     1      -2.529  12.164  23.030  0.00  0.00    +0.000 NA
ENDBRANCH  26  34
ENDBRANCH   1  27
TORSDOF 4
ENDMDL
