MODEL 1
REMARK VINA RESULT:      -4.7      0.000      0.000
REMARK  Name = 
REMARK  8 active torsions:
REMARK  status: ('A' for Active; 'I' for Inactive)
REMARK    1  A    between atoms: N_1  and  C_2
REMARK    2  A    between atoms: C_2  and  C_3
REMARK    3  A    between atoms: C_3  and  O_4
REMARK    4  A    between atoms: O_4  and  C_5
REMARK    5  A    between atoms: C_6  and  CA_7
REMARK    6  A    between atoms: CA_7  and  N_8
REMARK    7  A    between atoms: CA_7  and  C_9
REMARK    8  A    between atoms: C_9  and  OXT_11
REMARK                            x       y       z     vdW  Elec       q    Type
REMARK                         _______ _______ _______ _____ _____    ______ ____
ROOT
ATOM      1  C   UNL     1       4.304   5.104  19.318  0.00  0.00    +0.000 C 
ATOM      2  C   UNL     1       5.546   4.675  19.077  0.00  0.00    +0.000 C 
ENDROOT
BRANCH   1   3
ATOM      3  O   UNL     1       3.263   4.228  19.466  0.00  0.00    +0.000 OA
BRANCH   3   4
ATOM      4  C   UNL     1       2.498   4.080  18.263  0.00  0.00    +0.000 C 
BRANCH   4   5
ATOM      5  C   UNL     1       2.615   2.623  17.799  0.00  0.00    +0.000 C 
BRANCH   5   6
ATOM      6  N   UNL     1       1.878   1.696  18.658  0.00  0.00    +0.000 NA
ATOM      7  H   UNL     1       1.871   2.063  19.610  0.00  0.00    +0.000 HD
ATOM      8  H   UNL     1       2.378   0.808  18.708  0.00  0.00    +0.000 HD
ENDBRANCH   5   6
ENDBRANCH   4   5
ENDBRANCH   3   4
ENDBRANCH   1   3
BRANCH   2   9
ATOM      9  CA  UNL     1       6.721   5.581  18.895  0.00  0.00    +0.000 C 
BRANCH   9  10
ATOM     10  N   UNL     1       7.680   5.422  20.020  0.00  0.00    +0.000 NA
ATOM     11  H1  UNL     1       8.508   4.933  19.664  0.00  0.00    +0.000 HD
ATOM     12  H2  UNL     1       7.263   4.758  20.681  0.00  0.00    +0.000 HD
ENDBRANCH   9  10
BRANCH   9  13
ATOM     13  C   UNL     1       7.478   5.293  17.572  0.00  0.00    +0.000 C 
ATOM     14  O   UNL     1       7.507   6.008  16.582  0.00  0.00    +0.000 OA
BRANCH  13  15
ATOM     15  OXT UNL     1       8.175   4.124  17.662  0.00  0.00    +0.000 OA
ATOM     16  HXT UNL     1       8.586   4.116  18.562  0.00  0.00    +0.000 HD
ENDBRANCH  13  15
ENDBRANCH   9  13
ENDBRANCH   2   9
TORSDOF 8
ENDMDL
MODEL 2
REMARK VINA RESULT:      -4.7      2.363      5.725
REMARK  Name = 
REMARK  8 active torsions:
REMARK  status: ('A' for Active; 'I' for Inactive)
REMARK    1  A    between atoms: N_1  and  C_2
REMARK    2  A    between atoms: C_2  and  C_3
REMARK    3  A    between atoms: C_3  and  O_4
REMARK    4  A    between atoms: O_4  and  C_5
REMARK    5  A    between atoms: C_6  and  CA_7
REMARK    6  A    between atoms: CA_7  and  N_8
REMARK    7  A    between atoms: CA_7  and  C_9
REMARK    8  A    between atoms: C_9  and  OXT_11
REMARK                            x       y       z     vdW  Elec       q    Type
REMARK                         _______ _______ _______ _____ _____    ______ ____
ROOT
ATOM      1  C   UNL     1       4.820   4.067  19.059  0.00  0.00    +0.000 C 
ATOM      2  C   UNL     1       4.168   3.011  19.552  0.00  0.00    +0.000 C 
ENDROOT
BRANCH   1   3
ATOM      3  O   UNL     1       6.185   4.150  19.110  0.00  0.00    +0.000 OA
BRANCH   3   4
ATOM      4  C   UNL     1       6.697   5.231  18.319  0.00  0.00    +0.000 C 
BRANCH   4   5
ATOM      5  C   UNL     1       7.150   4.662  16.970  0.00  0.00    +0.000 C 
BRANCH   5   6
ATOM      6  N   UNL     1       7.387   5.703  15.970  0.00  0.00    +0.000 NA
ATOM      7  H   UNL     1       6.667   6.418  16.061  0.00  0.00    +0.000 HD
ATOM      8  H   UNL     1       7.270   5.309  15.035  0.00  0.00    +0.000 HD
ENDBRANCH   5   6
ENDBRANCH   4   5
ENDBRANCH   3   4
ENDBRANCH   1   3
BRANCH   2   9
ATOM      9  CA  UNL     1       2.680   2.867  19.534  0.00  0.00    +0.000 C 
BRANCH   9  10
ATOM     10  N   UNL     1       2.283   1.654  18.772  0.00  0.00    +0.000 NA
ATOM     11  H1  UNL     1       2.053   1.942  17.815  0.00  0.00    +0.000 HD
ATOM     12  H2  UNL     1       1.389   1.333  19.157  0.00  0.00    +0.000 HD
ENDBRANCH   9  10
BRANCH   9  13
ATOM     13  C   UNL     1       2.089   2.753  20.964  0.00  0.00    +0.000 C 
ATOM     14  O   UNL     1       2.714   2.550  21.993  0.00  0.00    +0.000 OA
BRANCH  13  15
ATOM     15  OXT UNL     1       0.741   2.960  20.944  0.00  0.00    +0.000 OA
ATOM     16  HXT UNL     1       0.453   2.997  21.890  0.00  0.00    +0.000 HD
ENDBRANCH  13  15
ENDBRANCH   9  13
ENDBRANCH   2   9
TORSDOF 8
ENDMDL
MODEL 3
REMARK VINA RESULT:      -4.7      0.990      1.386
REMARK  Name = 
REMARK  8 active torsions:
REMARK  status: ('A' for Active; 'I' for Inactive)
REMARK    1  A    between atoms: N_1  and  C_2
REMARK    2  A    between atoms: C_2  and  C_3
REMARK    3  A    between atoms: C_3  and  O_4
REMARK    4  A    between atoms: O_4  and  C_5
REMARK    5  A    between atoms: C_6  and  CA_7
REMARK    6  A    between atoms: CA_7  and  N_8
REMARK    7  A    between atoms: CA_7  and  C_9
REMARK    8  A    between atoms: C_9  and  OXT_11
REMARK                            x       y       z     vdW  Elec       q    Type
REMARK                         _______ _______ _______ _____ _____    ______ ____
ROOT
ATOM      1  C   UNL     1       5.150   4.114  18.880  0.00  0.00    +0.000 C 
ATOM      2  C   UNL     1       5.621   5.326  19.190  0.00  0.00    +0.000 C 
ENDROOT
BRANCH   1   3
ATOM      3  O   UNL     1       3.836   3.789  19.077  0.00  0.00    +0.000 OA
BRANCH   3   4
ATOM      4  C   UNL     1       3.230   3.227  17.906  0.00  0.00    +0.000 C 
BRANCH   4   5
ATOM      5  C   UNL     1       2.822   1.784  18.223  0.00  0.00    +0.000 C 
BRANCH   5   6
ATOM      6  N   UNL     1       3.969   0.881  18.319  0.00  0.00    +0.000 NA
ATOM      7  H   UNL     1       4.814   1.435  18.454  0.00  0.00    +0.000 HD
ATOM      8  H   UNL     1       4.095   0.397  17.429  0.00  0.00    +0.000 HD
ENDBRANCH   5   6
ENDBRANCH   4   5
ENDBRANCH   3   4
ENDBRANCH   1   3
BRANCH   2   9
ATOM      9  CA  UNL     1       7.047   5.737  19.008  0.00  0.00    +0.000 C 
BRANCH   9  10
ATOM     10  N   UNL     1       7.847   5.389  20.212  0.00  0.00    +0.000 NA
ATOM     11  H1  UNL     1       7.977   6.245  20.763  0.00  0.00    +0.000 HD
ATOM     12  H2  UNL     1       8.791   5.154  19.890  0.00  0.00    +0.000 HD
ENDBRANCH   9  10
BRANCH   9  13
ATOM     13  C   UNL     1       7.699   5.048  17.780  0.00  0.00    +0.000 C 
ATOM     14  O   UNL     1       8.404   4.052  17.797  0.00  0.00    +0.000 OA
BRANCH  13  15
ATOM     15  OXT UNL     1       7.341   5.683  16.627  0.00  0.00    +0.000 OA
ATOM     16  HXT UNL     1       7.843   5.239  15.900  0.00  0.00    +0.000 HD
ENDBRANCH  13  15
ENDBRANCH   9  13
ENDBRANCH   2   9
TORSDOF 8
ENDMDL
MODEL 4
REMARK VINA RESULT:      -4.6      1.070      1.116
REMARK  Name = 
REMARK  8 active torsions:
REMARK  status: ('A' for Active; 'I' for Inactive)
REMARK    1  A    between atoms: N_1  and  C_2
REMARK    2  A    between atoms: C_2  and  C_3
REMARK    3  A    between atoms: C_3  and  O_4
REMARK    4  A    between atoms: O_4  and  C_5
REMARK    5  A    between atoms: C_6  and  CA_7
REMARK    6  A    between atoms: CA_7  and  N_8
REMARK    7  A    between atoms: CA_7  and  C_9
REMARK    8  A    between atoms: C_9  and  OXT_11
REMARK                            x       y       z     vdW  Elec       q    Type
REMARK                         _______ _______ _______ _____ _____    ______ ____
ROOT
ATOM      1  C   UNL     1       5.157   4.029  18.728  0.00  0.00    +0.000 C 
ATOM      2  C   UNL     1       5.672   5.101  19.338  0.00  0.00    +0.000 C 
ENDROOT
BRANCH   1   3
ATOM      3  O   UNL     1       3.937   3.523  19.085  0.00  0.00    +0.000 OA
BRANCH   3   4
ATOM      4  C   UNL     1       3.493   2.489  18.197  0.00  0.00    +0.000 C 
BRANCH   4   5
ATOM      5  C   UNL     1       1.961   2.511  18.166  0.00  0.00    +0.000 C 
BRANCH   5   6
ATOM      6  N   UNL     1       1.426   3.689  17.483  0.00  0.00    +0.000 NA
ATOM      7  H   UNL     1       0.458   3.507  17.220  0.00  0.00    +0.000 HD
ATOM      8  H   UNL     1       1.929   3.830  16.606  0.00  0.00    +0.000 HD
ENDBRANCH   5   6
ENDBRANCH   4   5
ENDBRANCH   3   4
ENDBRANCH   1   3
BRANCH   2   9
ATOM      9  CA  UNL     1       7.002   5.693  19.000  0.00  0.00    +0.000 C 
BRANCH   9  10
ATOM     10  N   UNL     1       7.996   5.380  20.062  0.00  0.00    +0.000 NA
ATOM     11  H1  UNL     1       8.923   5.652  19.718  0.00  0.00    +0.000 HD
ATOM     12  H2  UNL     1       8.047   4.359  20.135  0.00  0.00    +0.000 HD
ENDBRANCH   9  10
BRANCH   9  13
ATOM     13  C   UNL     1       7.552   5.159  17.652  0.00  0.00    +0.000 C 
ATOM     14  O   UNL     1       7.361   5.642  16.547  0.00  0.00    +0.000 OA
BRANCH  13  15
ATOM     15  OXT UNL     1       8.346   4.068  17.856  0.00  0.00    +0.000 OA
ATOM     16  HXT UNL     1       8.298   3.532  17.026  0.00  0.00    +0.000 HD
ENDBRANCH  13  15
ENDBRANCH   9  13
ENDBRANCH   2   9
TORSDOF 8
ENDMDL
MODEL 5
REMARK VINA RESULT:      -4.6      2.015      2.105
REMARK  Name = 
REMARK  8 active torsions:
REMARK  status: ('A' for Active; 'I' for Inactive)
REMARK    1  A    between atoms: N_1  and  C_2
REMARK    2  A    between atoms: C_2  and  C_3
REMARK    3  A    between atoms: C_3  and  O_4
REMARK    4  A    between atoms: O_4  and  C_5
REMARK    5  A    between atoms: C_6  and  CA_7
REMARK    6  A    between atoms: CA_7  and  N_8
REMARK    7  A    between atoms: CA_7  and  C_9
REMARK    8  A    between atoms: C_9  and  OXT_11
REMARK                            x       y       z     vdW  Elec       q    Type
REMARK                         _______ _______ _______ _____ _____    ______ ____
ROOT
ATOM      1  C   UNL     1       4.572   4.863  17.885  0.00  0.00    +0.000 C 
ATOM      2  C   UNL     1       5.656   4.166  17.533  0.00  0.00    +0.000 C 
ENDROOT
BRANCH   1   3
ATOM      3  O   UNL     1       3.457   4.245  18.383  0.00  0.00    +0.000 OA
BRANCH   3   4
ATOM      4  C   UNL     1       3.781   3.154  19.255  0.00  0.00    +0.000 C 
BRANCH   4   5
ATOM      5  C   UNL     1       3.060   1.902  18.743  0.00  0.00    +0.000 C 
BRANCH   5   6
ATOM      6  N   UNL     1       3.985   0.855  18.311  0.00  0.00    +0.000 NA
ATOM      7  H   UNL     1       3.475   0.177  17.745  0.00  0.00    +0.000 HD
ATOM      8  H   UNL     1       4.319   0.339  19.125  0.00  0.00    +0.000 HD
ENDBRANCH   5   6
ENDBRANCH   4   5
ENDBRANCH   3   4
ENDBRANCH   1   3
BRANCH   2   9
ATOM      9  CA  UNL     1       6.898   4.782  16.974  0.00  0.00    +0.000 C 
BRANCH   9  10
ATOM     10  N   UNL     1       8.105   4.148  17.568  0.00  0.00    +0.000 NA
ATOM     11  H1  UNL     1       7.874   3.859  18.524  0.00  0.00    +0.000 HD
ATOM     12  H2  UNL     1       8.803   4.889  17.694  0.00  0.00    +0.000 HD
ENDBRANCH   9  10
BRANCH   9  13
ATOM     13  C   UNL     1       6.981   4.627  15.433  0.00  0.00    +0.000 C 
ATOM     14  O   UNL     1       7.580   5.361  14.661  0.00  0.00    +0.000 OA
BRANCH  13  15
ATOM     15  OXT UNL     1       6.320   3.505  15.027  0.00  0.00    +0.000 OA
ATOM     16  HXT UNL     1       5.589   3.814  14.436  0.00  0.00    +0.000 HD
ENDBRANCH  13  15
ENDBRANCH   9  13
ENDBRANCH   2   9
TORSDOF 8
ENDMDL
MODEL 6
REMARK VINA RESULT:      -4.6      1.958      2.087
REMARK  Name = 
REMARK  8 active torsions:
REMARK  status: ('A' for Active; 'I' for Inactive)
REMARK    1  A    between atoms: N_1  and  C_2
REMARK    2  A    between atoms: C_2  and  C_3
REMARK    3  A    between atoms: C_3  and  O_4
REMARK    4  A    between atoms: O_4  and  C_5
REMARK    5  A    between atoms: C_6  and  CA_7
REMARK    6  A    between atoms: CA_7  and  N_8
REMARK    7  A    between atoms: CA_7  and  C_9
REMARK    8  A    between atoms: C_9  and  OXT_11
REMARK                            x       y       z     vdW  Elec       q    Type
REMARK                         _______ _______ _______ _____ _____    ______ ____
ROOT
ATOM      1  C   UNL     1       3.732   3.477  17.382  0.00  0.00    +0.000 C 
ATOM      2  C   UNL     1       4.304   4.653  17.110  0.00  0.00    +0.000 C 
ENDROOT
BRANCH   1   3
ATOM      3  O   UNL     1       2.439   3.213  17.021  0.00  0.00    +0.000 OA
BRANCH   3   4
ATOM      4  C   UNL     1       1.490   3.783  17.931  0.00  0.00    +0.000 C 
BRANCH   4   5
ATOM      5  C   UNL     1       0.921   2.653  18.798  0.00  0.00    +0.000 C 
BRANCH   5   6
ATOM      6  N   UNL     1       0.609   3.089  20.159  0.00  0.00    +0.000 NA
ATOM      7  H   UNL     1      -0.275   3.597  20.149  0.00  0.00    +0.000 HD
ATOM      8  H   UNL     1       1.311   3.762  20.470  0.00  0.00    +0.000 HD
ENDBRANCH   5   6
ENDBRANCH   4   5
ENDBRANCH   3   4
ENDBRANCH   1   3
BRANCH   2   9
ATOM      9  CA  UNL     1       5.707   5.005  17.488  0.00  0.00    +0.000 C 
BRANCH   9  10
ATOM     10  N   UNL     1       6.262   3.995  18.428  0.00  0.00    +0.000 NA
ATOM     11  H1  UNL     1       6.452   4.464  19.321  0.00  0.00    +0.000 HD
ATOM     12  H2  UNL     1       7.190   3.736  18.080  0.00  0.00    +0.000 HD
ENDBRANCH   9  10
BRANCH   9  13
ATOM     13  C   UNL     1       6.642   5.078  16.252  0.00  0.00    +0.000 C 
ATOM     14  O   UNL     1       6.411   5.654  15.201  0.00  0.00    +0.000 OA
BRANCH  13  15
ATOM     15  OXT UNL     1       7.819   4.435  16.502  0.00  0.00    +0.000 OA
ATOM     16  HXT UNL     1       8.339   4.474  15.662  0.00  0.00    +0.000 HD
ENDBRANCH  13  15
ENDBRANCH   9  13
ENDBRANCH   2   9
TORSDOF 8
ENDMDL
MODEL 7
REMARK VINA RESULT:      -4.6      2.088      5.370
REMARK  Name = 
REMARK  8 active torsions:
REMARK  status: ('A' for Active; 'I' for Inactive)
REMARK    1  A    between atoms: N_1  and  C_2
REMARK    2  A    between atoms: C_2  and  C_3
REMARK    3  A    between atoms: C_3  and  O_4
REMARK    4  A    between atoms: O_4  and  C_5
REMARK    5  A    between atoms: C_6  and  CA_7
REMARK    6  A    between atoms: CA_7  and  N_8
REMARK    7  A    between atoms: CA_7  and  C_9
REMARK    8  A    between atoms: C_9  and  OXT_11
REMARK                            x       y       z     vdW  Elec       q    Type
REMARK                         _______ _______ _______ _____ _____    ______ ____
ROOT
ATOM      1  C   UNL     1       4.467   3.436  19.280  0.00  0.00    +0.000 C 
ATOM      2  C   UNL     1       3.320   3.637  19.935  0.00  0.00    +0.000 C 
ENDROOT
BRANCH   1   3
ATOM      3  O   UNL     1       5.603   4.127  19.603  0.00  0.00    +0.000 OA
BRANCH   3   4
ATOM      4  C   UNL     1       5.827   5.247  18.737  0.00  0.00    +0.000 C 
BRANCH   4   5
ATOM      5  C   UNL     1       7.276   5.713  18.922  0.00  0.00    +0.000 C 
BRANCH   5   6
ATOM      6  N   UNL     1       7.807   5.389  20.246  0.00  0.00    +0.000 NA
ATOM      7  H   UNL     1       7.863   6.245  20.798  0.00  0.00    +0.000 HD
ATOM      8  H   UNL     1       8.768   5.057  20.155  0.00  0.00    +0.000 HD
ENDBRANCH   5   6
ENDBRANCH   4   5
ENDBRANCH   3   4
ENDBRANCH   1   3
BRANCH   2   9
ATOM      9  CA  UNL     1       2.045   2.922  19.622  0.00  0.00    +0.000 C 
BRANCH   9  10
ATOM     10  N   UNL     1       0.914   3.520  20.379  0.00  0.00    +0.000 NA
ATOM     11  H1  UNL     1       0.080   2.948  20.208  0.00  0.00    +0.000 HD
ATOM     12  H2  UNL     1       0.695   4.418  19.936  0.00  0.00    +0.000 HD
ENDBRANCH   9  10
BRANCH   9  13
ATOM     13  C   UNL     1       1.700   2.983  18.111  0.00  0.00    +0.000 C 
ATOM     14  O   UNL     1       1.234   3.939  17.510  0.00  0.00    +0.000 OA
BRANCH  13  15
ATOM     15  OXT UNL     1       2.033   1.812  17.495  0.00  0.00    +0.000 OA
ATOM     16  HXT UNL     1       2.751   1.407  18.042  0.00  0.00    +0.000 HD
ENDBRANCH  13  15
ENDBRANCH   9  13
ENDBRANCH   2   9
TORSDOF 8
ENDMDL
MODEL 8
REMARK VINA RESULT:      -4.6      2.140      2.258
REMARK  Name = 
REMARK  8 active torsions:
REMARK  status: ('A' for Active; 'I' for Inactive)
REMARK    1  A    between atoms: N_1  and  C_2
REMARK    2  A    between atoms: C_2  and  C_3
REMARK    3  A    between atoms: C_3  and  O_4
REMARK    4  A    between atoms: O_4  and  C_5
REMARK    5  A    between atoms: C_6  and  CA_7
REMARK    6  A    between atoms: CA_7  and  N_8
REMARK    7  A    between atoms: CA_7  and  C_9
REMARK    8  A    between atoms: C_9  and  OXT_11
REMARK                            x       y       z     vdW  Elec       q    Type
REMARK                         _______ _______ _______ _____ _____    ______ ____
ROOT
ATOM      1  C   UNL     1       4.537   5.352  17.352  0.00  0.00    +0.000 C 
ATOM      2  C   UNL     1       5.500   4.512  16.961  0.00  0.00    +0.000 C 
ENDROOT
BRANCH   1   3
ATOM      3  O   UNL     1       3.319   4.894  17.771  0.00  0.00    +0.000 OA
BRANCH   3   4
ATOM      4  C   UNL     1       3.268   3.463  17.842  0.00  0.00    +0.000 C 
BRANCH   4   5
ATOM      5  C   UNL     1       1.819   3.049  18.127  0.00  0.00    +0.000 C 
BRANCH   5   6
ATOM      6  N   UNL     1       1.696   1.636  18.485  0.00  0.00    +0.000 NA
ATOM      7  H   UNL     1       1.088   1.176  17.808  0.00  0.00    +0.000 HD
ATOM      8  H   UNL     1       1.220   1.554  19.384  0.00  0.00    +0.000 HD
ENDBRANCH   5   6
ENDBRANCH   4   5
ENDBRANCH   3   4
ENDBRANCH   1   3
BRANCH   2   9
ATOM      9  CA  UNL     1       6.847   4.952  16.483  0.00  0.00    +0.000 C 
BRANCH   9  10
ATOM     10  N   UNL     1       7.920   4.216  17.202  0.00  0.00    +0.000 NA
ATOM     11  H1  UNL     1       8.056   3.314  16.733  0.00  0.00    +0.000 HD
ATOM     12  H2  UNL     1       7.548   3.965  18.124  0.00  0.00    +0.000 HD
ENDBRANCH   9  10
BRANCH   9  13
ATOM     13  C   UNL     1       7.032   4.709  14.962  0.00  0.00    +0.000 C 
ATOM     14  O   UNL     1       7.685   5.396  14.191  0.00  0.00    +0.000 OA
BRANCH  13  15
ATOM     15  OXT UNL     1       6.393   3.566  14.577  0.00  0.00    +0.000 OA
ATOM     16  HXT UNL     1       5.606   3.478  15.169  0.00  0.00    +0.000 HD
ENDBRANCH  13  15
ENDBRANCH   9  13
ENDBRANCH   2   9
TORSDOF 8
ENDMDL
MODEL 9
REMARK VINA RESULT:      -4.6      2.643      2.876
REMARK  Name = 
REMARK  8 active torsions:
REMARK  status: ('A' for Active; 'I' for Inactive)
REMARK    1  A    between atoms: N_1  and  C_2
REMARK    2  A    between atoms: C_2  and  C_3
REMARK    3  A    between atoms: C_3  and  O_4
REMARK    4  A    between atoms: O_4  and  C_5
REMARK    5  A    between atoms: C_6  and  CA_7
REMARK    6  A    between atoms: CA_7  and  N_8
REMARK    7  A    between atoms: CA_7  and  C_9
REMARK    8  A    between atoms: C_9  and  OXT_11
REMARK                            x       y       z     vdW  Elec       q    Type
REMARK                         _______ _______ _______ _____ _____    ______ ____
ROOT
ATOM      1  C   UNL     1       5.017   3.912  17.319  0.00  0.00    +0.000 C 
ATOM      2  C   UNL     1       5.371   4.753  16.343  0.00  0.00    +0.000 C 
ENDROOT
BRANCH   1   3
ATOM      3  O   UNL     1       3.704   3.628  17.575  0.00  0.00    +0.000 OA
BRANCH   3   4
ATOM      4  C   UNL     1       3.526   2.322  18.139  0.00  0.00    +0.000 C 
BRANCH   4   5
ATOM      5  C   UNL     1       3.709   2.429  19.657  0.00  0.00    +0.000 C 
BRANCH   5   6
ATOM      6  N   UNL     1       5.012   1.937  20.104  0.00  0.00    +0.000 NA
ATOM      7  H   UNL     1       5.255   2.396  20.982  0.00  0.00    +0.000 HD
ATOM      8  H   UNL     1       5.730   2.221  19.436  0.00  0.00    +0.000 HD
ENDBRANCH   5   6
ENDBRANCH   4   5
ENDBRANCH   3   4
ENDBRANCH   1   3
BRANCH   2   9
ATOM      9  CA  UNL     1       6.787   5.111  16.023  0.00  0.00    +0.000 C 
BRANCH   9  10
ATOM     10  N   UNL     1       7.726   4.329  16.872  0.00  0.00    +0.000 NA
ATOM     11  H1  UNL     1       7.170   3.785  17.540  0.00  0.00    +0.000 HD
ATOM     12  H2  UNL     1       8.233   5.000  17.457  0.00  0.00    +0.000 HD
ENDBRANCH   9  10
BRANCH   9  13
ATOM     13  C   UNL     1       7.135   4.834  14.537  0.00  0.00    +0.000 C 
ATOM     14  O   UNL     1       7.870   5.502  13.827  0.00  0.00    +0.000 OA
BRANCH  13  15
ATOM     15  OXT UNL     1       6.538   3.684  14.111  0.00  0.00    +0.000 OA
ATOM     16  HXT UNL     1       6.419   3.120  14.915  0.00  0.00    +0.000 HD
ENDBRANCH  13  15
ENDBRANCH   9  13
ENDBRANCH   2   9
TORSDOF 8
ENDMDL
