MODEL 1
REMARK VINA RESULT:      -8.5      0.000      0.000
REMARK  Name = 
REMARK  4 active torsions:
REMARK  status: ('A' for Active; 'I' for Inactive)
REMARK    1  A    between atoms: C_1  and  O_2
REMARK    2  A    between atoms: O_2  and  C_3
REMARK    3  A    between atoms: C_8  and  C_9
REMARK    4  A    between atoms: C_16  and  O_17
REMARK                            x       y       z     vdW  Elec       q    Type
REMARK                         _______ _______ _______ _____ _____    ______ ____
ROOT
ATOM      1  C   UNL     1       3.889   6.184  17.213  0.00  0.00    +0.000 A 
ATOM      2  C   UNL     1       3.678   7.575  17.192  0.00  0.00    +0.000 A 
ATOM      3  C   UNL     1       2.933   8.113  18.237  0.00  0.00    +0.000 A 
ATOM      4  N   UNL     1       2.262   9.303  18.349  0.00  0.00    +0.000 N 
ATOM      5  C   UNL     1       1.304   9.202  19.341  0.00  0.00    +0.000 A 
ATOM      6  C   UNL     1       0.162   9.979  19.538  0.00  0.00    +0.000 A 
ATOM      7  C   UNL     1      -0.635   9.690  20.644  0.00  0.00    +0.000 A 
ATOM      8  C   UNL     1      -0.269   8.683  21.529  0.00  0.00    +0.000 A 
ATOM      9  C   UNL     1       0.840   7.862  21.296  0.00  0.00    +0.000 A 
ATOM     10  C   UNL     1       1.625   8.101  20.150  0.00  0.00    +0.000 A 
ATOM     11  C   UNL     1       2.631   7.468  19.411  0.00  0.00    +0.000 A 
ATOM     12  C   UNL     1       2.847   6.074  19.481  0.00  0.00    +0.000 A 
ATOM     13  C   UNL     1       3.187   5.509  18.230  0.00  0.00    +0.000 A 
ATOM     14  C   UNL     1       2.335   4.348  18.131  0.00  0.00    +0.000 C 
ATOM     15  O   UNL     1       1.787   3.808  17.168  0.00  0.00    +0.000 OA
ATOM     16  N   UNL     1       1.981   4.089  19.428  0.00  0.00    +0.000 N 
ATOM     17  C   UNL     1       2.337   5.053  20.335  0.00  0.00    +0.000 C 
ATOM     18  O   UNL     1       2.240   4.931  21.544  0.00  0.00    +0.000 OA
ATOM     19  H   UNL     1       2.253  10.024  17.644  0.00  0.00    +0.000 HD
ATOM     20  H   UNL     1       1.296   3.392  19.676  0.00  0.00    +0.000 HD
ENDROOT
BRANCH   1  26
ATOM     21  C   UNL     1       6.203   5.159  17.052  0.00  0.00    +0.000 A 
ATOM     22  C   UNL     1       7.154   4.381  16.373  0.00  0.00    +0.000 A 
ATOM     23  C   UNL     1       6.931   3.991  15.056  0.00  0.00    +0.000 A 
ATOM     24  C   UNL     1       5.764   4.385  14.418  0.00  0.00    +0.000 A 
ATOM     25  C   UNL     1       4.793   5.130  15.098  0.00  0.00    +0.000 A 
ATOM     26  C   UNL     1       4.964   5.513  16.439  0.00  0.00    +0.000 A 
BRANCH  21  28
ATOM     27  C   UNL     1       7.750   5.905  18.698  0.00  0.00    +0.000 C 
ATOM     28  O   UNL     1       6.413   5.545  18.360  0.00  0.00    +0.000 OA
ENDBRANCH  21  28
ENDBRANCH   1  26
BRANCH   8  29
ATOM     29  O   UNL     1      -1.011   8.447  22.651  0.00  0.00    +0.000 OA
ATOM     30  H   UNL     1      -0.897   9.201  23.254  0.00  0.00    +0.000 HD
ENDBRANCH   8  29
TORSDOF 3
ENDMDL
MODEL 2
REMARK VINA RESULT:      -7.7      2.189      6.795
REMARK  Name = 
REMARK  4 active torsions:
REMARK  status: ('A' for Active; 'I' for Inactive)
REMARK    1  A    between atoms: C_1  and  O_2
REMARK    2  A    between atoms: O_2  and  C_3
REMARK    3  A    between atoms: C_8  and  C_9
REMARK    4  A    between atoms: C_16  and  O_17
REMARK                            x       y       z     vdW  Elec       q    Type
REMARK                         _______ _______ _______ _____ _____    ______ ____
ROOT
ATOM      1  C   UNL     1       1.266   9.352  18.854  0.00  0.00    +0.000 A 
ATOM      2  C   UNL     1       2.165   9.242  17.777  0.00  0.00    +0.000 A 
ATOM      3  C   UNL     1       2.883   8.055  17.677  0.00  0.00    +0.000 A 
ATOM      4  N   UNL     1       4.040   7.752  17.008  0.00  0.00    +0.000 N 
ATOM      5  C   UNL     1       4.616   6.625  17.566  0.00  0.00    +0.000 A 
ATOM      6  C   UNL     1       5.940   6.190  17.491  0.00  0.00    +0.000 A 
ATOM      7  C   UNL     1       6.264   4.991  18.122  0.00  0.00    +0.000 A 
ATOM      8  C   UNL     1       5.281   4.250  18.767  0.00  0.00    +0.000 A 
ATOM      9  C   UNL     1       3.969   4.717  18.898  0.00  0.00    +0.000 A 
ATOM     10  C   UNL     1       3.636   5.958  18.317  0.00  0.00    +0.000 A 
ATOM     11  C   UNL     1       2.596   6.894  18.353  0.00  0.00    +0.000 A 
ATOM     12  C   UNL     1       1.683   6.957  19.429  0.00  0.00    +0.000 A 
ATOM     13  C   UNL     1       1.327   8.283  19.768  0.00  0.00    +0.000 A 
ATOM     14  C   UNL     1       1.458   8.320  21.204  0.00  0.00    +0.000 C 
ATOM     15  O   UNL     1       1.808   9.215  21.977  0.00  0.00    +0.000 OA
ATOM     16  N   UNL     1       1.393   7.003  21.575  0.00  0.00    +0.000 N 
ATOM     17  C   UNL     1       1.433   6.103  20.542  0.00  0.00    +0.000 C 
ATOM     18  O   UNL     1       1.239   4.906  20.664  0.00  0.00    +0.000 OA
ATOM     19  H   UNL     1       4.545   8.394  16.416  0.00  0.00    +0.000 HD
ATOM     20  H   UNL     1       1.564   6.695  22.520  0.00  0.00    +0.000 HD
ENDROOT
BRANCH   1  26
ATOM     21  C   UNL     1       0.340  11.636  19.449  0.00  0.00    +0.000 A 
ATOM     22  C   UNL     1      -0.652  12.623  19.336  0.00  0.00    +0.000 A 
ATOM     23  C   UNL     1      -1.869  12.330  18.728  0.00  0.00    +0.000 A 
ATOM     24  C   UNL     1      -2.096  11.052  18.242  0.00  0.00    +0.000 A 
ATOM     25  C   UNL     1      -1.099  10.070  18.315  0.00  0.00    +0.000 A 
ATOM     26  C   UNL     1       0.155  10.337  18.889  0.00  0.00    +0.000 A 
BRANCH  21  28
ATOM     27  C   UNL     1       2.205  13.104  19.595  0.00  0.00    +0.000 C 
ATOM     28  O   UNL     1       1.551  11.920  20.044  0.00  0.00    +0.000 OA
ENDBRANCH  21  28
ENDBRANCH   1  26
BRANCH   8  29
ATOM     29  O   UNL     1       5.584   3.040  19.325  0.00  0.00    +0.000 OA
ATOM     30  H   UNL     1       6.207   2.583  18.736  0.00  0.00    +0.000 HD
ENDBRANCH   8  29
TORSDOF 3
ENDMDL
MODEL 3
REMARK VINA RESULT:      -7.6      3.243      7.382
REMARK  Name = 
REMARK  4 active torsions:
REMARK  status: ('A' for Active; 'I' for Inactive)
REMARK    1  A    between atoms: C_1  and  O_2
REMARK    2  A    between atoms: O_2  and  C_3
REMARK    3  A    between atoms: C_8  and  C_9
REMARK    4  A    between atoms: C_16  and  O_17
REMARK                            x       y       z     vdW  Elec       q    Type
REMARK                         _______ _______ _______ _____ _____    ______ ____
ROOT
ATOM      1  C   UNL     1       3.784   4.091  17.739  0.00  0.00    +0.000 A 
ATOM      2  C   UNL     1       4.041   3.107  16.767  0.00  0.00    +0.000 A 
ATOM      3  C   UNL     1       5.087   3.355  15.883  0.00  0.00    +0.000 A 
ATOM      4  N   UNL     1       5.379   2.822  14.655  0.00  0.00    +0.000 N 
ATOM      5  C   UNL     1       6.210   3.682  13.962  0.00  0.00    +0.000 A 
ATOM      6  C   UNL     1       6.441   3.760  12.588  0.00  0.00    +0.000 A 
ATOM      7  C   UNL     1       7.361   4.705  12.139  0.00  0.00    +0.000 A 
ATOM      8  C   UNL     1       8.041   5.508  13.046  0.00  0.00    +0.000 A 
ATOM      9  C   UNL     1       7.763   5.475  14.416  0.00  0.00    +0.000 A 
ATOM     10  C   UNL     1       6.792   4.567  14.883  0.00  0.00    +0.000 A 
ATOM     11  C   UNL     1       6.051   4.320  16.045  0.00  0.00    +0.000 A 
ATOM     12  C   UNL     1       5.841   5.316  17.024  0.00  0.00    +0.000 A 
ATOM     13  C   UNL     1       4.544   5.267  17.585  0.00  0.00    +0.000 A 
ATOM     14  C   UNL     1       4.100   6.639  17.551  0.00  0.00    +0.000 C 
ATOM     15  O   UNL     1       2.986   7.142  17.381  0.00  0.00    +0.000 OA
ATOM     16  N   UNL     1       5.261   7.358  17.454  0.00  0.00    +0.000 N 
ATOM     17  C   UNL     1       6.390   6.616  17.222  0.00  0.00    +0.000 C 
ATOM     18  O   UNL     1       7.524   7.060  17.252  0.00  0.00    +0.000 OA
ATOM     19  H   UNL     1       4.851   2.087  14.210  0.00  0.00    +0.000 HD
ATOM     20  H   UNL     1       5.272   8.355  17.301  0.00  0.00    +0.000 HD
ENDROOT
BRANCH   1  26
ATOM     21  C   UNL     1       3.570   3.076  20.052  0.00  0.00    +0.000 A 
ATOM     22  C   UNL     1       2.908   2.964  21.285  0.00  0.00    +0.000 A 
ATOM     23  C   UNL     1       1.652   3.536  21.461  0.00  0.00    +0.000 A 
ATOM     24  C   UNL     1       1.057   4.210  20.406  0.00  0.00    +0.000 A 
ATOM     25  C   UNL     1       1.724   4.359  19.184  0.00  0.00    +0.000 A 
ATOM     26  C   UNL     1       3.008   3.828  18.977  0.00  0.00    +0.000 A 
BRANCH  21  28
ATOM     27  C   UNL     1       5.169   1.468  20.768  0.00  0.00    +0.000 C 
ATOM     28  O   UNL     1       4.818   2.518  19.870  0.00  0.00    +0.000 OA
ENDBRANCH  21  28
ENDBRANCH   1  26
BRANCH   8  29
ATOM     29  O   UNL     1       8.994   6.385  12.611  0.00  0.00    +0.000 OA
ATOM     30  H   UNL     1       9.626   6.530  13.336  0.00  0.00    +0.000 HD
ENDBRANCH   8  29
TORSDOF 3
ENDMDL
MODEL 4
REMARK VINA RESULT:      -7.5      2.810      7.871
REMARK  Name = 
REMARK  4 active torsions:
REMARK  status: ('A' for Active; 'I' for Inactive)
REMARK    1  A    between atoms: C_1  and  O_2
REMARK    2  A    between atoms: O_2  and  C_3
REMARK    3  A    between atoms: C_8  and  C_9
REMARK    4  A    between atoms: C_16  and  O_17
REMARK                            x       y       z     vdW  Elec       q    Type
REMARK                         _______ _______ _______ _____ _____    ______ ____
ROOT
ATOM      1  C   UNL     1       0.078   9.968  21.248  0.00  0.00    +0.000 A 
ATOM      2  C   UNL     1       0.503   8.849  21.986  0.00  0.00    +0.000 A 
ATOM      3  C   UNL     1       1.263   7.901  21.308  0.00  0.00    +0.000 A 
ATOM      4  N   UNL     1       1.532   6.587  21.590  0.00  0.00    +0.000 N 
ATOM      5  C   UNL     1       1.916   5.934  20.434  0.00  0.00    +0.000 A 
ATOM      6  C   UNL     1       1.903   4.567  20.154  0.00  0.00    +0.000 A 
ATOM      7  C   UNL     1       2.377   4.156  18.909  0.00  0.00    +0.000 A 
ATOM      8  C   UNL     1       2.875   5.087  18.007  0.00  0.00    +0.000 A 
ATOM      9  C   UNL     1       2.829   6.462  18.261  0.00  0.00    +0.000 A 
ATOM     10  C   UNL     1       2.298   6.901  19.490  0.00  0.00    +0.000 A 
ATOM     11  C   UNL     1       1.863   8.090  20.087  0.00  0.00    +0.000 A 
ATOM     12  C   UNL     1       1.478   9.213  19.321  0.00  0.00    +0.000 A 
ATOM     13  C   UNL     1       0.369   9.897  19.872  0.00  0.00    +0.000 A 
ATOM     14  C   UNL     1      -0.507  10.100  18.744  0.00  0.00    +0.000 C 
ATOM     15  O   UNL     1      -1.737  10.120  18.649  0.00  0.00    +0.000 OA
ATOM     16  N   UNL     1       0.319   9.979  17.659  0.00  0.00    +0.000 N 
ATOM     17  C   UNL     1       1.584   9.528  17.935  0.00  0.00    +0.000 C 
ATOM     18  O   UNL     1       2.496   9.498  17.128  0.00  0.00    +0.000 OA
ATOM     19  H   UNL     1       1.220   6.104  22.419  0.00  0.00    +0.000 HD
ATOM     20  H   UNL     1      -0.026   9.964  16.712  0.00  0.00    +0.000 HD
ENDROOT
BRANCH   1  26
ATOM     21  C   UNL     1       0.343  12.453  21.679  0.00  0.00    +0.000 A 
ATOM     22  C   UNL     1      -0.167  13.678  22.135  0.00  0.00    +0.000 A 
ATOM     23  C   UNL     1      -1.360  13.720  22.851  0.00  0.00    +0.000 A 
ATOM     24  C   UNL     1      -2.035  12.538  23.118  0.00  0.00    +0.000 A 
ATOM     25  C   UNL     1      -1.554  11.314  22.636  0.00  0.00    +0.000 A 
ATOM     26  C   UNL     1      -0.373  11.235  21.879  0.00  0.00    +0.000 A 
BRANCH  21  28
ATOM     27  C   UNL     1       1.669  13.380  19.936  0.00  0.00    +0.000 C 
ATOM     28  O   UNL     1       1.520  12.403  20.963  0.00  0.00    +0.000 OA
ENDBRANCH  21  28
ENDBRANCH   1  26
BRANCH   8  29
ATOM     29  O   UNL     1       3.405   4.678  16.816  0.00  0.00    +0.000 OA
ATOM     30  H   UNL     1       2.717   4.760  16.134  0.00  0.00    +0.000 HD
ENDBRANCH   8  29
TORSDOF 3
ENDMDL
MODEL 5
REMARK VINA RESULT:      -7.4      5.366     11.264
REMARK  Name = 
REMARK  4 active torsions:
REMARK  status: ('A' for Active; 'I' for Inactive)
REMARK    1  A    between atoms: C_1  and  O_2
REMARK    2  A    between atoms: O_2  and  C_3
REMARK    3  A    between atoms: C_8  and  C_9
REMARK    4  A    between atoms: C_16  and  O_17
REMARK                            x       y       z     vdW  Elec       q    Type
REMARK                         _______ _______ _______ _____ _____    ______ ____
ROOT
ATOM      1  C   UNL     1      -3.645  12.940  22.414  0.00  0.00    +0.000 A 
ATOM      2  C   UNL     1      -2.842  12.225  23.321  0.00  0.00    +0.000 A 
ATOM      3  C   UNL     1      -1.726  11.578  22.799  0.00  0.00    +0.000 A 
ATOM      4  N   UNL     1      -0.962  10.553  23.292  0.00  0.00    +0.000 N 
ATOM      5  C   UNL     1      -0.284   9.941  22.254  0.00  0.00    +0.000 A 
ATOM      6  C   UNL     1       0.275   8.663  22.206  0.00  0.00    +0.000 A 
ATOM      7  C   UNL     1       0.942   8.291  21.040  0.00  0.00    +0.000 A 
ATOM      8  C   UNL     1       1.066   9.189  19.987  0.00  0.00    +0.000 A 
ATOM      9  C   UNL     1       0.452  10.445  20.009  0.00  0.00    +0.000 A 
ATOM     10  C   UNL     1      -0.278  10.816  21.157  0.00  0.00    +0.000 A 
ATOM     11  C   UNL     1      -1.191  11.801  21.554  0.00  0.00    +0.000 A 
ATOM     12  C   UNL     1      -1.957  12.531  20.618  0.00  0.00    +0.000 A 
ATOM     13  C   UNL     1      -3.276  12.778  21.064  0.00  0.00    +0.000 A 
ATOM     14  C   UNL     1      -4.097  12.422  19.933  0.00  0.00    +0.000 C 
ATOM     15  O   UNL     1      -5.221  11.921  19.856  0.00  0.00    +0.000 OA
ATOM     16  N   UNL     1      -3.235  12.480  18.870  0.00  0.00    +0.000 N 
ATOM     17  C   UNL     1      -1.914  12.637  19.197  0.00  0.00    +0.000 C 
ATOM     18  O   UNL     1      -1.026  12.856  18.392  0.00  0.00    +0.000 OA
ATOM     19  H   UNL     1      -1.094  10.123  24.194  0.00  0.00    +0.000 HD
ATOM     20  H   UNL     1      -3.493  12.175  17.944  0.00  0.00    +0.000 HD
ENDROOT
BRANCH   1  26
ATOM     21  C   UNL     1      -5.952  13.667  23.176  0.00  0.00    +0.000 A 
ATOM     22  C   UNL     1      -6.813  14.628  23.727  0.00  0.00    +0.000 A 
ATOM     23  C   UNL     1      -6.387  15.943  23.890  0.00  0.00    +0.000 A 
ATOM     24  C   UNL     1      -5.105  16.296  23.495  0.00  0.00    +0.000 A 
ATOM     25  C   UNL     1      -4.225  15.337  22.979  0.00  0.00    +0.000 A 
ATOM     26  C   UNL     1      -4.605  13.992  22.832  0.00  0.00    +0.000 A 
BRANCH  21  28
ATOM     27  C   UNL     1      -7.767  12.132  23.119  0.00  0.00    +0.000 C 
ATOM     28  O   UNL     1      -6.364  12.361  23.017  0.00  0.00    +0.000 OA
ENDBRANCH  21  28
ENDBRANCH   1  26
BRANCH   8  29
ATOM     29  O   UNL     1       1.780   8.850  18.872  0.00  0.00    +0.000 OA
ATOM     30  H   UNL     1       2.359   8.103  19.099  0.00  0.00    +0.000 HD
ENDBRANCH   8  29
TORSDOF 3
ENDMDL
MODEL 6
REMARK VINA RESULT:      -7.4      2.007      3.484
REMARK  Name = 
REMARK  4 active torsions:
REMARK  status: ('A' for Active; 'I' for Inactive)
REMARK    1  A    between atoms: C_1  and  O_2
REMARK    2  A    between atoms: O_2  and  C_3
REMARK    3  A    between atoms: C_8  and  C_9
REMARK    4  A    between atoms: C_16  and  O_17
REMARK                            x       y       z     vdW  Elec       q    Type
REMARK                         _______ _______ _______ _____ _____    ______ ____
ROOT
ATOM      1  C   UNL     1       2.318   7.413  18.378  0.00  0.00    +0.000 A 
ATOM      2  C   UNL     1       1.725   8.332  17.494  0.00  0.00    +0.000 A 
ATOM      3  C   UNL     1       1.032   9.396  18.064  0.00  0.00    +0.000 A 
ATOM      4  N   UNL     1       0.081  10.236  17.548  0.00  0.00    +0.000 N 
ATOM      5  C   UNL     1      -0.643  10.806  18.579  0.00  0.00    +0.000 A 
ATOM      6  C   UNL     1      -1.911  11.386  18.542  0.00  0.00    +0.000 A 
ATOM      7  C   UNL     1      -2.412  11.923  19.727  0.00  0.00    +0.000 A 
ATOM      8  C   UNL     1      -1.645  11.904  20.885  0.00  0.00    +0.000 A 
ATOM      9  C   UNL     1      -0.402  11.265  20.938  0.00  0.00    +0.000 A 
ATOM     10  C   UNL     1       0.096  10.664  19.764  0.00  0.00    +0.000 A 
ATOM     11  C   UNL     1       1.111   9.779  19.381  0.00  0.00    +0.000 A 
ATOM     12  C   UNL     1       1.716   8.892  20.299  0.00  0.00    +0.000 A 
ATOM     13  C   UNL     1       2.000   7.628  19.734  0.00  0.00    +0.000 A 
ATOM     14  C   UNL     1       1.503   6.691  20.711  0.00  0.00    +0.000 C 
ATOM     15  O   UNL     1       0.985   5.578  20.597  0.00  0.00    +0.000 OA
ATOM     16  N   UNL     1       1.444   7.423  21.867  0.00  0.00    +0.000 N 
ATOM     17  C   UNL     1       1.653   8.769  21.718  0.00  0.00    +0.000 C 
ATOM     18  O   UNL     1       1.784   9.553  22.642  0.00  0.00    +0.000 OA
ATOM     19  H   UNL     1      -0.240  10.219  16.592  0.00  0.00    +0.000 HD
ATOM     20  H   UNL     1       1.028   7.068  22.715  0.00  0.00    +0.000 HD
ENDROOT
BRANCH   1  26
ATOM     21  C   UNL     1       3.121   5.122  17.644  0.00  0.00    +0.000 A 
ATOM     22  C   UNL     1       4.112   4.286  17.108  0.00  0.00    +0.000 A 
ATOM     23  C   UNL     1       5.414   4.751  16.949  0.00  0.00    +0.000 A 
ATOM     24  C   UNL     1       5.725   6.047  17.334  0.00  0.00    +0.000 A 
ATOM     25  C   UNL     1       4.735   6.902  17.835  0.00  0.00    +0.000 A 
ATOM     26  C   UNL     1       3.402   6.481  17.977  0.00  0.00    +0.000 A 
BRANCH  21  28
ATOM     27  C   UNL     1       1.680   3.287  18.104  0.00  0.00    +0.000 C 
ATOM     28  O   UNL     1       1.827   4.672  17.799  0.00  0.00    +0.000 OA
ENDBRANCH  21  28
ENDBRANCH   1  26
BRANCH   8  29
ATOM     29  O   UNL     1      -2.107  12.493  22.028  0.00  0.00    +0.000 OA
ATOM     30  H   UNL     1      -1.850  13.430  22.011  0.00  0.00    +0.000 HD
ENDBRANCH   8  29
TORSDOF 3
ENDMDL
MODEL 7
REMARK VINA RESULT:      -7.3      2.260      7.122
REMARK  Name = 
REMARK  4 active torsions:
REMARK  status: ('A' for Active; 'I' for Inactive)
REMARK    1  A    between atoms: C_1  and  O_2
REMARK    2  A    between atoms: O_2  and  C_3
REMARK    3  A    between atoms: C_8  and  C_9
REMARK    4  A    between atoms: C_16  and  O_17
REMARK                            x       y       z     vdW  Elec       q    Type
REMARK                         _______ _______ _______ _____ _____    ______ ____
ROOT
ATOM      1  C   UNL     1       1.115   9.717  19.087  0.00  0.00    +0.000 A 
ATOM      2  C   UNL     1       1.925   9.630  17.941  0.00  0.00    +0.000 A 
ATOM      3  C   UNL     1       2.637   8.448  17.761  0.00  0.00    +0.000 A 
ATOM      4  N   UNL     1       3.737   8.162  16.996  0.00  0.00    +0.000 N 
ATOM      5  C   UNL     1       4.360   7.029  17.485  0.00  0.00    +0.000 A 
ATOM      6  C   UNL     1       5.675   6.601  17.296  0.00  0.00    +0.000 A 
ATOM      7  C   UNL     1       6.052   5.392  17.878  0.00  0.00    +0.000 A 
ATOM      8  C   UNL     1       5.127   4.636  18.586  0.00  0.00    +0.000 A 
ATOM      9  C   UNL     1       3.828   5.094  18.830  0.00  0.00    +0.000 A 
ATOM     10  C   UNL     1       3.446   6.343  18.300  0.00  0.00    +0.000 A 
ATOM     11  C   UNL     1       2.409   7.274  18.437  0.00  0.00    +0.000 A 
ATOM     12  C   UNL     1       1.585   7.313  19.584  0.00  0.00    +0.000 A 
ATOM     13  C   UNL     1       1.253   8.631  19.975  0.00  0.00    +0.000 A 
ATOM     14  C   UNL     1       1.500   8.643  21.396  0.00  0.00    +0.000 C 
ATOM     15  O   UNL     1       1.908   9.526  22.154  0.00  0.00    +0.000 OA
ATOM     16  N   UNL     1       1.468   7.320  21.747  0.00  0.00    +0.000 N 
ATOM     17  C   UNL     1       1.428   6.439  20.698  0.00  0.00    +0.000 C 
ATOM     18  O   UNL     1       1.248   5.239  20.813  0.00  0.00    +0.000 OA
ATOM     19  H   UNL     1       4.190   8.818  16.377  0.00  0.00    +0.000 HD
ATOM     20  H   UNL     1       1.715   6.996  22.669  0.00  0.00    +0.000 HD
ENDROOT
BRANCH   1  26
ATOM     21  C   UNL     1      -1.145  10.630  18.391  0.00  0.00    +0.000 A 
ATOM     22  C   UNL     1      -2.263  11.445  18.628  0.00  0.00    +0.000 A 
ATOM     23  C   UNL     1      -2.242  12.385  19.654  0.00  0.00    +0.000 A 
ATOM     24  C   UNL     1      -1.103  12.514  20.435  0.00  0.00    +0.000 A 
ATOM     25  C   UNL     1       0.003  11.681  20.231  0.00  0.00    +0.000 A 
ATOM     26  C   UNL     1       0.008  10.695  19.229  0.00  0.00    +0.000 A 
BRANCH  21  28
ATOM     27  C   UNL     1      -2.275   9.744  16.495  0.00  0.00    +0.000 C 
ATOM     28  O   UNL     1      -1.160   9.692  17.380  0.00  0.00    +0.000 OA
ENDBRANCH  21  28
ENDBRANCH   1  26
BRANCH   8  29
ATOM     29  O   UNL     1       5.477   3.418  19.095  0.00  0.00    +0.000 OA
ATOM     30  H   UNL     1       6.069   2.982  18.459  0.00  0.00    +0.000 HD
ENDBRANCH   8  29
TORSDOF 3
ENDMDL
MODEL 8
REMARK VINA RESULT:      -7.1      5.789      9.103
REMARK  Name = 
REMARK  4 active torsions:
REMARK  status: ('A' for Active; 'I' for Inactive)
REMARK    1  A    between atoms: C_1  and  O_2
REMARK    2  A    between atoms: O_2  and  C_3
REMARK    3  A    between atoms: C_8  and  C_9
REMARK    4  A    between atoms: C_16  and  O_17
REMARK                            x       y       z     vdW  Elec       q    Type
REMARK                         _______ _______ _______ _____ _____    ______ ____
ROOT
ATOM      1  C   UNL     1      -1.569  12.350  20.131  0.00  0.00    +0.000 A 
ATOM      2  C   UNL     1      -2.738  12.237  19.357  0.00  0.00    +0.000 A 
ATOM      3  C   UNL     1      -3.944  12.503  19.998  0.00  0.00    +0.000 A 
ATOM      4  N   UNL     1      -5.233  12.164  19.677  0.00  0.00    +0.000 N 
ATOM      5  C   UNL     1      -6.023  12.224  20.809  0.00  0.00    +0.000 A 
ATOM      6  C   UNL     1      -7.252  11.610  21.053  0.00  0.00    +0.000 A 
ATOM      7  C   UNL     1      -7.868  11.857  22.279  0.00  0.00    +0.000 A 
ATOM      8  C   UNL     1      -7.279  12.717  23.198  0.00  0.00    +0.000 A 
ATOM      9  C   UNL     1      -6.018  13.281  22.981  0.00  0.00    +0.000 A 
ATOM     10  C   UNL     1      -5.353  12.995  21.772  0.00  0.00    +0.000 A 
ATOM     11  C   UNL     1      -4.075  13.127  21.214  0.00  0.00    +0.000 A 
ATOM     12  C   UNL     1      -2.922  13.279  22.015  0.00  0.00    +0.000 A 
ATOM     13  C   UNL     1      -1.803  12.584  21.500  0.00  0.00    +0.000 A 
ATOM     14  C   UNL     1      -1.269  11.889  22.646  0.00  0.00    +0.000 C 
ATOM     15  O   UNL     1      -0.713  10.794  22.761  0.00  0.00    +0.000 OA
ATOM     16  N   UNL     1      -1.776  12.579  23.715  0.00  0.00    +0.000 N 
ATOM     17  C   UNL     1      -2.729  13.515  23.407  0.00  0.00    +0.000 C 
ATOM     18  O   UNL     1      -3.182  14.322  24.199  0.00  0.00    +0.000 OA
ATOM     19  H   UNL     1      -5.503  11.670  18.840  0.00  0.00    +0.000 HD
ATOM     20  H   UNL     1      -1.666  12.265  24.666  0.00  0.00    +0.000 HD
ENDROOT
BRANCH   1  26
ATOM     21  C   UNL     1       0.573  11.362  19.200  0.00  0.00    +0.000 A 
ATOM     22  C   UNL     1       1.779  11.496  18.494  0.00  0.00    +0.000 A 
ATOM     23  C   UNL     1       2.265  12.759  18.168  0.00  0.00    +0.000 A 
ATOM     24  C   UNL     1       1.550  13.883  18.554  0.00  0.00    +0.000 A 
ATOM     25  C   UNL     1       0.328  13.759  19.226  0.00  0.00    +0.000 A 
ATOM     26  C   UNL     1      -0.214  12.502  19.541  0.00  0.00    +0.000 A 
BRANCH  21  28
ATOM     27  C   UNL     1       1.036   9.170  19.998  0.00  0.00    +0.000 C 
ATOM     28  O   UNL     1       0.081  10.114  19.522  0.00  0.00    +0.000 OA
ENDBRANCH  21  28
ENDBRANCH   1  26
BRANCH   8  29
ATOM     29  O   UNL     1      -7.917  13.015  24.369  0.00  0.00    +0.000 OA
ATOM     30  H   UNL     1      -7.346  12.734  25.104  0.00  0.00    +0.000 HD
ENDBRANCH   8  29
TORSDOF 3
ENDMDL
MODEL 9
REMARK VINA RESULT:      -7.0      7.281     12.375
REMARK  Name = 
REMARK  4 active torsions:
REMARK  status: ('A' for Active; 'I' for Inactive)
REMARK    1  A    between atoms: C_1  and  O_2
REMARK    2  A    between atoms: O_2  and  C_3
REMARK    3  A    between atoms: C_8  and  C_9
REMARK    4  A    between atoms: C_16  and  O_17
REMARK                            x       y       z     vdW  Elec       q    Type
REMARK                         _______ _______ _______ _____ _____    ______ ____
ROOT
ATOM      1  C   UNL     1      -5.464  12.740  21.334  0.00  0.00    +0.000 A 
ATOM      2  C   UNL     1      -4.059  12.751  21.257  0.00  0.00    +0.000 A 
ATOM      3  C   UNL     1      -3.493  12.382  20.041  0.00  0.00    +0.000 A 
ATOM      4  N   UNL     1      -2.230  11.954  19.724  0.00  0.00    +0.000 N 
ATOM      5  C   UNL     1      -2.261  11.268  18.524  0.00  0.00    +0.000 A 
ATOM      6  C   UNL     1      -1.343  10.347  18.018  0.00  0.00    +0.000 A 
ATOM      7  C   UNL     1      -1.591   9.814  16.754  0.00  0.00    +0.000 A 
ATOM      8  C   UNL     1      -2.699  10.226  16.024  0.00  0.00    +0.000 A 
ATOM      9  C   UNL     1      -3.653  11.100  16.557  0.00  0.00    +0.000 A 
ATOM     10  C   UNL     1      -3.451  11.603  17.858  0.00  0.00    +0.000 A 
ATOM     11  C   UNL     1      -4.168  12.283  18.849  0.00  0.00    +0.000 A 
ATOM     12  C   UNL     1      -5.581  12.288  18.879  0.00  0.00    +0.000 A 
ATOM     13  C   UNL     1      -6.100  12.215  20.192  0.00  0.00    +0.000 A 
ATOM     14  C   UNL     1      -7.117  11.195  20.106  0.00  0.00    +0.000 C 
ATOM     15  O   UNL     1      -7.505  10.347  20.913  0.00  0.00    +0.000 OA
ATOM     16  N   UNL     1      -7.412  11.137  18.770  0.00  0.00    +0.000 N 
ATOM     17  C   UNL     1      -6.574  11.853  17.955  0.00  0.00    +0.000 C 
ATOM     18  O   UNL     1      -6.764  12.041  16.766  0.00  0.00    +0.000 OA
ATOM     19  H   UNL     1      -1.468  11.883  20.381  0.00  0.00    +0.000 HD
ATOM     20  H   UNL     1      -8.019  10.434  18.377  0.00  0.00    +0.000 HD
ENDROOT
BRANCH   1  26
ATOM     21  C   UNL     1      -6.566  14.847  22.214  0.00  0.00    +0.000 A 
ATOM     22  C   UNL     1      -7.425  15.496  23.116  0.00  0.00    +0.000 A 
ATOM     23  C   UNL     1      -7.913  14.820  24.230  0.00  0.00    +0.000 A 
ATOM     24  C   UNL     1      -7.538  13.503  24.445  0.00  0.00    +0.000 A 
ATOM     25  C   UNL     1      -6.712  12.835  23.533  0.00  0.00    +0.000 A 
ATOM     26  C   UNL     1      -6.227  13.471  22.377  0.00  0.00    +0.000 A 
BRANCH  21  28
ATOM     27  C   UNL     1      -6.853  16.618  20.653  0.00  0.00    +0.000 C 
ATOM     28  O   UNL     1      -6.083  15.507  21.104  0.00  0.00    +0.000 OA
ENDBRANCH  21  28
ENDBRANCH   1  26
BRANCH   8  29
ATOM     29  O   UNL     1      -2.904   9.757  14.757  0.00  0.00    +0.000 OA
ATOM     30  H   UNL     1      -2.930   8.786  14.794  0.00  0.00    +0.000 HD
ENDBRANCH   8  29
TORSDOF 3
ENDMDL
