MODEL 1
REMARK VINA RESULT:      -9.6      0.000      0.000
REMARK  Name = 
REMARK  2 active torsions:
REMARK  status: ('A' for Active; 'I' for Inactive)
REMARK    1  A    between atoms: C_2  and  C_13
REMARK    2  A    between atoms: C_15  and  C_16
REMARK                            x       y       z     vdW  Elec       q    Type
REMARK                         _______ _______ _______ _____ _____    ______ ____
ROOT
ATOM      1  C   UNL     1       3.031   6.197  18.727  0.00  0.00    +0.000 A 
ATOM      2  C   UNL     1       3.910   6.179  17.647  0.00  0.00    +0.000 A 
ATOM      3  C   UNL     1       4.635   5.025  17.426  0.00  0.00    +0.000 A 
ATOM      4  N   UNL     1       4.547   3.936  18.224  0.00  0.00    +0.000 NA
ATOM      5  C   UNL     1       3.714   3.954  19.270  0.00  0.00    +0.000 A 
ATOM      6  C   UNL     1       3.672   2.830  20.086  0.00  0.00    +0.000 A 
ATOM      7  C   UNL     1       2.825   2.743  21.191  0.00  0.00    +0.000 A 
ATOM      8  C   UNL     1       1.987   3.801  21.491  0.00  0.00    +0.000 A 
ATOM      9  C   UNL     1       2.018   4.941  20.690  0.00  0.00    +0.000 A 
ATOM     10  C   UNL     1       2.894   5.058  19.574  0.00  0.00    +0.000 A 
ENDROOT
BRANCH   1  12
ATOM     11  O   UNL     1       2.616   8.447  18.362  0.00  0.00    +0.000 OA
ATOM     12  C   UNL     1       2.348   7.473  19.061  0.00  0.00    +0.000 C 
ATOM     13  N   UNL     1       1.474   7.468  20.132  0.00  0.00    +0.000 N 
ATOM     14  C   UNL     1       0.772   8.583  20.536  0.00  0.00    +0.000 A 
ATOM     15  N   UNL     1       0.229   8.687  21.725  0.00  0.00    +0.000 NA
ATOM     16  C   UNL     1      -0.256   9.983  21.892  0.00  0.00    +0.000 A 
ATOM     17  C   UNL     1      -0.797  10.536  23.067  0.00  0.00    +0.000 A 
ATOM     18  C   UNL     1      -1.194  11.880  23.085  0.00  0.00    +0.000 A 
ATOM     19  C   UNL     1      -1.075  12.673  21.946  0.00  0.00    +0.000 A 
ATOM     20  C   UNL     1      -0.562  12.145  20.764  0.00  0.00    +0.000 A 
ATOM     21  C   UNL     1      -0.157  10.804  20.765  0.00  0.00    +0.000 A 
ATOM     22  S   UNL     1       0.515   9.901  19.484  0.00  0.00    +0.000 S 
ATOM     23  H   UNL     1       1.461   6.704  20.795  0.00  0.00    +0.000 HD
ENDBRANCH   1  12
BRANCH   3  24
ATOM     24  C   UNL     1       5.563   4.877  16.320  0.00  0.00    +0.000 A 
ATOM     25  C   UNL     1       6.843   5.345  16.090  0.00  0.00    +0.000 A 
ATOM     26  C   UNL     1       7.238   4.845  14.828  0.00  0.00    +0.000 A 
ATOM     27  C   UNL     1       6.174   4.114  14.358  0.00  0.00    +0.000 A 
ATOM     28  O   UNL     1       5.154   4.121  15.255  0.00  0.00    +0.000 OA
ENDBRANCH   3  24
TORSDOF 2
ENDMDL
MODEL 2
REMARK VINA RESULT:      -9.2      2.252      8.416
REMARK  Name = 
REMARK  2 active torsions:
REMARK  status: ('A' for Active; 'I' for Inactive)
REMARK    1  A    between atoms: C_2  and  C_13
REMARK    2  A    between atoms: C_15  and  C_16
REMARK                            x       y       z     vdW  Elec       q    Type
REMARK                         _______ _______ _______ _____ _____    ______ ____
ROOT
ATOM      1  C   UNL     1       3.528   5.978  18.972  0.00  0.00    +0.000 A 
ATOM      2  C   UNL     1       2.811   7.150  19.196  0.00  0.00    +0.000 A 
ATOM      3  C   UNL     1       1.856   7.139  20.193  0.00  0.00    +0.000 A 
ATOM      4  N   UNL     1       1.573   6.041  20.930  0.00  0.00    +0.000 NA
ATOM      5  C   UNL     1       2.251   4.909  20.708  0.00  0.00    +0.000 A 
ATOM      6  C   UNL     1       1.913   3.792  21.464  0.00  0.00    +0.000 A 
ATOM      7  C   UNL     1       2.571   2.571  21.321  0.00  0.00    +0.000 A 
ATOM      8  C   UNL     1       3.602   2.455  20.407  0.00  0.00    +0.000 A 
ATOM      9  C   UNL     1       3.953   3.562  19.634  0.00  0.00    +0.000 A 
ATOM     10  C   UNL     1       3.275   4.808  19.748  0.00  0.00    +0.000 A 
ENDROOT
BRANCH   1  12
ATOM     11  O   UNL     1       5.211   6.891  17.666  0.00  0.00    +0.000 OA
ATOM     12  C   UNL     1       4.461   5.930  17.816  0.00  0.00    +0.000 C 
ATOM     13  N   UNL     1       4.406   4.816  16.998  0.00  0.00    +0.000 N 
ATOM     14  C   UNL     1       5.224   4.648  15.901  0.00  0.00    +0.000 A 
ATOM     15  N   UNL     1       4.955   3.798  14.940  0.00  0.00    +0.000 NA
ATOM     16  C   UNL     1       5.867   3.981  13.902  0.00  0.00    +0.000 A 
ATOM     17  C   UNL     1       5.848   3.355  12.643  0.00  0.00    +0.000 A 
ATOM     18  C   UNL     1       6.813   3.690  11.684  0.00  0.00    +0.000 A 
ATOM     19  C   UNL     1       7.806   4.624  11.970  0.00  0.00    +0.000 A 
ATOM     20  C   UNL     1       7.861   5.244  13.215  0.00  0.00    +0.000 A 
ATOM     21  C   UNL     1       6.880   4.909  14.159  0.00  0.00    +0.000 A 
ATOM     22  S   UNL     1       6.687   5.511  15.742  0.00  0.00    +0.000 S 
ATOM     23  H   UNL     1       3.630   4.171  17.043  0.00  0.00    +0.000 HD
ENDBRANCH   1  12
BRANCH   3  24
ATOM     24  C   UNL     1       1.061   8.305  20.535  0.00  0.00    +0.000 A 
ATOM     25  C   UNL     1       0.258   8.619  21.614  0.00  0.00    +0.000 A 
ATOM     26  C   UNL     1      -0.237   9.923  21.387  0.00  0.00    +0.000 A 
ATOM     27  C   UNL     1       0.283  10.324  20.180  0.00  0.00    +0.000 A 
ATOM     28  O   UNL     1       1.076   9.354  19.656  0.00  0.00    +0.000 OA
ENDBRANCH   3  24
TORSDOF 2
ENDMDL
MODEL 3
REMARK VINA RESULT:      -9.0      1.591      1.952
REMARK  Name = 
REMARK  2 active torsions:
REMARK  status: ('A' for Active; 'I' for Inactive)
REMARK    1  A    between atoms: C_2  and  C_13
REMARK    2  A    between atoms: C_15  and  C_16
REMARK                            x       y       z     vdW  Elec       q    Type
REMARK                         _______ _______ _______ _____ _____    ______ ____
ROOT
ATOM      1  C   UNL     1       2.726   5.794  18.463  0.00  0.00    +0.000 A 
ATOM      2  C   UNL     1       3.782   5.965  17.571  0.00  0.00    +0.000 A 
ATOM      3  C   UNL     1       4.375   4.831  17.052  0.00  0.00    +0.000 A 
ATOM      4  N   UNL     1       3.997   3.579  17.394  0.00  0.00    +0.000 NA
ATOM      5  C   UNL     1       2.993   3.411  18.261  0.00  0.00    +0.000 A 
ATOM      6  C   UNL     1       2.650   2.111  18.613  0.00  0.00    +0.000 A 
ATOM      7  C   UNL     1       1.608   1.828  19.496  0.00  0.00    +0.000 A 
ATOM      8  C   UNL     1       0.875   2.868  20.039  0.00  0.00    +0.000 A 
ATOM      9  C   UNL     1       1.206   4.180  19.704  0.00  0.00    +0.000 A 
ATOM     10  C   UNL     1       2.283   4.488  18.827  0.00  0.00    +0.000 A 
ENDROOT
BRANCH   1  12
ATOM     11  O   UNL     1       2.038   6.941  20.355  0.00  0.00    +0.000 OA
ATOM     12  C   UNL     1       2.167   6.995  19.135  0.00  0.00    +0.000 C 
ATOM     13  N   UNL     1       1.831   8.074  18.337  0.00  0.00    +0.000 N 
ATOM     14  C   UNL     1       1.313   9.248  18.840  0.00  0.00    +0.000 A 
ATOM     15  N   UNL     1       0.676  10.119  18.094  0.00  0.00    +0.000 NA
ATOM     16  C   UNL     1       0.130  11.105  18.912  0.00  0.00    +0.000 A 
ATOM     17  C   UNL     1      -0.727  12.149  18.519  0.00  0.00    +0.000 A 
ATOM     18  C   UNL     1      -1.234  13.034  19.479  0.00  0.00    +0.000 A 
ATOM     19  C   UNL     1      -0.886  12.903  20.822  0.00  0.00    +0.000 A 
ATOM     20  C   UNL     1      -0.024  11.892  21.236  0.00  0.00    +0.000 A 
ATOM     21  C   UNL     1       0.465  11.007  20.266  0.00  0.00    +0.000 A 
ATOM     22  S   UNL     1       1.512   9.678  20.479  0.00  0.00    +0.000 S 
ATOM     23  H   UNL     1       1.755   7.980  17.334  0.00  0.00    +0.000 HD
ENDBRANCH   1  12
BRANCH   3  24
ATOM     24  C   UNL     1       5.467   4.882  16.096  0.00  0.00    +0.000 A 
ATOM     25  C   UNL     1       6.729   5.442  16.130  0.00  0.00    +0.000 A 
ATOM     26  C   UNL     1       7.343   5.137  14.894  0.00  0.00    +0.000 A 
ATOM     27  C   UNL     1       6.418   4.420  14.175  0.00  0.00    +0.000 A 
ATOM     28  O   UNL     1       5.278   4.254  14.895  0.00  0.00    +0.000 OA
ENDBRANCH   3  24
TORSDOF 2
ENDMDL
MODEL 4
REMARK VINA RESULT:      -8.8      3.476      9.371
REMARK  Name = 
REMARK  2 active torsions:
REMARK  status: ('A' for Active; 'I' for Inactive)
REMARK    1  A    between atoms: C_2  and  C_13
REMARK    2  A    between atoms: C_15  and  C_16
REMARK                            x       y       z     vdW  Elec       q    Type
REMARK                         _______ _______ _______ _____ _____    ______ ____
ROOT
ATOM      1  C   UNL     1       0.267  10.635  18.720  0.00  0.00    +0.000 A 
ATOM      2  C   UNL     1      -1.108  10.430  18.635  0.00  0.00    +0.000 A 
ATOM      3  C   UNL     1      -1.920  11.543  18.545  0.00  0.00    +0.000 A 
ATOM      4  N   UNL     1      -1.441  12.808  18.565  0.00  0.00    +0.000 NA
ATOM      5  C   UNL     1      -0.122  13.009  18.660  0.00  0.00    +0.000 A 
ATOM      6  C   UNL     1       0.332  14.322  18.708  0.00  0.00    +0.000 A 
ATOM      7  C   UNL     1       1.688  14.638  18.790  0.00  0.00    +0.000 A 
ATOM      8  C   UNL     1       2.624  13.620  18.815  0.00  0.00    +0.000 A 
ATOM      9  C   UNL     1       2.190  12.296  18.774  0.00  0.00    +0.000 A 
ATOM     10  C   UNL     1       0.809  11.955  18.717  0.00  0.00    +0.000 A 
ENDROOT
BRANCH   1  12
ATOM     11  O   UNL     1       1.204   9.031  20.105  0.00  0.00    +0.000 OA
ATOM     12  C   UNL     1       1.144   9.459  18.955  0.00  0.00    +0.000 C 
ATOM     13  N   UNL     1       1.827   8.945  17.868  0.00  0.00    +0.000 N 
ATOM     14  C   UNL     1       2.662   7.852  17.953  0.00  0.00    +0.000 A 
ATOM     15  N   UNL     1       3.564   7.576  17.042  0.00  0.00    +0.000 NA
ATOM     16  C   UNL     1       4.357   6.522  17.491  0.00  0.00    +0.000 A 
ATOM     17  C   UNL     1       5.508   6.007  16.868  0.00  0.00    +0.000 A 
ATOM     18  C   UNL     1       6.227   4.972  17.479  0.00  0.00    +0.000 A 
ATOM     19  C   UNL     1       5.805   4.432  18.692  0.00  0.00    +0.000 A 
ATOM     20  C   UNL     1       4.659   4.908  19.321  0.00  0.00    +0.000 A 
ATOM     21  C   UNL     1       3.957   5.953  18.704  0.00  0.00    +0.000 A 
ATOM     22  S   UNL     1       2.544   6.741  19.242  0.00  0.00    +0.000 S 
ATOM     23  H   UNL     1       1.907   9.465  17.005  0.00  0.00    +0.000 HD
ENDBRANCH   1  12
BRANCH   3  24
ATOM     24  C   UNL     1      -3.364  11.456  18.428  0.00  0.00    +0.000 A 
ATOM     25  C   UNL     1      -4.205  10.698  17.636  0.00  0.00    +0.000 A 
ATOM     26  C   UNL     1      -5.527  11.046  17.998  0.00  0.00    +0.000 A 
ATOM     27  C   UNL     1      -5.415  12.002  18.978  0.00  0.00    +0.000 A 
ATOM     28  O   UNL     1      -4.109  12.256  19.252  0.00  0.00    +0.000 OA
ENDBRANCH   3  24
TORSDOF 2
ENDMDL
MODEL 5
REMARK VINA RESULT:      -8.7      1.542      1.876
REMARK  Name = 
REMARK  2 active torsions:
REMARK  status: ('A' for Active; 'I' for Inactive)
REMARK    1  A    between atoms: C_2  and  C_13
REMARK    2  A    between atoms: C_15  and  C_16
REMARK                            x       y       z     vdW  Elec       q    Type
REMARK                         _______ _______ _______ _____ _____    ______ ____
ROOT
ATOM      1  C   UNL     1       2.487   5.968  19.336  0.00  0.00    +0.000 A 
ATOM      2  C   UNL     1       3.644   6.372  18.675  0.00  0.00    +0.000 A 
ATOM      3  C   UNL     1       4.375   5.407  18.011  0.00  0.00    +0.000 A 
ATOM      4  N   UNL     1       4.033   4.099  18.002  0.00  0.00    +0.000 NA
ATOM      5  C   UNL     1       2.930   3.705  18.648  0.00  0.00    +0.000 A 
ATOM      6  C   UNL     1       2.625   2.349  18.644  0.00  0.00    +0.000 A 
ATOM      7  C   UNL     1       1.489   1.840  19.273  0.00  0.00    +0.000 A 
ATOM      8  C   UNL     1       0.623   2.704  19.918  0.00  0.00    +0.000 A 
ATOM      9  C   UNL     1       0.913   4.067  19.940  0.00  0.00    +0.000 A 
ATOM     10  C   UNL     1       2.081   4.601  19.326  0.00  0.00    +0.000 A 
ENDROOT
BRANCH   1  12
ATOM     11  O   UNL     1       1.406   6.601  21.285  0.00  0.00    +0.000 OA
ATOM     12  C   UNL     1       1.765   6.965  20.168  0.00  0.00    +0.000 C 
ATOM     13  N   UNL     1       1.546   8.215  19.620  0.00  0.00    +0.000 N 
ATOM     14  C   UNL     1       0.897   9.228  20.292  0.00  0.00    +0.000 A 
ATOM     15  N   UNL     1       0.382  10.268  19.682  0.00  0.00    +0.000 NA
ATOM     16  C   UNL     1      -0.347  11.020  20.601  0.00  0.00    +0.000 A 
ATOM     17  C   UNL     1      -1.152  12.140  20.325  0.00  0.00    +0.000 A 
ATOM     18  C   UNL     1      -1.868  12.756  21.360  0.00  0.00    +0.000 A 
ATOM     19  C   UNL     1      -1.778  12.282  22.667  0.00  0.00    +0.000 A 
ATOM     20  C   UNL     1      -0.974  11.188  22.972  0.00  0.00    +0.000 A 
ATOM     21  C   UNL     1      -0.275  10.574  21.924  0.00  0.00    +0.000 A 
ATOM     22  S   UNL     1       0.762   9.222  21.993  0.00  0.00    +0.000 S 
ATOM     23  H   UNL     1       1.668   8.382  18.631  0.00  0.00    +0.000 HD
ENDBRANCH   1  12
BRANCH   3  24
ATOM     24  C   UNL     1       5.585   5.710  17.266  0.00  0.00    +0.000 A 
ATOM     25  C   UNL     1       6.488   6.754  17.314  0.00  0.00    +0.000 A 
ATOM     26  C   UNL     1       7.481   6.476  16.347  0.00  0.00    +0.000 A 
ATOM     27  C   UNL     1       7.120   5.288  15.759  0.00  0.00    +0.000 A 
ATOM     28  O   UNL     1       5.974   4.810  16.311  0.00  0.00    +0.000 OA
ENDBRANCH   3  24
TORSDOF 2
ENDMDL
MODEL 6
REMARK VINA RESULT:      -8.6      3.269      8.534
REMARK  Name = 
REMARK  2 active torsions:
REMARK  status: ('A' for Active; 'I' for Inactive)
REMARK    1  A    between atoms: C_2  and  C_13
REMARK    2  A    between atoms: C_15  and  C_16
REMARK                            x       y       z     vdW  Elec       q    Type
REMARK                         _______ _______ _______ _____ _____    ______ ____
ROOT
ATOM      1  C   UNL     1       0.995  10.495  18.529  0.00  0.00    +0.000 A 
ATOM      2  C   UNL     1       1.804  11.604  18.764  0.00  0.00    +0.000 A 
ATOM      3  C   UNL     1       1.200  12.845  18.800  0.00  0.00    +0.000 A 
ATOM      4  N   UNL     1      -0.124  13.027  18.589  0.00  0.00    +0.000 NA
ATOM      5  C   UNL     1      -0.902  11.965  18.350  0.00  0.00    +0.000 A 
ATOM      6  C   UNL     1      -2.252  12.192  18.107  0.00  0.00    +0.000 A 
ATOM      7  C   UNL     1      -3.149  11.152  17.864  0.00  0.00    +0.000 A 
ATOM      8  C   UNL     1      -2.695   9.846  17.870  0.00  0.00    +0.000 A 
ATOM      9  C   UNL     1      -1.344   9.596  18.105  0.00  0.00    +0.000 A 
ATOM     10  C   UNL     1      -0.410  10.647  18.329  0.00  0.00    +0.000 A 
ENDROOT
BRANCH   1  12
ATOM     11  O   UNL     1       2.068   8.905  17.229  0.00  0.00    +0.000 OA
ATOM     12  C   UNL     1       1.645   9.171  18.351  0.00  0.00    +0.000 C 
ATOM     13  N   UNL     1       1.716   8.342  19.456  0.00  0.00    +0.000 N 
ATOM     14  C   UNL     1       2.302   7.095  19.423  0.00  0.00    +0.000 A 
ATOM     15  N   UNL     1       2.071   6.179  20.333  0.00  0.00    +0.000 NA
ATOM     16  C   UNL     1       2.666   4.983  19.936  0.00  0.00    +0.000 A 
ATOM     17  C   UNL     1       2.550   3.732  20.569  0.00  0.00    +0.000 A 
ATOM     18  C   UNL     1       3.172   2.608  20.009  0.00  0.00    +0.000 A 
ATOM     19  C   UNL     1       3.921   2.717  18.840  0.00  0.00    +0.000 A 
ATOM     20  C   UNL     1       4.069   3.946  18.204  0.00  0.00    +0.000 A 
ATOM     21  C   UNL     1       3.430   5.059  18.767  0.00  0.00    +0.000 A 
ATOM     22  S   UNL     1       3.420   6.669  18.207  0.00  0.00    +0.000 S 
ATOM     23  H   UNL     1       1.164   8.522  20.282  0.00  0.00    +0.000 HD
ENDBRANCH   1  12
BRANCH   3  24
ATOM     24  C   UNL     1       1.933  14.071  19.060  0.00  0.00    +0.000 A 
ATOM     25  C   UNL     1       3.214  14.329  19.509  0.00  0.00    +0.000 A 
ATOM     26  C   UNL     1       3.358  15.735  19.539  0.00  0.00    +0.000 A 
ATOM     27  C   UNL     1       2.156  16.251  19.119  0.00  0.00    +0.000 A 
ATOM     28  O   UNL     1       1.285  15.252  18.821  0.00  0.00    +0.000 OA
ENDBRANCH   3  24
TORSDOF 2
ENDMDL
MODEL 7
REMARK VINA RESULT:      -8.5      2.751      8.207
REMARK  Name = 
REMARK  2 active torsions:
REMARK  status: ('A' for Active; 'I' for Inactive)
REMARK    1  A    between atoms: C_2  and  C_13
REMARK    2  A    between atoms: C_15  and  C_16
REMARK                            x       y       z     vdW  Elec       q    Type
REMARK                         _______ _______ _______ _____ _____    ______ ____
ROOT
ATOM      1  C   UNL     1       1.336  10.240  19.725  0.00  0.00    +0.000 A 
ATOM      2  C   UNL     1       1.766  11.378  19.048  0.00  0.00    +0.000 A 
ATOM      3  C   UNL     1       1.391  12.607  19.553  0.00  0.00    +0.000 A 
ATOM      4  N   UNL     1       0.608  12.747  20.648  0.00  0.00    +0.000 NA
ATOM      5  C   UNL     1       0.182  11.655  21.292  0.00  0.00    +0.000 A 
ATOM      6  C   UNL     1      -0.646  11.835  22.395  0.00  0.00    +0.000 A 
ATOM      7  C   UNL     1      -1.130  10.763  23.145  0.00  0.00    +0.000 A 
ATOM      8  C   UNL     1      -0.775   9.473  22.796  0.00  0.00    +0.000 A 
ATOM      9  C   UNL     1       0.049   9.269  21.690  0.00  0.00    +0.000 A 
ATOM     10  C   UNL     1       0.531  10.350  20.898  0.00  0.00    +0.000 A 
ENDROOT
BRANCH   1  12
ATOM     11  O   UNL     1       1.539   8.830  17.897  0.00  0.00    +0.000 OA
ATOM     12  C   UNL     1       1.613   8.911  19.121  0.00  0.00    +0.000 C 
ATOM     13  N   UNL     1       1.924   7.872  19.979  0.00  0.00    +0.000 N 
ATOM     14  C   UNL     1       2.211   6.597  19.543  0.00  0.00    +0.000 A 
ATOM     15  N   UNL     1       2.160   5.550  20.331  0.00  0.00    +0.000 NA
ATOM     16  C   UNL     1       2.331   4.397  19.567  0.00  0.00    +0.000 A 
ATOM     17  C   UNL     1       2.220   3.067  20.011  0.00  0.00    +0.000 A 
ATOM     18  C   UNL     1       2.370   2.013  19.100  0.00  0.00    +0.000 A 
ATOM     19  C   UNL     1       2.647   2.267  17.758  0.00  0.00    +0.000 A 
ATOM     20  C   UNL     1       2.782   3.573  17.296  0.00  0.00    +0.000 A 
ATOM     21  C   UNL     1       2.615   4.616  18.216  0.00  0.00    +0.000 A 
ATOM     22  S   UNL     1       2.706   6.296  17.938  0.00  0.00    +0.000 S 
ATOM     23  H   UNL     1       1.757   7.946  20.973  0.00  0.00    +0.000 HD
ENDBRANCH   1  12
BRANCH   3  24
ATOM     24  C   UNL     1       1.798  13.864  18.950  0.00  0.00    +0.000 A 
ATOM     25  C   UNL     1       1.250  15.132  18.946  0.00  0.00    +0.000 A 
ATOM     26  C   UNL     1       2.125  15.950  18.195  0.00  0.00    +0.000 A 
ATOM     27  C   UNL     1       3.147  15.132  17.776  0.00  0.00    +0.000 A 
ATOM     28  O   UNL     1       2.962  13.866  18.231  0.00  0.00    +0.000 OA
ENDBRANCH   3  24
TORSDOF 2
ENDMDL
MODEL 8
REMARK VINA RESULT:      -8.5      2.993      8.804
REMARK  Name = 
REMARK  2 active torsions:
REMARK  status: ('A' for Active; 'I' for Inactive)
REMARK    1  A    between atoms: C_2  and  C_13
REMARK    2  A    between atoms: C_15  and  C_16
REMARK                            x       y       z     vdW  Elec       q    Type
REMARK                         _______ _______ _______ _____ _____    ______ ____
ROOT
ATOM      1  C   UNL     1       0.880  10.623  18.865  0.00  0.00    +0.000 A 
ATOM      2  C   UNL     1       1.616  11.671  19.413  0.00  0.00    +0.000 A 
ATOM      3  C   UNL     1       0.945  12.839  19.715  0.00  0.00    +0.000 A 
ATOM      4  N   UNL     1      -0.375  13.014  19.476  0.00  0.00    +0.000 NA
ATOM      5  C   UNL     1      -1.082  12.014  18.938  0.00  0.00    +0.000 A 
ATOM      6  C   UNL     1      -2.429  12.239  18.678  0.00  0.00    +0.000 A 
ATOM      7  C   UNL     1      -3.257  11.257  18.134  0.00  0.00    +0.000 A 
ATOM      8  C   UNL     1      -2.734  10.009  17.848  0.00  0.00    +0.000 A 
ATOM      9  C   UNL     1      -1.384   9.764  18.094  0.00  0.00    +0.000 A 
ATOM     10  C   UNL     1      -0.519  10.763  18.624  0.00  0.00    +0.000 A 
ENDROOT
BRANCH   1  12
ATOM     11  O   UNL     1       2.018   9.413  17.250  0.00  0.00    +0.000 OA
ATOM     12  C   UNL     1       1.607   9.411  18.408  0.00  0.00    +0.000 C 
ATOM     13  N   UNL     1       1.759   8.378  19.314  0.00  0.00    +0.000 N 
ATOM     14  C   UNL     1       2.422   7.207  19.016  0.00  0.00    +0.000 A 
ATOM     15  N   UNL     1       2.274   6.109  19.717  0.00  0.00    +0.000 NA
ATOM     16  C   UNL     1       2.933   5.065  19.073  0.00  0.00    +0.000 A 
ATOM     17  C   UNL     1       2.913   3.705  19.433  0.00  0.00    +0.000 A 
ATOM     18  C   UNL     1       3.591   2.766  18.644  0.00  0.00    +0.000 A 
ATOM     19  C   UNL     1       4.301   3.165  17.514  0.00  0.00    +0.000 A 
ATOM     20  C   UNL     1       4.354   4.506  17.147  0.00  0.00    +0.000 A 
ATOM     21  C   UNL     1       3.661   5.432  17.937  0.00  0.00    +0.000 A 
ATOM     22  S   UNL     1       3.534   7.119  17.725  0.00  0.00    +0.000 S 
ATOM     23  H   UNL     1       1.218   8.346  20.167  0.00  0.00    +0.000 HD
ENDBRANCH   1  12
BRANCH   3  24
ATOM     24  C   UNL     1       1.598  13.991  20.310  0.00  0.00    +0.000 A 
ATOM     25  C   UNL     1       1.830  15.280  19.870  0.00  0.00    +0.000 A 
ATOM     26  C   UNL     1       2.501  15.952  20.916  0.00  0.00    +0.000 A 
ATOM     27  C   UNL     1       2.650  15.033  21.927  0.00  0.00    +0.000 A 
ATOM     28  O   UNL     1       2.102  13.841  21.574  0.00  0.00    +0.000 OA
ENDBRANCH   3  24
TORSDOF 2
ENDMDL
MODEL 9
REMARK VINA RESULT:      -8.5      3.120      9.263
REMARK  Name = 
REMARK  2 active torsions:
REMARK  status: ('A' for Active; 'I' for Inactive)
REMARK    1  A    between atoms: C_2  and  C_13
REMARK    2  A    between atoms: C_15  and  C_16
REMARK                            x       y       z     vdW  Elec       q    Type
REMARK                         _______ _______ _______ _____ _____    ______ ____
ROOT
ATOM      1  C   UNL     1       0.372  11.038  18.721  0.00  0.00    +0.000 A 
ATOM      2  C   UNL     1      -0.974  11.035  19.078  0.00  0.00    +0.000 A 
ATOM      3  C   UNL     1      -1.571  12.250  19.349  0.00  0.00    +0.000 A 
ATOM      4  N   UNL     1      -0.902  13.424  19.311  0.00  0.00    +0.000 NA
ATOM      5  C   UNL     1       0.394  13.430  18.981  0.00  0.00    +0.000 A 
ATOM      6  C   UNL     1       1.058  14.652  18.981  0.00  0.00    +0.000 A 
ATOM      7  C   UNL     1       2.405  14.767  18.637  0.00  0.00    +0.000 A 
ATOM      8  C   UNL     1       3.113  13.637  18.271  0.00  0.00    +0.000 A 
ATOM      9  C   UNL     1       2.469  12.401  18.270  0.00  0.00    +0.000 A 
ATOM     10  C   UNL     1       1.103  12.261  18.645  0.00  0.00    +0.000 A 
ENDROOT
BRANCH   1  12
ATOM     11  O   UNL     1       1.447   9.442  17.430  0.00  0.00    +0.000 OA
ATOM     12  C   UNL     1       1.064   9.734  18.560  0.00  0.00    +0.000 C 
ATOM     13  N   UNL     1       1.216   8.949  19.689  0.00  0.00    +0.000 N 
ATOM     14  C   UNL     1       1.848   7.724  19.673  0.00  0.00    +0.000 A 
ATOM     15  N   UNL     1       1.694   6.834  20.624  0.00  0.00    +0.000 NA
ATOM     16  C   UNL     1       2.316   5.647  20.243  0.00  0.00    +0.000 A 
ATOM     17  C   UNL     1       2.277   4.418  20.924  0.00  0.00    +0.000 A 
ATOM     18  C   UNL     1       2.916   3.297  20.377  0.00  0.00    +0.000 A 
ATOM     19  C   UNL     1       3.607   3.391  19.171  0.00  0.00    +0.000 A 
ATOM     20  C   UNL     1       3.679   4.600  18.486  0.00  0.00    +0.000 A 
ATOM     21  C   UNL     1       3.024   5.709  19.039  0.00  0.00    +0.000 A 
ATOM     22  S   UNL     1       2.927   7.295  18.423  0.00  0.00    +0.000 S 
ATOM     23  H   UNL     1       0.695   9.139  20.533  0.00  0.00    +0.000 HD
ENDBRANCH   1  12
BRANCH   3  24
ATOM     24  C   UNL     1      -2.973  12.376  19.708  0.00  0.00    +0.000 A 
ATOM     25  C   UNL     1      -3.624  12.902  20.807  0.00  0.00    +0.000 A 
ATOM     26  C   UNL     1      -5.009  12.754  20.568  0.00  0.00    +0.000 A 
ATOM     27  C   UNL     1      -5.121  12.136  19.345  0.00  0.00    +0.000 A 
ATOM     28  O   UNL     1      -3.893  11.906  18.811  0.00  0.00    +0.000 OA
ENDBRANCH   3  24
TORSDOF 2
ENDMDL
