MODEL 1
REMARK VINA RESULT:      -9.7      0.000      0.000
REMARK  Name = 
REMARK  4 active torsions:
REMARK  status: ('A' for Active; 'I' for Inactive)
REMARK    1  A    between atoms: O_1  and  C_2
REMARK    2  A    between atoms: C_5  and  C_6
REMARK    3  A    between atoms: C_6  and  C_16
REMARK    4  A    between atoms: C_20  and  O_21
REMARK                            x       y       z     vdW  Elec       q    Type
REMARK                         _______ _______ _______ _____ _____    ______ ____
ROOT
ATOM      1  C   UNL     1       3.147   6.135  18.534  0.00  0.00    +0.000 C 
ATOM      2  C   UNL     1       4.290   5.874  17.850  0.00  0.00    +0.000 C 
ATOM      3  C   UNL     1       4.805   4.466  17.632  0.00  0.00    +0.000 C 
ATOM      4  C   UNL     1       6.154   4.283  18.326  0.00  0.00    +0.000 C 
ATOM      5  C   UNL     1       7.181   5.397  18.160  0.00  0.00    +0.000 C 
ATOM      6  C   UNL     1       6.642   6.789  17.828  0.00  0.00    +0.000 C 
ATOM      7  C   UNL     1       5.239   6.859  17.188  0.00  0.00    +0.000 C 
ATOM      8  C   UNL     1       5.333   6.625  15.666  0.00  0.00    +0.000 C 
ATOM      9  C   UNL     1       5.273   5.178  15.174  0.00  0.00    +0.000 C 
ATOM     10  C   UNL     1       4.728   4.135  16.140  0.00  0.00    +0.000 C 
ENDROOT
BRANCH   1  14
ATOM     11  C   UNL     1       0.765   9.608  19.090  0.00  0.00    +0.000 A 
ATOM     12  C   UNL     1       1.322   9.360  17.838  0.00  0.00    +0.000 A 
ATOM     13  C   UNL     1       2.226   8.295  17.678  0.00  0.00    +0.000 A 
ATOM     14  C   UNL     1       2.554   7.484  18.774  0.00  0.00    +0.000 A 
ATOM     15  C   UNL     1       2.011   7.777  20.027  0.00  0.00    +0.000 A 
ATOM     16  C   UNL     1       1.124   8.844  20.193  0.00  0.00    +0.000 A 
BRANCH  11  17
ATOM     17  O   UNL     1      -0.161  10.589  19.277  0.00  0.00    +0.000 OA
ATOM     18  H   UNL     1       0.187  11.416  18.909  0.00  0.00    +0.000 HD
ENDBRANCH  11  17
ENDBRANCH   1  14
BRANCH   1  19
ATOM     19  C   UNL     1       2.415   4.983  19.132  0.00  0.00    +0.000 A 
ATOM     20  C   UNL     1       1.549   4.214  18.334  0.00  0.00    +0.000 A 
ATOM     21  C   UNL     1       0.891   3.117  18.876  0.00  0.00    +0.000 A 
ATOM     22  C   UNL     1       1.116   2.753  20.203  0.00  0.00    +0.000 A 
ATOM     23  C   UNL     1       1.980   3.516  20.987  0.00  0.00    +0.000 A 
ATOM     24  C   UNL     1       2.620   4.635  20.471  0.00  0.00    +0.000 A 
BRANCH  23  25
ATOM     25  O   UNL     1       2.246   3.176  22.282  0.00  0.00    +0.000 OA
ATOM     26  H   UNL     1       2.983   3.726  22.595  0.00  0.00    +0.000 HD
ENDBRANCH  23  25
ENDBRANCH   1  19
TORSDOF 4
ENDMDL
MODEL 2
REMARK VINA RESULT:      -9.6      0.916      1.345
REMARK  Name = 
REMARK  4 active torsions:
REMARK  status: ('A' for Active; 'I' for Inactive)
REMARK    1  A    between atoms: O_1  and  C_2
REMARK    2  A    between atoms: C_5  and  C_6
REMARK    3  A    between atoms: C_6  and  C_16
REMARK    4  A    between atoms: C_20  and  O_21
REMARK                            x       y       z     vdW  Elec       q    Type
REMARK                         _______ _______ _______ _____ _____    ______ ____
ROOT
ATOM      1  C   UNL     1       3.197   6.141  18.618  0.00  0.00    +0.000 C 
ATOM      2  C   UNL     1       4.324   5.888  17.904  0.00  0.00    +0.000 C 
ATOM      3  C   UNL     1       4.878   4.488  17.728  0.00  0.00    +0.000 C 
ATOM      4  C   UNL     1       6.257   4.381  18.379  0.00  0.00    +0.000 C 
ATOM      5  C   UNL     1       7.238   5.520  18.126  0.00  0.00    +0.000 C 
ATOM      6  C   UNL     1       6.640   6.878  17.753  0.00  0.00    +0.000 C 
ATOM      7  C   UNL     1       5.213   6.872  17.164  0.00  0.00    +0.000 C 
ATOM      8  C   UNL     1       5.260   6.573  15.652  0.00  0.00    +0.000 C 
ATOM      9  C   UNL     1       5.233   5.104  15.226  0.00  0.00    +0.000 C 
ATOM     10  C   UNL     1       4.760   4.089  16.257  0.00  0.00    +0.000 C 
ENDROOT
BRANCH   1  14
ATOM     11  C   UNL     1       0.720   9.563  19.067  0.00  0.00    +0.000 A 
ATOM     12  C   UNL     1       1.300   9.302  17.828  0.00  0.00    +0.000 A 
ATOM     13  C   UNL     1       2.232   8.257  17.703  0.00  0.00    +0.000 A 
ATOM     14  C   UNL     1       2.566   7.480  18.821  0.00  0.00    +0.000 A 
ATOM     15  C   UNL     1       2.000   7.786  20.060  0.00  0.00    +0.000 A 
ATOM     16  C   UNL     1       1.084   8.832  20.191  0.00  0.00    +0.000 A 
BRANCH  11  17
ATOM     17  O   UNL     1      -0.232  10.523  19.220  0.00  0.00    +0.000 OA
ATOM     18  H   UNL     1      -0.175  11.138  18.473  0.00  0.00    +0.000 HD
ENDBRANCH  11  17
ENDBRANCH   1  14
BRANCH   1  19
ATOM     19  C   UNL     1       2.527   4.994  19.293  0.00  0.00    +0.000 A 
ATOM     20  C   UNL     1       2.698   4.798  20.675  0.00  0.00    +0.000 A 
ATOM     21  C   UNL     1       2.047   3.752  21.317  0.00  0.00    +0.000 A 
ATOM     22  C   UNL     1       1.194   2.914  20.599  0.00  0.00    +0.000 A 
ATOM     23  C   UNL     1       1.024   3.118  19.230  0.00  0.00    +0.000 A 
ATOM     24  C   UNL     1       1.692   4.138  18.567  0.00  0.00    +0.000 A 
BRANCH  23  25
ATOM     25  O   UNL     1       0.177   2.336  18.499  0.00  0.00    +0.000 OA
ATOM     26  H   UNL     1      -0.684   2.319  18.950  0.00  0.00    +0.000 HD
ENDBRANCH  23  25
ENDBRANCH   1  19
TORSDOF 4
ENDMDL
MODEL 3
REMARK VINA RESULT:      -9.3      0.518      1.114
REMARK  Name = 
REMARK  4 active torsions:
REMARK  status: ('A' for Active; 'I' for Inactive)
REMARK    1  A    between atoms: O_1  and  C_2
REMARK    2  A    between atoms: C_5  and  C_6
REMARK    3  A    between atoms: C_6  and  C_16
REMARK    4  A    between atoms: C_20  and  O_21
REMARK                            x       y       z     vdW  Elec       q    Type
REMARK                         _______ _______ _______ _____ _____    ______ ____
ROOT
ATOM      1  C   UNL     1       3.042   5.878  18.382  0.00  0.00    +0.000 C 
ATOM      2  C   UNL     1       4.234   5.779  17.740  0.00  0.00    +0.000 C 
ATOM      3  C   UNL     1       4.953   4.458  17.556  0.00  0.00    +0.000 C 
ATOM      4  C   UNL     1       6.289   4.477  18.297  0.00  0.00    +0.000 C 
ATOM      5  C   UNL     1       7.150   5.726  18.150  0.00  0.00    +0.000 C 
ATOM      6  C   UNL     1       6.429   7.024  17.783  0.00  0.00    +0.000 C 
ATOM      7  C   UNL     1       5.053   6.885  17.097  0.00  0.00    +0.000 C 
ATOM      8  C   UNL     1       5.232   6.656  15.582  0.00  0.00    +0.000 C 
ATOM      9  C   UNL     1       5.398   5.211  15.107  0.00  0.00    +0.000 C 
ATOM     10  C   UNL     1       4.976   4.108  16.067  0.00  0.00    +0.000 C 
ENDROOT
BRANCH   1  14
ATOM     11  C   UNL     1       1.500   9.764  19.130  0.00  0.00    +0.000 A 
ATOM     12  C   UNL     1       1.496   8.823  20.157  0.00  0.00    +0.000 A 
ATOM     13  C   UNL     1       1.870   7.495  19.884  0.00  0.00    +0.000 A 
ATOM     14  C   UNL     1       2.252   7.129  18.586  0.00  0.00    +0.000 A 
ATOM     15  C   UNL     1       2.212   8.082  17.566  0.00  0.00    +0.000 A 
ATOM     16  C   UNL     1       1.827   9.399  17.831  0.00  0.00    +0.000 A 
BRANCH  11  17
ATOM     17  O   UNL     1       1.205  11.073  19.362  0.00  0.00    +0.000 OA
ATOM     18  H   UNL     1       1.525  11.310  20.247  0.00  0.00    +0.000 HD
ENDBRANCH  11  17
ENDBRANCH   1  14
BRANCH   1  19
ATOM     19  C   UNL     1       2.463   4.637  18.970  0.00  0.00    +0.000 A 
ATOM     20  C   UNL     1       1.557   3.864  18.222  0.00  0.00    +0.000 A 
ATOM     21  C   UNL     1       1.041   2.687  18.749  0.00  0.00    +0.000 A 
ATOM     22  C   UNL     1       1.449   2.249  20.010  0.00  0.00    +0.000 A 
ATOM     23  C   UNL     1       2.352   3.017  20.744  0.00  0.00    +0.000 A 
ATOM     24  C   UNL     1       2.852   4.212  20.245  0.00  0.00    +0.000 A 
BRANCH  23  25
ATOM     25  O   UNL     1       2.795   2.607  21.969  0.00  0.00    +0.000 OA
ATOM     26  H   UNL     1       3.127   1.698  21.882  0.00  0.00    +0.000 HD
ENDBRANCH  23  25
ENDBRANCH   1  19
TORSDOF 4
ENDMDL
MODEL 4
REMARK VINA RESULT:      -9.2      2.074      4.814
REMARK  Name = 
REMARK  4 active torsions:
REMARK  status: ('A' for Active; 'I' for Inactive)
REMARK    1  A    between atoms: O_1  and  C_2
REMARK    2  A    between atoms: C_5  and  C_6
REMARK    3  A    between atoms: C_6  and  C_16
REMARK    4  A    between atoms: C_20  and  O_21
REMARK                            x       y       z     vdW  Elec       q    Type
REMARK                         _______ _______ _______ _____ _____    ______ ____
ROOT
ATOM      1  C   UNL     1       3.536   5.358  18.801  0.00  0.00    +0.000 C 
ATOM      2  C   UNL     1       2.894   4.260  19.276  0.00  0.00    +0.000 C 
ATOM      3  C   UNL     1       3.475   2.865  19.163  0.00  0.00    +0.000 C 
ATOM      4  C   UNL     1       2.582   1.991  18.283  0.00  0.00    +0.000 C 
ATOM      5  C   UNL     1       1.079   2.065  18.524  0.00  0.00    +0.000 C 
ATOM      6  C   UNL     1       0.545   3.343  19.174  0.00  0.00    +0.000 C 
ATOM      7  C   UNL     1       1.553   4.185  19.985  0.00  0.00    +0.000 C 
ATOM      8  C   UNL     1       1.694   3.619  21.413  0.00  0.00    +0.000 C 
ATOM      9  C   UNL     1       2.734   2.518  21.632  0.00  0.00    +0.000 C 
ATOM     10  C   UNL     1       3.806   2.350  20.564  0.00  0.00    +0.000 C 
ENDROOT
BRANCH   1  14
ATOM     11  C   UNL     1       1.470   9.070  18.804  0.00  0.00    +0.000 A 
ATOM     12  C   UNL     1       2.232   8.717  17.693  0.00  0.00    +0.000 A 
ATOM     13  C   UNL     1       3.032   7.562  17.736  0.00  0.00    +0.000 A 
ATOM     14  C   UNL     1       3.052   6.768  18.892  0.00  0.00    +0.000 A 
ATOM     15  C   UNL     1       2.309   7.164  20.006  0.00  0.00    +0.000 A 
ATOM     16  C   UNL     1       1.524   8.319  19.971  0.00  0.00    +0.000 A 
BRANCH  11  17
ATOM     17  O   UNL     1       0.635  10.144  18.784  0.00  0.00    +0.000 OA
ATOM     18  H   UNL     1       0.402  10.373  19.697  0.00  0.00    +0.000 HD
ENDBRANCH  11  17
ENDBRANCH   1  14
BRANCH   1  19
ATOM     19  C   UNL     1       4.833   5.156  18.096  0.00  0.00    +0.000 A 
ATOM     20  C   UNL     1       6.042   5.409  18.768  0.00  0.00    +0.000 A 
ATOM     21  C   UNL     1       7.256   5.189  18.129  0.00  0.00    +0.000 A 
ATOM     22  C   UNL     1       7.279   4.680  16.830  0.00  0.00    +0.000 A 
ATOM     23  C   UNL     1       6.077   4.425  16.171  0.00  0.00    +0.000 A 
ATOM     24  C   UNL     1       4.855   4.671  16.784  0.00  0.00    +0.000 A 
BRANCH  23  25
ATOM     25  O   UNL     1       6.059   3.901  14.911  0.00  0.00    +0.000 OA
ATOM     26  H   UNL     1       5.347   3.242  14.867  0.00  0.00    +0.000 HD
ENDBRANCH  23  25
ENDBRANCH   1  19
TORSDOF 4
ENDMDL
MODEL 5
REMARK VINA RESULT:      -9.2      1.024      1.729
REMARK  Name = 
REMARK  4 active torsions:
REMARK  status: ('A' for Active; 'I' for Inactive)
REMARK    1  A    between atoms: O_1  and  C_2
REMARK    2  A    between atoms: C_5  and  C_6
REMARK    3  A    between atoms: C_6  and  C_16
REMARK    4  A    between atoms: C_20  and  O_21
REMARK                            x       y       z     vdW  Elec       q    Type
REMARK                         _______ _______ _______ _____ _____    ______ ____
ROOT
ATOM      1  C   UNL     1       3.072   5.932  18.478  0.00  0.00    +0.000 C 
ATOM      2  C   UNL     1       4.252   5.815  17.815  0.00  0.00    +0.000 C 
ATOM      3  C   UNL     1       4.991   4.498  17.695  0.00  0.00    +0.000 C 
ATOM      4  C   UNL     1       6.343   4.584  18.402  0.00  0.00    +0.000 C 
ATOM      5  C   UNL     1       7.177   5.837  18.161  0.00  0.00    +0.000 C 
ATOM      6  C   UNL     1       6.424   7.098  17.733  0.00  0.00    +0.000 C 
ATOM      7  C   UNL     1       5.036   6.895  17.088  0.00  0.00    +0.000 C 
ATOM      8  C   UNL     1       5.186   6.576  15.586  0.00  0.00    +0.000 C 
ATOM      9  C   UNL     1       5.368   5.109  15.195  0.00  0.00    +0.000 C 
ATOM     10  C   UNL     1       4.988   4.059  16.230  0.00  0.00    +0.000 C 
ENDROOT
BRANCH   1  14
ATOM     11  C   UNL     1       1.470   9.820  19.076  0.00  0.00    +0.000 A 
ATOM     12  C   UNL     1       1.443   8.905  20.126  0.00  0.00    +0.000 A 
ATOM     13  C   UNL     1       1.838   7.575  19.899  0.00  0.00    +0.000 A 
ATOM     14  C   UNL     1       2.265   7.180  18.624  0.00  0.00    +0.000 A 
ATOM     15  C   UNL     1       2.247   8.106  17.579  0.00  0.00    +0.000 A 
ATOM     16  C   UNL     1       1.841   9.425  17.797  0.00  0.00    +0.000 A 
BRANCH  11  17
ATOM     17  O   UNL     1       1.155  11.131  19.264  0.00  0.00    +0.000 OA
ATOM     18  H   UNL     1       1.050  11.291  20.215  0.00  0.00    +0.000 HD
ENDBRANCH  11  17
ENDBRANCH   1  14
BRANCH   1  19
ATOM     19  C   UNL     1       2.530   4.719  19.153  0.00  0.00    +0.000 A 
ATOM     20  C   UNL     1       2.817   4.485  20.510  0.00  0.00    +0.000 A 
ATOM     21  C   UNL     1       2.285   3.376  21.155  0.00  0.00    +0.000 A 
ATOM     22  C   UNL     1       1.434   2.510  20.467  0.00  0.00    +0.000 A 
ATOM     23  C   UNL     1       1.148   2.751  19.124  0.00  0.00    +0.000 A 
ATOM     24  C   UNL     1       1.698   3.837  18.456  0.00  0.00    +0.000 A 
BRANCH  23  25
ATOM     25  O   UNL     1       0.298   1.942  18.427  0.00  0.00    +0.000 OA
ATOM     26  H   UNL     1       0.253   1.086  18.882  0.00  0.00    +0.000 HD
ENDBRANCH  23  25
ENDBRANCH   1  19
TORSDOF 4
ENDMDL
MODEL 6
REMARK VINA RESULT:      -9.2      1.850      4.609
REMARK  Name = 
REMARK  4 active torsions:
REMARK  status: ('A' for Active; 'I' for Inactive)
REMARK    1  A    between atoms: O_1  and  C_2
REMARK    2  A    between atoms: C_5  and  C_6
REMARK    3  A    between atoms: C_6  and  C_16
REMARK    4  A    between atoms: C_20  and  O_21
REMARK                            x       y       z     vdW  Elec       q    Type
REMARK                         _______ _______ _______ _____ _____    ______ ____
ROOT
ATOM      1  C   UNL     1       3.495   5.513  18.996  0.00  0.00    +0.000 C 
ATOM      2  C   UNL     1       2.865   4.366  19.358  0.00  0.00    +0.000 C 
ATOM      3  C   UNL     1       3.536   3.010  19.281  0.00  0.00    +0.000 C 
ATOM      4  C   UNL     1       2.810   2.118  18.274  0.00  0.00    +0.000 C 
ATOM      5  C   UNL     1       1.287   2.102  18.328  0.00  0.00    +0.000 C 
ATOM      6  C   UNL     1       0.603   3.326  18.940  0.00  0.00    +0.000 C 
ATOM      7  C   UNL     1       1.453   4.194  19.893  0.00  0.00    +0.000 C 
ATOM      8  C   UNL     1       1.451   3.588  21.312  0.00  0.00    +0.000 C 
ATOM      9  C   UNL     1       2.519   2.539  21.628  0.00  0.00    +0.000 C 
ATOM     10  C   UNL     1       3.722   2.467  20.699  0.00  0.00    +0.000 C 
ENDROOT
BRANCH   1  14
ATOM     11  C   UNL     1       1.184   9.077  18.988  0.00  0.00    +0.000 A 
ATOM     12  C   UNL     1       1.901   8.730  17.846  0.00  0.00    +0.000 A 
ATOM     13  C   UNL     1       2.780   7.633  17.883  0.00  0.00    +0.000 A 
ATOM     14  C   UNL     1       2.922   6.891  19.064  0.00  0.00    +0.000 A 
ATOM     15  C   UNL     1       2.220   7.282  20.206  0.00  0.00    +0.000 A 
ATOM     16  C   UNL     1       1.358   8.380  20.177  0.00  0.00    +0.000 A 
BRANCH  11  17
ATOM     17  O   UNL     1       0.277  10.093  18.979  0.00  0.00    +0.000 OA
ATOM     18  H   UNL     1       0.561  10.756  18.331  0.00  0.00    +0.000 HD
ENDBRANCH  11  17
ENDBRANCH   1  14
BRANCH   1  19
ATOM     19  C   UNL     1       4.878   5.406  18.453  0.00  0.00    +0.000 A 
ATOM     20  C   UNL     1       5.079   5.306  17.064  0.00  0.00    +0.000 A 
ATOM     21  C   UNL     1       6.367   5.243  16.548  0.00  0.00    +0.000 A 
ATOM     22  C   UNL     1       7.466   5.314  17.404  0.00  0.00    +0.000 A 
ATOM     23  C   UNL     1       7.261   5.420  18.779  0.00  0.00    +0.000 A 
ATOM     24  C   UNL     1       5.979   5.451  19.313  0.00  0.00    +0.000 A 
BRANCH  23  25
ATOM     25  O   UNL     1       8.311   5.520  19.645  0.00  0.00    +0.000 OA
ATOM     26  H   UNL     1       7.992   5.299  20.535  0.00  0.00    +0.000 HD
ENDBRANCH  23  25
ENDBRANCH   1  19
TORSDOF 4
ENDMDL
MODEL 7
REMARK VINA RESULT:      -9.1      2.229      5.735
REMARK  Name = 
REMARK  4 active torsions:
REMARK  status: ('A' for Active; 'I' for Inactive)
REMARK    1  A    between atoms: O_1  and  C_2
REMARK    2  A    between atoms: C_5  and  C_6
REMARK    3  A    between atoms: C_6  and  C_16
REMARK    4  A    between atoms: C_20  and  O_21
REMARK                            x       y       z     vdW  Elec       q    Type
REMARK                         _______ _______ _______ _____ _____    ______ ____
ROOT
ATOM      1  C   UNL     1       3.333   5.482  18.700  0.00  0.00    +0.000 C 
ATOM      2  C   UNL     1       2.844   4.318  19.201  0.00  0.00    +0.000 C 
ATOM      3  C   UNL     1       1.565   4.256  20.012  0.00  0.00    +0.000 C 
ATOM      4  C   UNL     1       1.865   3.783  21.435  0.00  0.00    +0.000 C 
ATOM      5  C   UNL     1       2.808   2.597  21.591  0.00  0.00    +0.000 C 
ATOM      6  C   UNL     1       3.789   2.337  20.447  0.00  0.00    +0.000 C 
ATOM      7  C   UNL     1       3.417   2.918  19.066  0.00  0.00    +0.000 C 
ATOM      8  C   UNL     1       2.443   1.972  18.333  0.00  0.00    +0.000 C 
ATOM      9  C   UNL     1       0.948   2.161  18.599  0.00  0.00    +0.000 C 
ATOM     10  C   UNL     1       0.512   3.481  19.219  0.00  0.00    +0.000 C 
ENDROOT
BRANCH   1  14
ATOM     11  C   UNL     1       6.862   5.118  16.363  0.00  0.00    +0.000 A 
ATOM     12  C   UNL     1       6.974   5.329  17.735  0.00  0.00    +0.000 A 
ATOM     13  C   UNL     1       5.821   5.593  18.495  0.00  0.00    +0.000 A 
ATOM     14  C   UNL     1       4.566   5.633  17.871  0.00  0.00    +0.000 A 
ATOM     15  C   UNL     1       4.484   5.456  16.489  0.00  0.00    +0.000 A 
ATOM     16  C   UNL     1       5.630   5.208  15.728  0.00  0.00    +0.000 A 
BRANCH  11  17
ATOM     17  O   UNL     1       7.943   4.799  15.600  0.00  0.00    +0.000 OA
ATOM     18  H   UNL     1       8.678   4.563  16.187  0.00  0.00    +0.000 HD
ENDBRANCH  11  17
ENDBRANCH   1  14
BRANCH   1  19
ATOM     19  C   UNL     1       2.600   6.740  19.018  0.00  0.00    +0.000 A 
ATOM     20  C   UNL     1       2.149   6.975  20.329  0.00  0.00    +0.000 A 
ATOM     21  C   UNL     1       1.498   8.162  20.641  0.00  0.00    +0.000 A 
ATOM     22  C   UNL     1       1.320   9.139  19.661  0.00  0.00    +0.000 A 
ATOM     23  C   UNL     1       1.775   8.902  18.365  0.00  0.00    +0.000 A 
ATOM     24  C   UNL     1       2.400   7.708  18.029  0.00  0.00    +0.000 A 
BRANCH  23  25
ATOM     25  O   UNL     1       1.645   9.845  17.387  0.00  0.00    +0.000 OA
ATOM     26  H   UNL     1       0.783  10.279  17.497  0.00  0.00    +0.000 HD
ENDBRANCH  23  25
ENDBRANCH   1  19
TORSDOF 4
ENDMDL
MODEL 8
REMARK VINA RESULT:      -9.0      1.855      4.675
REMARK  Name = 
REMARK  4 active torsions:
REMARK  status: ('A' for Active; 'I' for Inactive)
REMARK    1  A    between atoms: O_1  and  C_2
REMARK    2  A    between atoms: C_5  and  C_6
REMARK    3  A    between atoms: C_6  and  C_16
REMARK    4  A    between atoms: C_20  and  O_21
REMARK                            x       y       z     vdW  Elec       q    Type
REMARK                         _______ _______ _______ _____ _____    ______ ____
ROOT
ATOM      1  C   UNL     1       3.234   5.489  18.910  0.00  0.00    +0.000 C 
ATOM      2  C   UNL     1       2.803   4.249  19.257  0.00  0.00    +0.000 C 
ATOM      3  C   UNL     1       3.717   3.040  19.258  0.00  0.00    +0.000 C 
ATOM      4  C   UNL     1       3.241   2.017  18.227  0.00  0.00    +0.000 C 
ATOM      5  C   UNL     1       1.747   1.719  18.179  0.00  0.00    +0.000 C 
ATOM      6  C   UNL     1       0.808   2.801  18.715  0.00  0.00    +0.000 C 
ATOM      7  C   UNL     1       1.414   3.823  19.701  0.00  0.00    +0.000 C 
ATOM      8  C   UNL     1       1.424   3.245  21.131  0.00  0.00    +0.000 C 
ATOM      9  C   UNL     1       2.642   2.416  21.543  0.00  0.00    +0.000 C 
ATOM     10  C   UNL     1       3.900   2.558  20.698  0.00  0.00    +0.000 C 
ENDROOT
BRANCH   1  14
ATOM     11  C   UNL     1       1.590   9.403  19.045  0.00  0.00    +0.000 A 
ATOM     12  C   UNL     1       1.562   8.615  20.193  0.00  0.00    +0.000 A 
ATOM     13  C   UNL     1       1.972   7.271  20.124  0.00  0.00    +0.000 A 
ATOM     14  C   UNL     1       2.413   6.736  18.906  0.00  0.00    +0.000 A 
ATOM     15  C   UNL     1       2.396   7.536  17.761  0.00  0.00    +0.000 A 
ATOM     16  C   UNL     1       1.975   8.867  17.823  0.00  0.00    +0.000 A 
BRANCH  11  17
ATOM     17  O   UNL     1       1.261  10.724  19.080  0.00  0.00    +0.000 OA
ATOM     18  H   UNL     1       1.367  11.046  19.988  0.00  0.00    +0.000 HD
ENDBRANCH  11  17
ENDBRANCH   1  14
BRANCH   1  19
ATOM     19  C   UNL     1       4.648   5.635  18.463  0.00  0.00    +0.000 A 
ATOM     20  C   UNL     1       4.929   5.958  17.123  0.00  0.00    +0.000 A 
ATOM     21  C   UNL     1       6.243   6.131  16.708  0.00  0.00    +0.000 A 
ATOM     22  C   UNL     1       7.286   6.020  17.627  0.00  0.00    +0.000 A 
ATOM     23  C   UNL     1       7.001   5.706  18.955  0.00  0.00    +0.000 A 
ATOM     24  C   UNL     1       5.695   5.497  19.380  0.00  0.00    +0.000 A 
BRANCH  23  25
ATOM     25  O   UNL     1       7.993   5.616  19.889  0.00  0.00    +0.000 OA
ATOM     26  H   UNL     1       7.970   6.421  20.433  0.00  0.00    +0.000 HD
ENDBRANCH  23  25
ENDBRANCH   1  19
TORSDOF 4
ENDMDL
MODEL 9
REMARK VINA RESULT:      -9.0      2.150      4.886
REMARK  Name = 
REMARK  4 active torsions:
REMARK  status: ('A' for Active; 'I' for Inactive)
REMARK    1  A    between atoms: O_1  and  C_2
REMARK    2  A    between atoms: C_5  and  C_6
REMARK    3  A    between atoms: C_6  and  C_16
REMARK    4  A    between atoms: C_20  and  O_21
REMARK                            x       y       z     vdW  Elec       q    Type
REMARK                         _______ _______ _______ _____ _____    ______ ____
ROOT
ATOM      1  C   UNL     1       3.143   5.523  18.830  0.00  0.00    +0.000 C 
ATOM      2  C   UNL     1       2.739   4.286  19.218  0.00  0.00    +0.000 C 
ATOM      3  C   UNL     1       3.646   3.074  19.149  0.00  0.00    +0.000 C 
ATOM      4  C   UNL     1       3.084   2.049  18.166  0.00  0.00    +0.000 C 
ATOM      5  C   UNL     1       1.590   1.755  18.242  0.00  0.00    +0.000 C 
ATOM      6  C   UNL     1       0.701   2.843  18.848  0.00  0.00    +0.000 C 
ATOM      7  C   UNL     1       1.389   3.867  19.776  0.00  0.00    +0.000 C 
ATOM      8  C   UNL     1       1.516   3.295  21.203  0.00  0.00    +0.000 C 
ATOM      9  C   UNL     1       2.761   2.464  21.518  0.00  0.00    +0.000 C 
ATOM     10  C   UNL     1       3.946   2.598  20.571  0.00  0.00    +0.000 C 
ENDROOT
BRANCH   1  14
ATOM     11  C   UNL     1       1.521   9.436  19.143  0.00  0.00    +0.000 A 
ATOM     12  C   UNL     1       1.510   8.605  20.260  0.00  0.00    +0.000 A 
ATOM     13  C   UNL     1       1.911   7.264  20.133  0.00  0.00    +0.000 A 
ATOM     14  C   UNL     1       2.329   6.774  18.888  0.00  0.00    +0.000 A 
ATOM     15  C   UNL     1       2.295   7.617  17.775  0.00  0.00    +0.000 A 
ATOM     16  C   UNL     1       1.883   8.946  17.895  0.00  0.00    +0.000 A 
BRANCH  11  17
ATOM     17  O   UNL     1       1.199  10.756  19.233  0.00  0.00    +0.000 OA
ATOM     18  H   UNL     1       0.662  10.997  18.462  0.00  0.00    +0.000 HD
ENDBRANCH  11  17
ENDBRANCH   1  14
BRANCH   1  19
ATOM     19  C   UNL     1       4.516   5.662  18.268  0.00  0.00    +0.000 A 
ATOM     20  C   UNL     1       5.627   5.688  19.130  0.00  0.00    +0.000 A 
ATOM     21  C   UNL     1       6.912   5.781  18.611  0.00  0.00    +0.000 A 
ATOM     22  C   UNL     1       7.106   5.813  17.230  0.00  0.00    +0.000 A 
ATOM     23  C   UNL     1       6.002   5.781  16.380  0.00  0.00    +0.000 A 
ATOM     24  C   UNL     1       4.709   5.721  16.884  0.00  0.00    +0.000 A 
BRANCH  23  25
ATOM     25  O   UNL     1       6.153   5.783  15.023  0.00  0.00    +0.000 OA
ATOM     26  H   UNL     1       6.995   5.347  14.812  0.00  0.00    +0.000 HD
ENDBRANCH  23  25
ENDBRANCH   1  19
TORSDOF 4
ENDMDL
