MODEL 1
REMARK VINA RESULT:      -8.1      0.000      0.000
REMARK  Name = 
REMARK  4 active torsions:
REMARK  status: ('A' for Active; 'I' for Inactive)
REMARK    1  A    between atoms: C_1  and  O_2
REMARK    2  A    between atoms: O_2  and  C_3
REMARK    3  A    between atoms: C_5  and  C_6
REMARK    4  A    between atoms: C_12  and  C_13
REMARK                            x       y       z     vdW  Elec       q    Type
REMARK                         _______ _______ _______ _____ _____    ______ ____
ROOT
ATOM      1  C   UNL     1       1.693   8.561  20.535  0.00  0.00    +0.000 C 
ATOM      2  C   UNL     1       1.138   8.379  21.962  0.00  0.00    +0.000 C 
ATOM      3  C   UNL     1       0.347   9.564  22.473  0.00  0.00    +0.000 C 
ATOM      4  O   UNL     1       0.301   9.849  23.670  0.00  0.00    +0.000 OA
ATOM      5  N   UNL     1      -0.435  10.238  21.573  0.00  0.00    +0.000 N 
ATOM      6  C   UNL     1      -0.313  10.080  20.204  0.00  0.00    +0.000 A 
ATOM      7  C   UNL     1      -1.090  10.685  19.148  0.00  0.00    +0.000 A 
ATOM      8  N   UNL     1      -0.621  10.437  17.917  0.00  0.00    +0.000 NA
ATOM      9  S   UNL     1       0.722   9.469  18.012  0.00  0.00    +0.000 S 
ATOM     10  C   UNL     1       0.701   9.305  19.701  0.00  0.00    +0.000 A 
ATOM     11  H   UNL     1      -1.041  10.956  21.947  0.00  0.00    +0.000 HD
ENDROOT
BRANCH   1  14
ATOM     12  C   UNL     1       1.928   4.753  19.997  0.00  0.00    +0.000 A 
ATOM     13  C   UNL     1       1.594   6.009  20.519  0.00  0.00    +0.000 A 
ATOM     14  C   UNL     1       2.082   7.213  19.951  0.00  0.00    +0.000 A 
ATOM     15  C   UNL     1       2.914   7.148  18.827  0.00  0.00    +0.000 A 
ATOM     16  C   UNL     1       3.217   5.900  18.321  0.00  0.00    +0.000 A 
ATOM     17  C   UNL     1       2.746   4.734  18.884  0.00  0.00    +0.000 A 
ATOM     18  O   UNL     1       3.190   3.641  18.197  0.00  0.00    +0.000 OA
ATOM     19  C   UNL     1       3.929   4.250  17.128  0.00  0.00    +0.000 C 
ATOM     20  O   UNL     1       3.999   5.681  17.228  0.00  0.00    +0.000 OA
BRANCH  12  22
ATOM     21  C   UNL     1       2.222   3.029  21.600  0.00  0.00    +0.000 C 
ATOM     22  O   UNL     1       1.382   3.700  20.669  0.00  0.00    +0.000 OA
ENDBRANCH  12  22
ENDBRANCH   1  14
BRANCH   7  23
ATOM     23  C   UNL     1      -2.266  11.550  19.330  0.00  0.00    +0.000 A 
ATOM     24  C   UNL     1      -2.291  12.516  20.348  0.00  0.00    +0.000 A 
ATOM     25  C   UNL     1      -3.457  13.244  20.602  0.00  0.00    +0.000 A 
ATOM     26  C   UNL     1      -4.596  13.006  19.843  0.00  0.00    +0.000 A 
ATOM     27  F   UNL     1      -5.725  13.670  20.117  0.00  0.00    +0.000 F 
ATOM     28  C   UNL     1      -4.579  12.091  18.800  0.00  0.00    +0.000 A 
ATOM     29  C   UNL     1      -3.407  11.388  18.526  0.00  0.00    +0.000 A 
ENDBRANCH   7  23
TORSDOF 3
ENDMDL
MODEL 2
REMARK VINA RESULT:      -7.8      0.646      2.081
REMARK  Name = 
REMARK  4 active torsions:
REMARK  status: ('A' for Active; 'I' for Inactive)
REMARK    1  A    between atoms: C_1  and  O_2
REMARK    2  A    between atoms: O_2  and  C_3
REMARK    3  A    between atoms: C_5  and  C_6
REMARK    4  A    between atoms: C_12  and  C_13
REMARK                            x       y       z     vdW  Elec       q    Type
REMARK                         _______ _______ _______ _____ _____    ______ ____
ROOT
ATOM      1  C   UNL     1       1.717   8.585  20.460  0.00  0.00    +0.000 C 
ATOM      2  C   UNL     1       1.176   8.362  21.886  0.00  0.00    +0.000 C 
ATOM      3  C   UNL     1       0.377   9.526  22.434  0.00  0.00    +0.000 C 
ATOM      4  O   UNL     1       0.340   9.779  23.638  0.00  0.00    +0.000 OA
ATOM      5  N   UNL     1      -0.420  10.214  21.558  0.00  0.00    +0.000 N 
ATOM      6  C   UNL     1      -0.308  10.091  20.184  0.00  0.00    +0.000 A 
ATOM      7  C   UNL     1      -1.101  10.714  19.151  0.00  0.00    +0.000 A 
ATOM      8  N   UNL     1      -0.639  10.502  17.910  0.00  0.00    +0.000 NA
ATOM      9  S   UNL     1       0.715   9.546  17.968  0.00  0.00    +0.000 S 
ATOM     10  C   UNL     1       0.710   9.340  19.653  0.00  0.00    +0.000 A 
ATOM     11  H   UNL     1      -1.030  10.915  21.955  0.00  0.00    +0.000 HD
ENDROOT
BRANCH   1  14
ATOM     12  C   UNL     1       3.334   6.004  18.101  0.00  0.00    +0.000 A 
ATOM     13  C   UNL     1       2.945   7.214  18.690  0.00  0.00    +0.000 A 
ATOM     14  C   UNL     1       2.114   7.257  19.838  0.00  0.00    +0.000 A 
ATOM     15  C   UNL     1       1.677   6.056  20.408  0.00  0.00    +0.000 A 
ATOM     16  C   UNL     1       2.085   4.876  19.820  0.00  0.00    +0.000 A 
ATOM     17  C   UNL     1       2.886   4.842  18.698  0.00  0.00    +0.000 A 
ATOM     18  O   UNL     1       3.145   3.557  18.317  0.00  0.00    +0.000 OA
ATOM     19  C   UNL     1       2.475   2.809  19.342  0.00  0.00    +0.000 C 
ATOM     20  O   UNL     1       1.753   3.634  20.269  0.00  0.00    +0.000 OA
BRANCH  12  22
ATOM     21  C   UNL     1       5.419   6.692  17.201  0.00  0.00    +0.000 C 
ATOM     22  O   UNL     1       4.124   6.143  16.998  0.00  0.00    +0.000 OA
ENDBRANCH  12  22
ENDBRANCH   1  14
BRANCH   7  23
ATOM     23  C   UNL     1      -2.283  11.561  19.365  0.00  0.00    +0.000 A 
ATOM     24  C   UNL     1      -2.318  12.485  20.421  0.00  0.00    +0.000 A 
ATOM     25  C   UNL     1      -3.491  13.193  20.701  0.00  0.00    +0.000 A 
ATOM     26  C   UNL     1      -4.626  12.977  19.930  0.00  0.00    +0.000 A 
ATOM     27  F   UNL     1      -5.761  13.621  20.227  0.00  0.00    +0.000 F 
ATOM     28  C   UNL     1      -4.600  12.105  18.851  0.00  0.00    +0.000 A 
ATOM     29  C   UNL     1      -3.422  11.424  18.551  0.00  0.00    +0.000 A 
ENDBRANCH   7  23
TORSDOF 3
ENDMDL
MODEL 3
REMARK VINA RESULT:      -7.7      4.289      9.030
REMARK  Name = 
REMARK  4 active torsions:
REMARK  status: ('A' for Active; 'I' for Inactive)
REMARK    1  A    between atoms: C_1  and  O_2
REMARK    2  A    between atoms: O_2  and  C_3
REMARK    3  A    between atoms: C_5  and  C_6
REMARK    4  A    between atoms: C_12  and  C_13
REMARK                            x       y       z     vdW  Elec       q    Type
REMARK                         _______ _______ _______ _____ _____    ______ ____
ROOT
ATOM      1  C   UNL     1      -2.554  12.341  18.970  0.00  0.00    +0.000 C 
ATOM      2  C   UNL     1      -3.224  11.452  17.903  0.00  0.00    +0.000 C 
ATOM      3  C   UNL     1      -2.248  10.687  17.034  0.00  0.00    +0.000 C 
ATOM      4  O   UNL     1      -2.509  10.392  15.868  0.00  0.00    +0.000 OA
ATOM      5  N   UNL     1      -1.111  10.209  17.630  0.00  0.00    +0.000 N 
ATOM      6  C   UNL     1      -0.680  10.632  18.875  0.00  0.00    +0.000 A 
ATOM      7  C   UNL     1       0.464  10.189  19.638  0.00  0.00    +0.000 A 
ATOM      8  N   UNL     1       0.687  10.906  20.748  0.00  0.00    +0.000 NA
ATOM      9  S   UNL     1      -0.469  12.085  20.899  0.00  0.00    +0.000 S 
ATOM     10  C   UNL     1      -1.342  11.652  19.510  0.00  0.00    +0.000 A 
ATOM     11  H   UNL     1      -0.523   9.609  17.068  0.00  0.00    +0.000 HD
ENDROOT
BRANCH   1  14
ATOM     12  C   UNL     1      -5.707  12.301  21.184  0.00  0.00    +0.000 A 
ATOM     13  C   UNL     1      -4.764  11.982  20.198  0.00  0.00    +0.000 A 
ATOM     14  C   UNL     1      -3.562  12.718  20.043  0.00  0.00    +0.000 A 
ATOM     15  C   UNL     1      -3.302  13.788  20.907  0.00  0.00    +0.000 A 
ATOM     16  C   UNL     1      -4.238  14.074  21.880  0.00  0.00    +0.000 A 
ATOM     17  C   UNL     1      -5.409  13.360  22.018  0.00  0.00    +0.000 A 
ATOM     18  O   UNL     1      -6.159  13.842  23.052  0.00  0.00    +0.000 OA
ATOM     19  C   UNL     1      -5.313  14.880  23.568  0.00  0.00    +0.000 C 
ATOM     20  O   UNL     1      -4.116  15.073  22.798  0.00  0.00    +0.000 OA
BRANCH  12  22
ATOM     21  C   UNL     1      -7.113  10.821  19.976  0.00  0.00    +0.000 C 
ATOM     22  O   UNL     1      -6.810  11.500  21.187  0.00  0.00    +0.000 OA
ENDBRANCH  12  22
ENDBRANCH   1  14
BRANCH   7  23
ATOM     23  C   UNL     1       1.376   9.097  19.267  0.00  0.00    +0.000 A 
ATOM     24  C   UNL     1       1.993   9.079  18.006  0.00  0.00    +0.000 A 
ATOM     25  C   UNL     1       2.753   7.975  17.608  0.00  0.00    +0.000 A 
ATOM     26  C   UNL     1       2.896   6.892  18.466  0.00  0.00    +0.000 A 
ATOM     27  F   UNL     1       3.585   5.816  18.067  0.00  0.00    +0.000 F 
ATOM     28  C   UNL     1       2.335   6.909  19.735  0.00  0.00    +0.000 A 
ATOM     29  C   UNL     1       1.604   8.023  20.145  0.00  0.00    +0.000 A 
ENDBRANCH   7  23
TORSDOF 3
ENDMDL
MODEL 4
REMARK VINA RESULT:      -7.6      4.271      8.976
REMARK  Name = 
REMARK  4 active torsions:
REMARK  status: ('A' for Active; 'I' for Inactive)
REMARK    1  A    between atoms: C_1  and  O_2
REMARK    2  A    between atoms: O_2  and  C_3
REMARK    3  A    between atoms: C_5  and  C_6
REMARK    4  A    between atoms: C_12  and  C_13
REMARK                            x       y       z     vdW  Elec       q    Type
REMARK                         _______ _______ _______ _____ _____    ______ ____
ROOT
ATOM      1  C   UNL     1      -2.125  12.360  19.054  0.00  0.00    +0.000 C 
ATOM      2  C   UNL     1      -2.915  11.535  18.018  0.00  0.00    +0.000 C 
ATOM      3  C   UNL     1      -2.048  10.684  17.115  0.00  0.00    +0.000 C 
ATOM      4  O   UNL     1      -2.380  10.413  15.961  0.00  0.00    +0.000 OA
ATOM      5  N   UNL     1      -0.937  10.104  17.668  0.00  0.00    +0.000 N 
ATOM      6  C   UNL     1      -0.421  10.486  18.894  0.00  0.00    +0.000 A 
ATOM      7  C   UNL     1       0.706   9.941  19.613  0.00  0.00    +0.000 A 
ATOM      8  N   UNL     1       1.038  10.635  20.711  0.00  0.00    +0.000 NA
ATOM      9  S   UNL     1       0.001  11.915  20.902  0.00  0.00    +0.000 S 
ATOM     10  C   UNL     1      -0.962  11.563  19.549  0.00  0.00    +0.000 A 
ATOM     11  H   UNL     1      -0.429   9.452  17.086  0.00  0.00    +0.000 HD
ENDROOT
BRANCH   1  14
ATOM     12  C   UNL     1      -5.166  12.590  21.409  0.00  0.00    +0.000 A 
ATOM     13  C   UNL     1      -4.296  12.187  20.388  0.00  0.00    +0.000 A 
ATOM     14  C   UNL     1      -3.052  12.828  20.165  0.00  0.00    +0.000 A 
ATOM     15  C   UNL     1      -2.673  13.889  20.995  0.00  0.00    +0.000 A 
ATOM     16  C   UNL     1      -3.540  14.260  22.003  0.00  0.00    +0.000 A 
ATOM     17  C   UNL     1      -4.752  13.637  22.208  0.00  0.00    +0.000 A 
ATOM     18  O   UNL     1      -5.416  14.190  23.265  0.00  0.00    +0.000 OA
ATOM     19  C   UNL     1      -4.473  15.170  23.722  0.00  0.00    +0.000 C 
ATOM     20  O   UNL     1      -3.302  15.261  22.895  0.00  0.00    +0.000 OA
BRANCH  12  22
ATOM     21  C   UNL     1      -6.785  11.281  20.270  0.00  0.00    +0.000 C 
ATOM     22  O   UNL     1      -6.325  11.875  21.477  0.00  0.00    +0.000 OA
ENDBRANCH  12  22
ENDBRANCH   1  14
BRANCH   7  23
ATOM     23  C   UNL     1       1.500   8.769  19.211  0.00  0.00    +0.000 A 
ATOM     24  C   UNL     1       1.651   7.677  20.080  0.00  0.00    +0.000 A 
ATOM     25  C   UNL     1       2.511   6.626  19.749  0.00  0.00    +0.000 A 
ATOM     26  C   UNL     1       3.220   6.666  18.554  0.00  0.00    +0.000 A 
ATOM     27  F   UNL     1       4.077   5.682  18.259  0.00  0.00    +0.000 F 
ATOM     28  C   UNL     1       3.048   7.712  17.658  0.00  0.00    +0.000 A 
ATOM     29  C   UNL     1       2.166   8.744  17.973  0.00  0.00    +0.000 A 
ENDBRANCH   7  23
TORSDOF 3
ENDMDL
MODEL 5
REMARK VINA RESULT:      -7.5      4.610      8.926
REMARK  Name = 
REMARK  4 active torsions:
REMARK  status: ('A' for Active; 'I' for Inactive)
REMARK    1  A    between atoms: C_1  and  O_2
REMARK    2  A    between atoms: O_2  and  C_3
REMARK    3  A    between atoms: C_5  and  C_6
REMARK    4  A    between atoms: C_12  and  C_13
REMARK                            x       y       z     vdW  Elec       q    Type
REMARK                         _______ _______ _______ _____ _____    ______ ____
ROOT
ATOM      1  C   UNL     1      -0.598  12.779  21.687  0.00  0.00    +0.000 C 
ATOM      2  C   UNL     1      -0.596  13.401  20.275  0.00  0.00    +0.000 C 
ATOM      3  C   UNL     1       0.528  12.912  19.387  0.00  0.00    +0.000 C 
ATOM      4  O   UNL     1       1.018  13.622  18.508  0.00  0.00    +0.000 OA
ATOM      5  N   UNL     1       0.897  11.598  19.498  0.00  0.00    +0.000 N 
ATOM      6  C   UNL     1       0.509  10.795  20.556  0.00  0.00    +0.000 A 
ATOM      7  C   UNL     1       0.784   9.395  20.781  0.00  0.00    +0.000 A 
ATOM      8  N   UNL     1       0.387   8.949  21.981  0.00  0.00    +0.000 NA
ATOM      9  S   UNL     1      -0.330  10.180  22.830  0.00  0.00    +0.000 S 
ATOM     10  C   UNL     1      -0.181  11.346  21.606  0.00  0.00    +0.000 A 
ATOM     11  H   UNL     1       1.570  11.258  18.825  0.00  0.00    +0.000 HD
ENDROOT
BRANCH   1  14
ATOM     12  C   UNL     1      -3.305  13.835  24.217  0.00  0.00    +0.000 A 
ATOM     13  C   UNL     1      -2.067  13.632  23.594  0.00  0.00    +0.000 A 
ATOM     14  C   UNL     1      -1.955  12.976  22.342  0.00  0.00    +0.000 A 
ATOM     15  C   UNL     1      -3.116  12.527  21.701  0.00  0.00    +0.000 A 
ATOM     16  C   UNL     1      -4.326  12.751  22.327  0.00  0.00    +0.000 A 
ATOM     17  C   UNL     1      -4.426  13.381  23.549  0.00  0.00    +0.000 A 
ATOM     18  O   UNL     1      -5.728  13.479  23.947  0.00  0.00    +0.000 OA
ATOM     19  C   UNL     1      -6.418  12.900  22.829  0.00  0.00    +0.000 C 
ATOM     20  O   UNL     1      -5.536  12.385  21.820  0.00  0.00    +0.000 OA
BRANCH  12  22
ATOM     21  C   UNL     1      -2.166  15.395  25.594  0.00  0.00    +0.000 C 
ATOM     22  O   UNL     1      -3.232  14.470  25.420  0.00  0.00    +0.000 OA
ENDBRANCH  12  22
ENDBRANCH   1  14
BRANCH   7  23
ATOM     23  C   UNL     1       1.477   8.493  19.849  0.00  0.00    +0.000 A 
ATOM     24  C   UNL     1       1.924   7.232  20.275  0.00  0.00    +0.000 A 
ATOM     25  C   UNL     1       2.696   6.433  19.427  0.00  0.00    +0.000 A 
ATOM     26  C   UNL     1       3.024   6.893  18.157  0.00  0.00    +0.000 A 
ATOM     27  F   UNL     1       3.802   6.148  17.363  0.00  0.00    +0.000 F 
ATOM     28  C   UNL     1       2.552   8.115  17.698  0.00  0.00    +0.000 A 
ATOM     29  C   UNL     1       1.754   8.897  18.531  0.00  0.00    +0.000 A 
ENDBRANCH   7  23
TORSDOF 3
ENDMDL
MODEL 6
REMARK VINA RESULT:      -7.5      4.261      9.076
REMARK  Name = 
REMARK  4 active torsions:
REMARK  status: ('A' for Active; 'I' for Inactive)
REMARK    1  A    between atoms: C_1  and  O_2
REMARK    2  A    between atoms: O_2  and  C_3
REMARK    3  A    between atoms: C_5  and  C_6
REMARK    4  A    between atoms: C_12  and  C_13
REMARK                            x       y       z     vdW  Elec       q    Type
REMARK                         _______ _______ _______ _____ _____    ______ ____
ROOT
ATOM      1  C   UNL     1      -2.209  12.460  19.330  0.00  0.00    +0.000 C 
ATOM      2  C   UNL     1      -2.971  11.658  18.256  0.00  0.00    +0.000 C 
ATOM      3  C   UNL     1      -2.076  10.872  17.321  0.00  0.00    +0.000 C 
ATOM      4  O   UNL     1      -2.397  10.642  16.154  0.00  0.00    +0.000 OA
ATOM      5  N   UNL     1      -0.950  10.303  17.852  0.00  0.00    +0.000 N 
ATOM      6  C   UNL     1      -0.449  10.646  19.096  0.00  0.00    +0.000 A 
ATOM      7  C   UNL     1       0.692  10.103  19.795  0.00  0.00    +0.000 A 
ATOM      8  N   UNL     1       1.000  10.759  20.924  0.00  0.00    +0.000 NA
ATOM      9  S   UNL     1      -0.075  11.998  21.166  0.00  0.00    +0.000 S 
ATOM     10  C   UNL     1      -1.023  11.677  19.795  0.00  0.00    +0.000 A 
ATOM     11  H   UNL     1      -0.421   9.691  17.245  0.00  0.00    +0.000 HD
ENDROOT
BRANCH   1  14
ATOM     12  C   UNL     1      -3.660  14.273  22.404  0.00  0.00    +0.000 A 
ATOM     13  C   UNL     1      -2.808  13.886  21.363  0.00  0.00    +0.000 A 
ATOM     14  C   UNL     1      -3.152  12.851  20.456  0.00  0.00    +0.000 A 
ATOM     15  C   UNL     1      -4.385  12.203  20.597  0.00  0.00    +0.000 A 
ATOM     16  C   UNL     1      -5.215  12.612  21.621  0.00  0.00    +0.000 A 
ATOM     17  C   UNL     1      -4.869  13.613  22.505  0.00  0.00    +0.000 A 
ATOM     18  O   UNL     1      -5.860  13.825  23.419  0.00  0.00    +0.000 OA
ATOM     19  C   UNL     1      -6.866  12.901  22.979  0.00  0.00    +0.000 C 
ATOM     20  O   UNL     1      -6.446  12.088  21.873  0.00  0.00    +0.000 OA
BRANCH  12  22
ATOM     21  C   UNL     1      -2.631  14.897  24.449  0.00  0.00    +0.000 C 
ATOM     22  O   UNL     1      -3.171  15.274  23.189  0.00  0.00    +0.000 OA
ENDBRANCH  12  22
ENDBRANCH   1  14
BRANCH   7  23
ATOM     23  C   UNL     1       1.521   8.975  19.346  0.00  0.00    +0.000 A 
ATOM     24  C   UNL     1       2.093   8.974  18.064  0.00  0.00    +0.000 A 
ATOM     25  C   UNL     1       2.769   7.845  17.593  0.00  0.00    +0.000 A 
ATOM     26  C   UNL     1       2.872   6.718  18.399  0.00  0.00    +0.000 A 
ATOM     27  F   UNL     1       3.478   5.621  17.931  0.00  0.00    +0.000 F 
ATOM     28  C   UNL     1       2.356   6.714  19.688  0.00  0.00    +0.000 A 
ATOM     29  C   UNL     1       1.711   7.851  20.170  0.00  0.00    +0.000 A 
ENDBRANCH   7  23
TORSDOF 3
ENDMDL
MODEL 7
REMARK VINA RESULT:      -7.5      4.624      8.962
REMARK  Name = 
REMARK  4 active torsions:
REMARK  status: ('A' for Active; 'I' for Inactive)
REMARK    1  A    between atoms: C_1  and  O_2
REMARK    2  A    between atoms: O_2  and  C_3
REMARK    3  A    between atoms: C_5  and  C_6
REMARK    4  A    between atoms: C_12  and  C_13
REMARK                            x       y       z     vdW  Elec       q    Type
REMARK                         _______ _______ _______ _____ _____    ______ ____
ROOT
ATOM      1  C   UNL     1      -0.448  12.820  22.043  0.00  0.00    +0.000 C 
ATOM      2  C   UNL     1      -0.233  13.536  20.694  0.00  0.00    +0.000 C 
ATOM      3  C   UNL     1       0.941  13.011  19.895  0.00  0.00    +0.000 C 
ATOM      4  O   UNL     1       1.586  13.734  19.135  0.00  0.00    +0.000 OA
ATOM      5  N   UNL     1       1.185  11.664  19.940  0.00  0.00    +0.000 N 
ATOM      6  C   UNL     1       0.614  10.828  20.883  0.00  0.00    +0.000 A 
ATOM      7  C   UNL     1       0.744   9.396  21.023  0.00  0.00    +0.000 A 
ATOM      8  N   UNL     1       0.177   8.905  22.134  0.00  0.00    +0.000 NA
ATOM      9  S   UNL     1      -0.528  10.133  22.996  0.00  0.00    +0.000 S 
ATOM     10  C   UNL     1      -0.144  11.364  21.893  0.00  0.00    +0.000 A 
ATOM     11  H   UNL     1       1.901  11.312  19.319  0.00  0.00    +0.000 HD
ENDROOT
BRANCH   1  14
ATOM     12  C   UNL     1      -3.340  14.230  24.162  0.00  0.00    +0.000 A 
ATOM     13  C   UNL     1      -2.058  13.954  23.668  0.00  0.00    +0.000 A 
ATOM     14  C   UNL     1      -1.850  13.093  22.561  0.00  0.00    +0.000 A 
ATOM     15  C   UNL     1      -2.957  12.509  21.934  0.00  0.00    +0.000 A 
ATOM     16  C   UNL     1      -4.210  12.808  22.428  0.00  0.00    +0.000 A 
ATOM     17  C   UNL     1      -4.404  13.638  23.511  0.00  0.00    +0.000 A 
ATOM     18  O   UNL     1      -5.733  13.770  23.798  0.00  0.00    +0.000 OA
ATOM     19  C   UNL     1      -6.335  12.988  22.756  0.00  0.00    +0.000 C 
ATOM     20  O   UNL     1      -5.377  12.328  21.914  0.00  0.00    +0.000 OA
BRANCH  12  22
ATOM     21  C   UNL     1      -2.103  15.421  25.800  0.00  0.00    +0.000 C 
ATOM     22  O   UNL     1      -3.360  15.068  25.238  0.00  0.00    +0.000 OA
ENDBRANCH  12  22
ENDBRANCH   1  14
BRANCH   7  23
ATOM     23  C   UNL     1       1.463   8.502  20.102  0.00  0.00    +0.000 A 
ATOM     24  C   UNL     1       1.672   8.873  18.764  0.00  0.00    +0.000 A 
ATOM     25  C   UNL     1       2.238   7.969  17.861  0.00  0.00    +0.000 A 
ATOM     26  C   UNL     1       2.591   6.696  18.292  0.00  0.00    +0.000 A 
ATOM     27  F   UNL     1       3.089   5.815  17.417  0.00  0.00    +0.000 F 
ATOM     28  C   UNL     1       2.438   6.324  19.621  0.00  0.00    +0.000 A 
ATOM     29  C   UNL     1       1.905   7.238  20.528  0.00  0.00    +0.000 A 
ENDBRANCH   7  23
TORSDOF 3
ENDMDL
MODEL 8
REMARK VINA RESULT:      -7.5      4.383      8.700
REMARK  Name = 
REMARK  4 active torsions:
REMARK  status: ('A' for Active; 'I' for Inactive)
REMARK    1  A    between atoms: C_1  and  O_2
REMARK    2  A    between atoms: O_2  and  C_3
REMARK    3  A    between atoms: C_5  and  C_6
REMARK    4  A    between atoms: C_12  and  C_13
REMARK                            x       y       z     vdW  Elec       q    Type
REMARK                         _______ _______ _______ _____ _____    ______ ____
ROOT
ATOM      1  C   UNL     1      -0.417  12.201  21.194  0.00  0.00    +0.000 C 
ATOM      2  C   UNL     1      -0.218  12.883  19.825  0.00  0.00    +0.000 C 
ATOM      3  C   UNL     1       1.022  12.431  19.084  0.00  0.00    +0.000 C 
ATOM      4  O   UNL     1       1.628  13.177  18.314  0.00  0.00    +0.000 OA
ATOM      5  N   UNL     1       1.377  11.112  19.189  0.00  0.00    +0.000 N 
ATOM      6  C   UNL     1       0.846  10.265  20.146  0.00  0.00    +0.000 A 
ATOM      7  C   UNL     1       1.092   8.856  20.347  0.00  0.00    +0.000 A 
ATOM      8  N   UNL     1       0.532   8.360  21.459  0.00  0.00    +0.000 NA
ATOM      9  S   UNL     1      -0.302   9.554  22.250  0.00  0.00    +0.000 S 
ATOM     10  C   UNL     1       0.013  10.772  21.111  0.00  0.00    +0.000 A 
ATOM     11  H   UNL     1       2.139  10.800  18.603  0.00  0.00    +0.000 HD
ENDROOT
BRANCH   1  14
ATOM     12  C   UNL     1      -4.236  12.699  21.120  0.00  0.00    +0.000 A 
ATOM     13  C   UNL     1      -2.902  12.547  20.721  0.00  0.00    +0.000 A 
ATOM     14  C   UNL     1      -1.853  12.372  21.659  0.00  0.00    +0.000 A 
ATOM     15  C   UNL     1      -2.159  12.339  23.025  0.00  0.00    +0.000 A 
ATOM     16  C   UNL     1      -3.482  12.475  23.394  0.00  0.00    +0.000 A 
ATOM     17  C   UNL     1      -4.495  12.654  22.476  0.00  0.00    +0.000 A 
ATOM     18  O   UNL     1      -5.707  12.761  23.096  0.00  0.00    +0.000 OA
ATOM     19  C   UNL     1      -5.346  12.576  24.473  0.00  0.00    +0.000 C 
ATOM     20  O   UNL     1      -3.931  12.448  24.679  0.00  0.00    +0.000 OA
BRANCH  12  22
ATOM     21  C   UNL     1      -4.847  12.151  18.894  0.00  0.00    +0.000 C 
ATOM     22  O   UNL     1      -5.116  12.868  20.092  0.00  0.00    +0.000 OA
ENDBRANCH  12  22
ENDBRANCH   1  14
BRANCH   7  23
ATOM     23  C   UNL     1       1.913   7.994  19.484  0.00  0.00    +0.000 A 
ATOM     24  C   UNL     1       2.343   6.735  19.934  0.00  0.00    +0.000 A 
ATOM     25  C   UNL     1       3.230   5.976  19.165  0.00  0.00    +0.000 A 
ATOM     26  C   UNL     1       3.689   6.473  17.952  0.00  0.00    +0.000 A 
ATOM     27  F   UNL     1       4.574   5.766  17.238  0.00  0.00    +0.000 F 
ATOM     28  C   UNL     1       3.240   7.693  17.465  0.00  0.00    +0.000 A 
ATOM     29  C   UNL     1       2.330   8.435  18.216  0.00  0.00    +0.000 A 
ENDBRANCH   7  23
TORSDOF 3
ENDMDL
MODEL 9
REMARK VINA RESULT:      -7.5      4.239      9.008
REMARK  Name = 
REMARK  4 active torsions:
REMARK  status: ('A' for Active; 'I' for Inactive)
REMARK    1  A    between atoms: C_1  and  O_2
REMARK    2  A    between atoms: O_2  and  C_3
REMARK    3  A    between atoms: C_5  and  C_6
REMARK    4  A    between atoms: C_12  and  C_13
REMARK                            x       y       z     vdW  Elec       q    Type
REMARK                         _______ _______ _______ _____ _____    ______ ____
ROOT
ATOM      1  C   UNL     1      -2.779  11.977  18.685  0.00  0.00    +0.000 C 
ATOM      2  C   UNL     1      -3.344  11.056  17.585  0.00  0.00    +0.000 C 
ATOM      3  C   UNL     1      -2.285  10.379  16.741  0.00  0.00    +0.000 C 
ATOM      4  O   UNL     1      -2.484  10.082  15.563  0.00  0.00    +0.000 OA
ATOM      5  N   UNL     1      -1.136   9.978  17.370  0.00  0.00    +0.000 N 
ATOM      6  C   UNL     1      -0.780  10.413  18.635  0.00  0.00    +0.000 A 
ATOM      7  C   UNL     1       0.367  10.045  19.431  0.00  0.00    +0.000 A 
ATOM      8  N   UNL     1       0.499  10.760  20.557  0.00  0.00    +0.000 NA
ATOM      9  S   UNL     1      -0.747  11.848  20.682  0.00  0.00    +0.000 S 
ATOM     10  C   UNL     1      -1.538  11.372  19.258  0.00  0.00    +0.000 A 
ATOM     11  H   UNL     1      -0.487   9.431  16.822  0.00  0.00    +0.000 HD
ENDROOT
BRANCH   1  14
ATOM     12  C   UNL     1      -4.500  13.267  21.882  0.00  0.00    +0.000 A 
ATOM     13  C   UNL     1      -3.534  12.982  20.908  0.00  0.00    +0.000 A 
ATOM     14  C   UNL     1      -3.847  12.262  19.728  0.00  0.00    +0.000 A 
ATOM     15  C   UNL     1      -5.163  11.830  19.522  0.00  0.00    +0.000 A 
ATOM     16  C   UNL     1      -6.101  12.135  20.487  0.00  0.00    +0.000 A 
ATOM     17  C   UNL     1      -5.786  12.828  21.637  0.00  0.00    +0.000 A 
ATOM     18  O   UNL     1      -6.888  12.998  22.425  0.00  0.00    +0.000 OA
ATOM     19  C   UNL     1      -7.915  12.395  21.624  0.00  0.00    +0.000 C 
ATOM     20  O   UNL     1      -7.417  11.795  20.418  0.00  0.00    +0.000 OA
BRANCH  12  22
ATOM     21  C   UNL     1      -2.615  14.054  23.089  0.00  0.00    +0.000 C 
ATOM     22  O   UNL     1      -4.028  13.957  22.958  0.00  0.00    +0.000 OA
ENDBRANCH  12  22
ENDBRANCH   1  14
BRANCH   7  23
ATOM     23  C   UNL     1       1.370   9.029  19.078  0.00  0.00    +0.000 A 
ATOM     24  C   UNL     1       2.018   9.066  17.833  0.00  0.00    +0.000 A 
ATOM     25  C   UNL     1       2.871   8.028  17.450  0.00  0.00    +0.000 A 
ATOM     26  C   UNL     1       3.076   6.954  18.306  0.00  0.00    +0.000 A 
ATOM     27  F   UNL     1       3.857   5.938  17.920  0.00  0.00    +0.000 F 
ATOM     28  C   UNL     1       2.485   6.920  19.562  0.00  0.00    +0.000 A 
ATOM     29  C   UNL     1       1.660   7.971  19.957  0.00  0.00    +0.000 A 
ENDBRANCH   7  23
TORSDOF 3
ENDMDL
