MODEL 1
REMARK VINA RESULT:      -7.6      0.000      0.000
REMARK  Name = 
REMARK  5 active torsions:
REMARK  status: ('A' for Active; 'I' for Inactive)
REMARK    1  A    between atoms: C_1  and  N_2
REMARK    2  A    between atoms: C_3  and  C_5
REMARK    3  A    between atoms: C_17  and  C_18
REMARK    4  A    between atoms: C_18  and  C_19
REMARK    5  A    between atoms: C_18  and  O_20
REMARK                            x       y       z     vdW  Elec       q    Type
REMARK                         _______ _______ _______ _____ _____    ______ ____
ROOT
ATOM      1  C   UNL     1       2.398   7.591  18.875  0.00  0.00    +0.000 A 
ATOM      2  C   UNL     1       2.283   8.540  17.854  0.00  0.00    +0.000 A 
ATOM      3  C   UNL     1       1.539   9.717  18.069  0.00  0.00    +0.000 A 
ATOM      4  C   UNL     1       0.910   9.964  19.304  0.00  0.00    +0.000 A 
ATOM      5  C   UNL     1       1.052   9.009  20.299  0.00  0.00    +0.000 A 
ATOM      6  C   UNL     1       1.774   7.829  20.096  0.00  0.00    +0.000 A 
ATOM      7  S   UNL     1       0.350   9.236  21.872  0.00  0.00    +0.000 S 
ATOM      8  O   UNL     1       1.457   9.465  22.780  0.00  0.00    +0.000 OA
ATOM      9  O   UNL     1      -0.592   8.152  22.064  0.00  0.00    +0.000 OA
ATOM     10  C   UNL     1      -0.584  10.702  21.864  0.00  0.00    +0.000 A 
ATOM     11  C   UNL     1      -1.285  11.011  23.034  0.00  0.00    +0.000 A 
ATOM     12  C   UNL     1      -2.010  12.190  23.109  0.00  0.00    +0.000 A 
ATOM     13  C   UNL     1      -2.040  13.074  22.022  0.00  0.00    +0.000 A 
ATOM     14  C   UNL     1      -1.349  12.725  20.841  0.00  0.00    +0.000 A 
ATOM     15  C   UNL     1      -0.607  11.530  20.750  0.00  0.00    +0.000 A 
ATOM     16  C   UNL     1       0.125  11.218  19.488  0.00  0.00    +0.000 C 
ATOM     17  O   UNL     1       0.077  12.025  18.563  0.00  0.00    +0.000 OA
ENDROOT
BRANCH   1  20
ATOM     18  C   UNL     1       3.873   4.232  19.760  0.00  0.00    +0.000 C 
ATOM     19  N   UNL     1       3.307   5.553  19.873  0.00  0.00    +0.000 N 
ATOM     20  C   UNL     1       3.123   6.303  18.733  0.00  0.00    +0.000 C 
ATOM     21  O   UNL     1       3.481   5.932  17.620  0.00  0.00    +0.000 OA
ATOM     22  H   UNL     1       2.808   5.794  20.718  0.00  0.00    +0.000 HD
ENDBRANCH   1  20
BRANCH  13  23
ATOM     23  C   UNL     1      -2.787  14.382  22.179  0.00  0.00    +0.000 C 
ATOM     24  C   UNL     1      -3.832  14.595  21.091  0.00  0.00    +0.000 C 
BRANCH  23  25
ATOM     25  O   UNL     1      -3.386  14.448  23.465  0.00  0.00    +0.000 OA
ATOM     26  H   UNL     1      -3.372  13.558  23.850  0.00  0.00    +0.000 HD
ENDBRANCH  23  25
ENDBRANCH  13  23
TORSDOF 3
ENDMDL
MODEL 2
REMARK VINA RESULT:      -7.4      1.047      1.127
REMARK  Name = 
REMARK  5 active torsions:
REMARK  status: ('A' for Active; 'I' for Inactive)
REMARK    1  A    between atoms: C_1  and  N_2
REMARK    2  A    between atoms: C_3  and  C_5
REMARK    3  A    between atoms: C_17  and  C_18
REMARK    4  A    between atoms: C_18  and  C_19
REMARK    5  A    between atoms: C_18  and  O_20
REMARK                            x       y       z     vdW  Elec       q    Type
REMARK                         _______ _______ _______ _____ _____    ______ ____
ROOT
ATOM      1  C   UNL     1       2.357   7.296  19.299  0.00  0.00    +0.000 A 
ATOM      2  C   UNL     1       2.300   8.141  18.186  0.00  0.00    +0.000 A 
ATOM      3  C   UNL     1       1.586   9.354  18.261  0.00  0.00    +0.000 A 
ATOM      4  C   UNL     1       0.929   9.739  19.445  0.00  0.00    +0.000 A 
ATOM      5  C   UNL     1       1.013   8.884  20.532  0.00  0.00    +0.000 A 
ATOM      6  C   UNL     1       1.705   7.670  20.470  0.00  0.00    +0.000 A 
ATOM      7  S   UNL     1       0.272   9.285  22.052  0.00  0.00    +0.000 S 
ATOM      8  O   UNL     1       1.358   9.573  22.968  0.00  0.00    +0.000 OA
ATOM      9  O   UNL     1      -0.707   8.251  22.320  0.00  0.00    +0.000 OA
ATOM     10  C   UNL     1      -0.617  10.767  21.870  0.00  0.00    +0.000 A 
ATOM     11  C   UNL     1      -1.343  11.209  22.980  0.00  0.00    +0.000 A 
ATOM     12  C   UNL     1      -2.034  12.409  22.916  0.00  0.00    +0.000 A 
ATOM     13  C   UNL     1      -2.005  13.181  21.747  0.00  0.00    +0.000 A 
ATOM     14  C   UNL     1      -1.291  12.698  20.628  0.00  0.00    +0.000 A 
ATOM     15  C   UNL     1      -0.582  11.480  20.680  0.00  0.00    +0.000 A 
ATOM     16  C   UNL     1       0.176  11.026  19.479  0.00  0.00    +0.000 C 
ATOM     17  O   UNL     1       0.179  11.737  18.478  0.00  0.00    +0.000 OA
ENDROOT
BRANCH   1  20
ATOM     18  C   UNL     1       5.025   4.684  18.746  0.00  0.00    +0.000 C 
ATOM     19  N   UNL     1       4.250   5.895  18.641  0.00  0.00    +0.000 N 
ATOM     20  C   UNL     1       3.047   5.981  19.308  0.00  0.00    +0.000 C 
ATOM     21  O   UNL     1       2.561   5.049  19.939  0.00  0.00    +0.000 OA
ATOM     22  H   UNL     1       4.710   6.738  18.326  0.00  0.00    +0.000 HD
ENDBRANCH   1  20
BRANCH  13  23
ATOM     23  C   UNL     1      -2.717  14.518  21.750  0.00  0.00    +0.000 C 
ATOM     24  C   UNL     1      -1.901  15.616  22.421  0.00  0.00    +0.000 C 
BRANCH  23  25
ATOM     25  O   UNL     1      -3.058  14.891  20.423  0.00  0.00    +0.000 OA
ATOM     26  H   UNL     1      -3.998  15.131  20.409  0.00  0.00    +0.000 HD
ENDBRANCH  23  25
ENDBRANCH  13  23
TORSDOF 3
ENDMDL
MODEL 3
REMARK VINA RESULT:      -7.4      2.127      2.756
REMARK  Name = 
REMARK  5 active torsions:
REMARK  status: ('A' for Active; 'I' for Inactive)
REMARK    1  A    between atoms: C_1  and  N_2
REMARK    2  A    between atoms: C_3  and  C_5
REMARK    3  A    between atoms: C_17  and  C_18
REMARK    4  A    between atoms: C_18  and  C_19
REMARK    5  A    between atoms: C_18  and  O_20
REMARK                            x       y       z     vdW  Elec       q    Type
REMARK                         _______ _______ _______ _____ _____    ______ ____
ROOT
ATOM      1  C   UNL     1       2.301   5.815  19.694  0.00  0.00    +0.000 A 
ATOM      2  C   UNL     1       2.710   6.302  18.448  0.00  0.00    +0.000 A 
ATOM      3  C   UNL     1       2.508   7.659  18.124  0.00  0.00    +0.000 A 
ATOM      4  C   UNL     1       1.906   8.543  19.039  0.00  0.00    +0.000 A 
ATOM      5  C   UNL     1       1.522   8.031  20.268  0.00  0.00    +0.000 A 
ATOM      6  C   UNL     1       1.701   6.684  20.600  0.00  0.00    +0.000 A 
ATOM      7  S   UNL     1       0.807   9.047  21.483  0.00  0.00    +0.000 S 
ATOM      8  O   UNL     1       1.798   9.181  22.533  0.00  0.00    +0.000 OA
ATOM      9  O   UNL     1      -0.517   8.517  21.738  0.00  0.00    +0.000 OA
ATOM     10  C   UNL     1       0.580  10.639  20.822  0.00  0.00    +0.000 A 
ATOM     11  C   UNL     1      -0.054  11.579  21.641  0.00  0.00    +0.000 A 
ATOM     12  C   UNL     1      -0.222  12.879  21.191  0.00  0.00    +0.000 A 
ATOM     13  C   UNL     1       0.244  13.256  19.925  0.00  0.00    +0.000 A 
ATOM     14  C   UNL     1       0.853  12.282  19.104  0.00  0.00    +0.000 A 
ATOM     15  C   UNL     1       1.032  10.956  19.549  0.00  0.00    +0.000 A 
ATOM     16  C   UNL     1       1.703   9.969  18.653  0.00  0.00    +0.000 C 
ATOM     17  O   UNL     1       2.101  10.345  17.554  0.00  0.00    +0.000 OA
ENDROOT
BRANCH   1  20
ATOM     18  C   UNL     1       1.726   2.611  21.604  0.00  0.00    +0.000 C 
ATOM     19  N   UNL     1       1.749   4.007  21.244  0.00  0.00    +0.000 N 
ATOM     20  C   UNL     1       2.431   4.396  20.113  0.00  0.00    +0.000 C 
ATOM     21  O   UNL     1       3.085   3.621  19.423  0.00  0.00    +0.000 OA
ATOM     22  H   UNL     1       1.056   4.622  21.649  0.00  0.00    +0.000 HD
ENDBRANCH   1  20
BRANCH  13  23
ATOM     23  C   UNL     1       0.101  14.705  19.508  0.00  0.00    +0.000 C 
ATOM     24  C   UNL     1       1.443  15.371  19.229  0.00  0.00    +0.000 C 
BRANCH  23  25
ATOM     25  O   UNL     1      -0.748  14.804  18.374  0.00  0.00    +0.000 OA
ATOM     26  H   UNL     1      -1.396  15.506  18.542  0.00  0.00    +0.000 HD
ENDBRANCH  23  25
ENDBRANCH  13  23
TORSDOF 3
ENDMDL
MODEL 4
REMARK VINA RESULT:      -7.2      5.547      6.888
REMARK  Name = 
REMARK  5 active torsions:
REMARK  status: ('A' for Active; 'I' for Inactive)
REMARK    1  A    between atoms: C_1  and  N_2
REMARK    2  A    between atoms: C_3  and  C_5
REMARK    3  A    between atoms: C_17  and  C_18
REMARK    4  A    between atoms: C_18  and  C_19
REMARK    5  A    between atoms: C_18  and  O_20
REMARK                            x       y       z     vdW  Elec       q    Type
REMARK                         _______ _______ _______ _____ _____    ______ ____
ROOT
ATOM      1  C   UNL     1      -3.418  10.654  15.773  0.00  0.00    +0.000 A 
ATOM      2  C   UNL     1      -2.282  11.024  16.500  0.00  0.00    +0.000 A 
ATOM      3  C   UNL     1      -2.419  11.544  17.802  0.00  0.00    +0.000 A 
ATOM      4  C   UNL     1      -3.687  11.694  18.395  0.00  0.00    +0.000 A 
ATOM      5  C   UNL     1      -4.792  11.309  17.653  0.00  0.00    +0.000 A 
ATOM      6  C   UNL     1      -4.674  10.804  16.353  0.00  0.00    +0.000 A 
ATOM      7  S   UNL     1      -6.399  11.414  18.307  0.00  0.00    +0.000 S 
ATOM      8  O   UNL     1      -6.834  10.049  18.531  0.00  0.00    +0.000 OA
ATOM      9  O   UNL     1      -7.133  12.326  17.455  0.00  0.00    +0.000 OA
ATOM     10  C   UNL     1      -6.318  12.162  19.874  0.00  0.00    +0.000 A 
ATOM     11  C   UNL     1      -7.533  12.396  20.526  0.00  0.00    +0.000 A 
ATOM     12  C   UNL     1      -7.536  12.946  21.798  0.00  0.00    +0.000 A 
ATOM     13  C   UNL     1      -6.329  13.263  22.434  0.00  0.00    +0.000 A 
ATOM     14  C   UNL     1      -5.116  13.047  21.744  0.00  0.00    +0.000 A 
ATOM     15  C   UNL     1      -5.098  12.487  20.450  0.00  0.00    +0.000 A 
ATOM     16  C   UNL     1      -3.790  12.256  19.772  0.00  0.00    +0.000 C 
ATOM     17  O   UNL     1      -2.756  12.544  20.370  0.00  0.00    +0.000 OA
ENDROOT
BRANCH   1  20
ATOM     18  C   UNL     1      -4.554   9.760  12.287  0.00  0.00    +0.000 C 
ATOM     19  N   UNL     1      -4.568  10.114  13.684  0.00  0.00    +0.000 N 
ATOM     20  C   UNL     1      -3.381  10.136  14.381  0.00  0.00    +0.000 C 
ATOM     21  O   UNL     1      -2.307   9.802  13.891  0.00  0.00    +0.000 OA
ATOM     22  H   UNL     1      -5.375  10.599  14.052  0.00  0.00    +0.000 HD
ENDBRANCH   1  20
BRANCH  13  23
ATOM     23  C   UNL     1      -6.381  13.795  23.852  0.00  0.00    +0.000 C 
ATOM     24  C   UNL     1      -7.805  13.909  24.383  0.00  0.00    +0.000 C 
BRANCH  23  25
ATOM     25  O   UNL     1      -5.595  12.978  24.707  0.00  0.00    +0.000 OA
ATOM     26  H   UNL     1      -4.997  12.451  24.154  0.00  0.00    +0.000 HD
ENDBRANCH  23  25
ENDBRANCH  13  23
TORSDOF 3
ENDMDL
MODEL 5
REMARK VINA RESULT:      -7.1      2.659      7.880
REMARK  Name = 
REMARK  5 active torsions:
REMARK  status: ('A' for Active; 'I' for Inactive)
REMARK    1  A    between atoms: C_1  and  N_2
REMARK    2  A    between atoms: C_3  and  C_5
REMARK    3  A    between atoms: C_17  and  C_18
REMARK    4  A    between atoms: C_18  and  C_19
REMARK    5  A    between atoms: C_18  and  O_20
REMARK                            x       y       z     vdW  Elec       q    Type
REMARK                         _______ _______ _______ _____ _____    ______ ____
ROOT
ATOM      1  C   UNL     1      -1.962  12.806  22.085  0.00  0.00    +0.000 A 
ATOM      2  C   UNL     1      -1.691  11.928  23.140  0.00  0.00    +0.000 A 
ATOM      3  C   UNL     1      -0.881  10.796  22.921  0.00  0.00    +0.000 A 
ATOM      4  C   UNL     1      -0.327  10.532  21.654  0.00  0.00    +0.000 A 
ATOM      5  C   UNL     1      -0.606  11.427  20.633  0.00  0.00    +0.000 A 
ATOM      6  C   UNL     1      -1.421  12.547  20.830  0.00  0.00    +0.000 A 
ATOM      7  S   UNL     1       0.061  11.215  19.043  0.00  0.00    +0.000 S 
ATOM      8  O   UNL     1       1.043  12.268  18.873  0.00  0.00    +0.000 OA
ATOM      9  O   UNL     1      -1.062  11.058  18.141  0.00  0.00    +0.000 OA
ATOM     10  C   UNL     1       0.941   9.717  18.998  0.00  0.00    +0.000 A 
ATOM     11  C   UNL     1       1.491   9.344  17.768  0.00  0.00    +0.000 A 
ATOM     12  C   UNL     1       2.245   8.184  17.676  0.00  0.00    +0.000 A 
ATOM     13  C   UNL     1       2.462   7.389  18.809  0.00  0.00    +0.000 A 
ATOM     14  C   UNL     1       1.870   7.770  20.033  0.00  0.00    +0.000 A 
ATOM     15  C   UNL     1       1.102   8.947  20.142  0.00  0.00    +0.000 A 
ATOM     16  C   UNL     1       0.518   9.319  21.463  0.00  0.00    +0.000 C 
ATOM     17  O   UNL     1       0.739   8.596  22.431  0.00  0.00    +0.000 OA
ENDROOT
BRANCH   1  20
ATOM     18  C   UNL     1      -4.853  15.000  23.122  0.00  0.00    +0.000 C 
ATOM     19  N   UNL     1      -4.041  13.840  22.853  0.00  0.00    +0.000 N 
ATOM     20  C   UNL     1      -2.837  14.001  22.204  0.00  0.00    +0.000 C 
ATOM     21  O   UNL     1      -2.443  15.081  21.777  0.00  0.00    +0.000 OA
ATOM     22  H   UNL     1      -4.220  12.993  23.374  0.00  0.00    +0.000 HD
ENDBRANCH   1  20
BRANCH  13  23
ATOM     23  C   UNL     1       3.352   6.170  18.673  0.00  0.00    +0.000 C 
ATOM     24  C   UNL     1       4.539   6.411  17.749  0.00  0.00    +0.000 C 
BRANCH  23  25
ATOM     25  O   UNL     1       3.795   5.747  19.954  0.00  0.00    +0.000 OA
ATOM     26  H   UNL     1       3.025   5.708  20.542  0.00  0.00    +0.000 HD
ENDBRANCH  23  25
ENDBRANCH  13  23
TORSDOF 3
ENDMDL
MODEL 6
REMARK VINA RESULT:      -7.0      3.152      8.720
REMARK  Name = 
REMARK  5 active torsions:
REMARK  status: ('A' for Active; 'I' for Inactive)
REMARK    1  A    between atoms: C_1  and  N_2
REMARK    2  A    between atoms: C_3  and  C_5
REMARK    3  A    between atoms: C_17  and  C_18
REMARK    4  A    between atoms: C_18  and  C_19
REMARK    5  A    between atoms: C_18  and  O_20
REMARK                            x       y       z     vdW  Elec       q    Type
REMARK                         _______ _______ _______ _____ _____    ______ ____
ROOT
ATOM      1  C   UNL     1       0.753   8.644  20.633  0.00  0.00    +0.000 A 
ATOM      2  C   UNL     1       1.191   9.537  19.649  0.00  0.00    +0.000 A 
ATOM      3  C   UNL     1       2.064   9.092  18.636  0.00  0.00    +0.000 A 
ATOM      4  C   UNL     1       2.503   7.755  18.589  0.00  0.00    +0.000 A 
ATOM      5  C   UNL     1       2.043   6.894  19.573  0.00  0.00    +0.000 A 
ATOM      6  C   UNL     1       1.188   7.323  20.594  0.00  0.00    +0.000 A 
ATOM      7  S   UNL     1       2.491   5.215  19.583  0.00  0.00    +0.000 S 
ATOM      8  O   UNL     1       1.295   4.476  19.230  0.00  0.00    +0.000 OA
ATOM      9  O   UNL     1       3.201   4.985  20.824  0.00  0.00    +0.000 OA
ATOM     10  C   UNL     1       3.634   4.933  18.303  0.00  0.00    +0.000 A 
ATOM     11  C   UNL     1       4.164   3.642  18.204  0.00  0.00    +0.000 A 
ATOM     12  C   UNL     1       5.043   3.339  17.176  0.00  0.00    +0.000 A 
ATOM     13  C   UNL     1       5.399   4.315  16.237  0.00  0.00    +0.000 A 
ATOM     14  C   UNL     1       4.875   5.619  16.376  0.00  0.00    +0.000 A 
ATOM     15  C   UNL     1       3.979   5.942  17.416  0.00  0.00    +0.000 A 
ATOM     16  C   UNL     1       3.434   7.328  17.506  0.00  0.00    +0.000 C 
ATOM     17  O   UNL     1       3.768   8.150  16.657  0.00  0.00    +0.000 OA
ENDROOT
BRANCH   1  20
ATOM     18  C   UNL     1      -1.115  10.793  23.111  0.00  0.00    +0.000 C 
ATOM     19  N   UNL     1      -0.162  10.355  22.121  0.00  0.00    +0.000 N 
ATOM     20  C   UNL     1      -0.133   9.025  21.763  0.00  0.00    +0.000 C 
ATOM     21  O   UNL     1      -0.833   8.170  22.294  0.00  0.00    +0.000 OA
ATOM     22  H   UNL     1       0.261  11.046  21.519  0.00  0.00    +0.000 HD
ENDBRANCH   1  20
BRANCH  13  23
ATOM     23  C   UNL     1       6.307   3.915  15.092  0.00  0.00    +0.000 C 
ATOM     24  C   UNL     1       5.616   4.005  13.736  0.00  0.00    +0.000 C 
BRANCH  23  25
ATOM     25  O   UNL     1       7.484   4.709  15.104  0.00  0.00    +0.000 OA
ATOM     26  H   UNL     1       8.243   4.125  14.950  0.00  0.00    +0.000 HD
ENDBRANCH  23  25
ENDBRANCH  13  23
TORSDOF 3
ENDMDL
MODEL 7
REMARK VINA RESULT:      -7.0      1.688      3.060
REMARK  Name = 
REMARK  5 active torsions:
REMARK  status: ('A' for Active; 'I' for Inactive)
REMARK    1  A    between atoms: C_1  and  N_2
REMARK    2  A    between atoms: C_3  and  C_5
REMARK    3  A    between atoms: C_17  and  C_18
REMARK    4  A    between atoms: C_18  and  C_19
REMARK    5  A    between atoms: C_18  and  O_20
REMARK                            x       y       z     vdW  Elec       q    Type
REMARK                         _______ _______ _______ _____ _____    ______ ____
ROOT
ATOM      1  C   UNL     1       1.701   8.499  19.412  0.00  0.00    +0.000 A 
ATOM      2  C   UNL     1       1.758   8.052  20.736  0.00  0.00    +0.000 A 
ATOM      3  C   UNL     1       0.992   8.696  21.728  0.00  0.00    +0.000 A 
ATOM      4  C   UNL     1       0.156   9.784  21.410  0.00  0.00    +0.000 A 
ATOM      5  C   UNL     1       0.115  10.195  20.088  0.00  0.00    +0.000 A 
ATOM      6  C   UNL     1       0.880   9.577  19.094  0.00  0.00    +0.000 A 
ATOM      7  S   UNL     1      -0.914  11.501  19.583  0.00  0.00    +0.000 S 
ATOM      8  O   UNL     1      -1.972  10.901  18.794  0.00  0.00    +0.000 OA
ATOM      9  O   UNL     1      -0.045  12.529  19.049  0.00  0.00    +0.000 OA
ATOM     10  C   UNL     1      -1.681  12.186  20.985  0.00  0.00    +0.000 A 
ATOM     11  C   UNL     1      -2.497  13.303  20.777  0.00  0.00    +0.000 A 
ATOM     12  C   UNL     1      -3.175  13.867  21.846  0.00  0.00    +0.000 A 
ATOM     13  C   UNL     1      -3.051  13.321  23.130  0.00  0.00    +0.000 A 
ATOM     14  C   UNL     1      -2.197  12.212  23.321  0.00  0.00    +0.000 A 
ATOM     15  C   UNL     1      -1.502  11.627  22.242  0.00  0.00    +0.000 A 
ATOM     16  C   UNL     1      -0.631  10.442  22.491  0.00  0.00    +0.000 C 
ATOM     17  O   UNL     1      -0.557   9.993  23.632  0.00  0.00    +0.000 OA
ENDROOT
BRANCH   1  20
ATOM     18  C   UNL     1       3.801   6.044  17.462  0.00  0.00    +0.000 C 
ATOM     19  N   UNL     1       3.138   6.720  18.549  0.00  0.00    +0.000 N 
ATOM     20  C   UNL     1       2.500   7.915  18.304  0.00  0.00    +0.000 C 
ATOM     21  O   UNL     1       2.522   8.478  17.215  0.00  0.00    +0.000 OA
ATOM     22  H   UNL     1       2.914   6.192  19.381  0.00  0.00    +0.000 HD
ENDBRANCH   1  20
BRANCH  13  23
ATOM     23  C   UNL     1      -3.868  13.928  24.252  0.00  0.00    +0.000 C 
ATOM     24  C   UNL     1      -4.979  14.839  23.742  0.00  0.00    +0.000 C 
BRANCH  23  25
ATOM     25  O   UNL     1      -4.404  12.902  25.074  0.00  0.00    +0.000 OA
ATOM     26  H   UNL     1      -3.916  12.083  24.891  0.00  0.00    +0.000 HD
ENDBRANCH  23  25
ENDBRANCH  13  23
TORSDOF 3
ENDMDL
MODEL 8
REMARK VINA RESULT:      -7.0      2.534      7.919
REMARK  Name = 
REMARK  5 active torsions:
REMARK  status: ('A' for Active; 'I' for Inactive)
REMARK    1  A    between atoms: C_1  and  N_2
REMARK    2  A    between atoms: C_3  and  C_5
REMARK    3  A    between atoms: C_17  and  C_18
REMARK    4  A    between atoms: C_18  and  C_19
REMARK    5  A    between atoms: C_18  and  O_20
REMARK                            x       y       z     vdW  Elec       q    Type
REMARK                         _______ _______ _______ _____ _____    ______ ____
ROOT
ATOM      1  C   UNL     1      -2.042  12.947  21.883  0.00  0.00    +0.000 A 
ATOM      2  C   UNL     1      -1.842  12.113  22.988  0.00  0.00    +0.000 A 
ATOM      3  C   UNL     1      -1.046  10.957  22.861  0.00  0.00    +0.000 A 
ATOM      4  C   UNL     1      -0.434  10.626  21.637  0.00  0.00    +0.000 A 
ATOM      5  C   UNL     1      -0.643  11.479  20.564  0.00  0.00    +0.000 A 
ATOM      6  C   UNL     1      -1.443  12.622  20.670  0.00  0.00    +0.000 A 
ATOM      7  S   UNL     1       0.099  11.184  19.021  0.00  0.00    +0.000 S 
ATOM      8  O   UNL     1       1.110  12.209  18.856  0.00  0.00    +0.000 OA
ATOM      9  O   UNL     1      -0.981  11.007  18.071  0.00  0.00    +0.000 OA
ATOM     10  C   UNL     1       0.948   9.668  19.088  0.00  0.00    +0.000 A 
ATOM     11  C   UNL     1       1.552   9.230  17.905  0.00  0.00    +0.000 A 
ATOM     12  C   UNL     1       2.285   8.054  17.902  0.00  0.00    +0.000 A 
ATOM     13  C   UNL     1       2.428   7.307  19.079  0.00  0.00    +0.000 A 
ATOM     14  C   UNL     1       1.783   7.753  20.253  0.00  0.00    +0.000 A 
ATOM     15  C   UNL     1       1.035   8.948  20.271  0.00  0.00    +0.000 A 
ATOM     16  C   UNL     1       0.394   9.390  21.542  0.00  0.00    +0.000 C 
ATOM     17  O   UNL     1       0.551   8.707  22.551  0.00  0.00    +0.000 OA
ENDROOT
BRANCH   1  20
ATOM     18  C   UNL     1      -4.468  15.600  20.736  0.00  0.00    +0.000 C 
ATOM     19  N   UNL     1      -3.516  14.518  20.727  0.00  0.00    +0.000 N 
ATOM     20  C   UNL     1      -2.896  14.162  21.905  0.00  0.00    +0.000 C 
ATOM     21  O   UNL     1      -3.060  14.765  22.960  0.00  0.00    +0.000 OA
ATOM     22  H   UNL     1      -3.524  13.873  19.950  0.00  0.00    +0.000 HD
ENDBRANCH   1  20
BRANCH  13  23
ATOM     23  C   UNL     1       3.298   6.067  19.042  0.00  0.00    +0.000 C 
ATOM     24  C   UNL     1       2.518   4.813  18.666  0.00  0.00    +0.000 C 
BRANCH  23  25
ATOM     25  O   UNL     1       4.386   6.263  18.150  0.00  0.00    +0.000 OA
ATOM     26  H   UNL     1       4.465   7.214  17.977  0.00  0.00    +0.000 HD
ENDBRANCH  23  25
ENDBRANCH  13  23
TORSDOF 3
ENDMDL
MODEL 9
REMARK VINA RESULT:      -7.0      2.645      7.476
REMARK  Name = 
REMARK  5 active torsions:
REMARK  status: ('A' for Active; 'I' for Inactive)
REMARK    1  A    between atoms: C_1  and  N_2
REMARK    2  A    between atoms: C_3  and  C_5
REMARK    3  A    between atoms: C_17  and  C_18
REMARK    4  A    between atoms: C_18  and  C_19
REMARK    5  A    between atoms: C_18  and  O_20
REMARK                            x       y       z     vdW  Elec       q    Type
REMARK                         _______ _______ _______ _____ _____    ______ ____
ROOT
ATOM      1  C   UNL     1       0.036  12.901  21.020  0.00  0.00    +0.000 A 
ATOM      2  C   UNL     1       0.385  13.138  19.687  0.00  0.00    +0.000 A 
ATOM      3  C   UNL     1       0.900  12.090  18.899  0.00  0.00    +0.000 A 
ATOM      4  C   UNL     1       1.064  10.795  19.427  0.00  0.00    +0.000 A 
ATOM      5  C   UNL     1       0.700  10.591  20.749  0.00  0.00    +0.000 A 
ATOM      6  C   UNL     1       0.201  11.624  21.549  0.00  0.00    +0.000 A 
ATOM      7  S   UNL     1       0.825   9.022  21.486  0.00  0.00    +0.000 S 
ATOM      8  O   UNL     1      -0.535   8.555  21.674  0.00  0.00    +0.000 OA
ATOM      9  O   UNL     1       1.752   9.158  22.590  0.00  0.00    +0.000 OA
ATOM     10  C   UNL     1       1.563   7.928  20.355  0.00  0.00    +0.000 A 
ATOM     11  C   UNL     1       1.811   6.628  20.804  0.00  0.00    +0.000 A 
ATOM     12  C   UNL     1       2.354   5.693  19.936  0.00  0.00    +0.000 A 
ATOM     13  C   UNL     1       2.650   6.044  18.613  0.00  0.00    +0.000 A 
ATOM     14  C   UNL     1       2.420   7.372  18.191  0.00  0.00    +0.000 A 
ATOM     15  C   UNL     1       1.867   8.333  19.063  0.00  0.00    +0.000 A 
ATOM     16  C   UNL     1       1.621   9.716  18.562  0.00  0.00    +0.000 C 
ATOM     17  O   UNL     1       1.890   9.978  17.393  0.00  0.00    +0.000 OA
ENDROOT
BRANCH   1  20
ATOM     18  C   UNL     1      -1.461  14.499  24.094  0.00  0.00    +0.000 C 
ATOM     19  N   UNL     1      -1.084  13.523  23.103  0.00  0.00    +0.000 N 
ATOM     20  C   UNL     1      -0.475  13.947  21.943  0.00  0.00    +0.000 C 
ATOM     21  O   UNL     1      -0.295  15.130  21.672  0.00  0.00    +0.000 OA
ATOM     22  H   UNL     1      -1.013  12.554  23.381  0.00  0.00    +0.000 HD
ENDBRANCH   1  20
BRANCH  13  23
ATOM     23  C   UNL     1       3.175   4.968  17.684  0.00  0.00    +0.000 C 
ATOM     24  C   UNL     1       4.469   4.339  18.186  0.00  0.00    +0.000 C 
BRANCH  23  25
ATOM     25  O   UNL     1       2.182   3.973  17.483  0.00  0.00    +0.000 OA
ATOM     26  H   UNL     1       1.465   4.364  16.958  0.00  0.00    +0.000 HD
ENDBRANCH  23  25
ENDBRANCH  13  23
TORSDOF 3
ENDMDL
