MODEL 1
REMARK VINA RESULT:      -7.7      0.000      0.000
REMARK  Name = 
REMARK  5 active torsions:
REMARK  status: ('A' for Active; 'I' for Inactive)
REMARK    1  A    between atoms: O5*_1  and  C5*_2
REMARK    2  A    between atoms: C5*_2  and  C4*_3
REMARK    3  A    between atoms: C1*_5  and  N_6
REMARK    4  A    between atoms: C_15  and  O_16
REMARK    5  A    between atoms: C3*_18  and  O3*_19
REMARK                            x       y       z     vdW  Elec       q    Type
REMARK                         _______ _______ _______ _____ _____    ______ ____
ROOT
ATOM      1  N   UNL     1       4.125   5.019  18.721  0.00  0.00    +0.000 N 
ATOM      2  C   UNL     1       3.436   6.095  19.202  0.00  0.00    +0.000 A 
ATOM      3  N   UNL     1       2.411   5.733  19.940  0.00  0.00    +0.000 NA
ATOM      4  C   UNL     1       2.427   4.351  19.917  0.00  0.00    +0.000 A 
ATOM      5  C   UNL     1       3.484   3.880  19.155  0.00  0.00    +0.000 A 
ATOM      6  N   UNL     1       3.908   2.640  18.815  0.00  0.00    +0.000 NA
ATOM      7  C   UNL     1       2.985   1.762  18.616  0.00  0.00    +0.000 C 
ATOM      8  N   UNL     1       1.616   1.830  18.723  0.00  0.00    +0.000 N 
ATOM      9  C   UNL     1       0.947   2.253  19.963  0.00  0.00    +0.000 C 
ATOM     10  C   UNL     1       1.460   3.522  20.686  0.00  0.00    +0.000 C 
ATOM     11  H   UNL     1       1.139   1.027  18.322  0.00  0.00    +0.000 HD
ENDROOT
BRANCH   1  14
ATOM     12  C4* UNL     1       7.600   5.327  18.102  0.00  0.00    +0.000 C 
ATOM     13  O4* UNL     1       6.460   4.553  18.555  0.00  0.00    +0.000 OA
ATOM     14  C1* UNL     1       5.285   5.029  17.857  0.00  0.00    +0.000 C 
ATOM     15  C2* UNL     1       5.621   6.398  17.294  0.00  0.00    +0.000 C 
ATOM     16  C3* UNL     1       7.092   6.248  16.991  0.00  0.00    +0.000 C 
BRANCH  16  17
ATOM     17  O3* UNL     1       7.245   5.620  15.710  0.00  0.00    +0.000 OA
ATOM     18  H3* UNL     1       7.137   4.659  15.808  0.00  0.00    +0.000 HD
ENDBRANCH  16  17
BRANCH  12  19
ATOM     19  C5* UNL     1       8.212   6.073  19.292  0.00  0.00    +0.000 C 
BRANCH  19  20
ATOM     20  O5* UNL     1       7.897   5.444  20.530  0.00  0.00    +0.000 OA
ATOM     21  H5* UNL     1       7.462   6.112  21.089  0.00  0.00    +0.000 HD
ENDBRANCH  19  20
ENDBRANCH  12  19
ENDBRANCH   1  14
BRANCH  10  22
ATOM     22  O   UNL     1       2.020   3.113  21.951  0.00  0.00    +0.000 OA
ATOM     23  H   UNL     1       1.549   2.290  22.193  0.00  0.00    +0.000 HD
ENDBRANCH  10  22
TORSDOF 5
ENDMDL
MODEL 2
REMARK VINA RESULT:      -7.6      1.304      1.550
REMARK  Name = 
REMARK  5 active torsions:
REMARK  status: ('A' for Active; 'I' for Inactive)
REMARK    1  A    between atoms: O5*_1  and  C5*_2
REMARK    2  A    between atoms: C5*_2  and  C4*_3
REMARK    3  A    between atoms: C1*_5  and  N_6
REMARK    4  A    between atoms: C_15  and  O_16
REMARK    5  A    between atoms: C3*_18  and  O3*_19
REMARK                            x       y       z     vdW  Elec       q    Type
REMARK                         _______ _______ _______ _____ _____    ______ ____
ROOT
ATOM      1  N   UNL     1       4.346   4.776  19.152  0.00  0.00    +0.000 N 
ATOM      2  C   UNL     1       3.604   5.910  19.317  0.00  0.00    +0.000 A 
ATOM      3  N   UNL     1       2.340   5.641  19.557  0.00  0.00    +0.000 NA
ATOM      4  C   UNL     1       2.259   4.261  19.527  0.00  0.00    +0.000 A 
ATOM      5  C   UNL     1       3.497   3.697  19.266  0.00  0.00    +0.000 A 
ATOM      6  N   UNL     1       3.929   2.423  19.119  0.00  0.00    +0.000 NA
ATOM      7  C   UNL     1       3.107   1.611  18.544  0.00  0.00    +0.000 C 
ATOM      8  N   UNL     1       1.826   1.784  18.073  0.00  0.00    +0.000 N 
ATOM      9  C   UNL     1       0.737   2.281  18.929  0.00  0.00    +0.000 C 
ATOM     10  C   UNL     1       1.000   3.523  19.815  0.00  0.00    +0.000 C 
ATOM     11  H   UNL     1       1.499   1.011  17.501  0.00  0.00    +0.000 HD
ENDROOT
BRANCH   1  14
ATOM     12  C4* UNL     1       7.474   6.150  18.214  0.00  0.00    +0.000 C 
ATOM     13  O4* UNL     1       6.452   5.898  19.211  0.00  0.00    +0.000 OA
ATOM     14  C1* UNL     1       5.757   4.681  18.847  0.00  0.00    +0.000 C 
ATOM     15  C2* UNL     1       6.053   4.416  17.383  0.00  0.00    +0.000 C 
ATOM     16  C3* UNL     1       7.456   4.959  17.255  0.00  0.00    +0.000 C 
BRANCH  16  17
ATOM     17  O3* UNL     1       8.388   3.955  17.685  0.00  0.00    +0.000 OA
ATOM     18  H3* UNL     1       8.148   3.103  17.284  0.00  0.00    +0.000 HD
ENDBRANCH  16  17
BRANCH  12  19
ATOM     19  C5* UNL     1       7.197   7.495  17.533  0.00  0.00    +0.000 C 
BRANCH  19  20
ATOM     20  O5* UNL     1       8.119   8.498  17.949  0.00  0.00    +0.000 OA
ATOM     21  H5* UNL     1       8.239   8.397  18.910  0.00  0.00    +0.000 HD
ENDBRANCH  19  20
ENDBRANCH  12  19
ENDBRANCH   1  14
BRANCH  10  22
ATOM     22  O   UNL     1       0.951   3.100  21.193  0.00  0.00    +0.000 OA
ATOM     23  H   UNL     1       0.118   2.595  21.283  0.00  0.00    +0.000 HD
ENDBRANCH  10  22
TORSDOF 5
ENDMDL
MODEL 3
REMARK VINA RESULT:      -7.3      1.961      5.997
REMARK  Name = 
REMARK  5 active torsions:
REMARK  status: ('A' for Active; 'I' for Inactive)
REMARK    1  A    between atoms: O5*_1  and  C5*_2
REMARK    2  A    between atoms: C5*_2  and  C4*_3
REMARK    3  A    between atoms: C1*_5  and  N_6
REMARK    4  A    between atoms: C_15  and  O_16
REMARK    5  A    between atoms: C3*_18  and  O3*_19
REMARK                            x       y       z     vdW  Elec       q    Type
REMARK                         _______ _______ _______ _____ _____    ______ ____
ROOT
ATOM      1  N   UNL     1       4.024   5.219  18.960  0.00  0.00    +0.000 N 
ATOM      2  C   UNL     1       3.316   6.119  18.218  0.00  0.00    +0.000 A 
ATOM      3  N   UNL     1       4.095   6.845  17.449  0.00  0.00    +0.000 NA
ATOM      4  C   UNL     1       5.376   6.403  17.724  0.00  0.00    +0.000 A 
ATOM      5  C   UNL     1       5.359   5.393  18.672  0.00  0.00    +0.000 A 
ATOM      6  N   UNL     1       6.328   4.665  19.275  0.00  0.00    +0.000 NA
ATOM      7  C   UNL     1       7.429   5.288  19.526  0.00  0.00    +0.000 C 
ATOM      8  N   UNL     1       7.837   6.574  19.257  0.00  0.00    +0.000 N 
ATOM      9  C   UNL     1       7.834   7.128  17.894  0.00  0.00    +0.000 C 
ATOM     10  C   UNL     1       6.576   6.924  17.015  0.00  0.00    +0.000 C 
ATOM     11  H   UNL     1       8.691   6.836  19.741  0.00  0.00    +0.000 HD
ENDROOT
BRANCH   1  14
ATOM     12  C4* UNL     1       1.939   2.536  19.964  0.00  0.00    +0.000 C 
ATOM     13  O4* UNL     1       3.130   3.032  19.302  0.00  0.00    +0.000 OA
ATOM     14  C1* UNL     1       3.511   4.278  19.932  0.00  0.00    +0.000 C 
ATOM     15  C2* UNL     1       2.301   4.783  20.696  0.00  0.00    +0.000 C 
ATOM     16  C3* UNL     1       1.653   3.488  21.125  0.00  0.00    +0.000 C 
BRANCH  16  17
ATOM     17  O3* UNL     1       2.288   3.022  22.325  0.00  0.00    +0.000 OA
ATOM     18  H3* UNL     1       2.872   2.275  22.109  0.00  0.00    +0.000 HD
ENDBRANCH  16  17
BRANCH  12  19
ATOM     19  C5* UNL     1       0.795   2.440  18.947  0.00  0.00    +0.000 C 
BRANCH  19  20
ATOM     20  O5* UNL     1       1.035   3.254  17.803  0.00  0.00    +0.000 OA
ATOM     21  H5* UNL     1       1.747   2.829  17.293  0.00  0.00    +0.000 HD
ENDBRANCH  19  20
ENDBRANCH  12  19
ENDBRANCH   1  14
BRANCH  10  22
ATOM     22  O   UNL     1       6.941   6.065  15.915  0.00  0.00    +0.000 OA
ATOM     23  H   UNL     1       7.475   5.347  16.309  0.00  0.00    +0.000 HD
ENDBRANCH  10  22
TORSDOF 5
ENDMDL
MODEL 4
REMARK VINA RESULT:      -7.1      0.974      1.034
REMARK  Name = 
REMARK  5 active torsions:
REMARK  status: ('A' for Active; 'I' for Inactive)
REMARK    1  A    between atoms: O5*_1  and  C5*_2
REMARK    2  A    between atoms: C5*_2  and  C4*_3
REMARK    3  A    between atoms: C1*_5  and  N_6
REMARK    4  A    between atoms: C_15  and  O_16
REMARK    5  A    between atoms: C3*_18  and  O3*_19
REMARK                            x       y       z     vdW  Elec       q    Type
REMARK                         _______ _______ _______ _____ _____    ______ ____
ROOT
ATOM      1  N   UNL     1       4.498   4.809  18.837  0.00  0.00    +0.000 N 
ATOM      2  C   UNL     1       3.894   5.933  19.321  0.00  0.00    +0.000 A 
ATOM      3  N   UNL     1       2.869   5.648  20.093  0.00  0.00    +0.000 NA
ATOM      4  C   UNL     1       2.796   4.268  20.091  0.00  0.00    +0.000 A 
ATOM      5  C   UNL     1       3.797   3.720  19.306  0.00  0.00    +0.000 A 
ATOM      6  N   UNL     1       4.132   2.451  18.973  0.00  0.00    +0.000 NA
ATOM      7  C   UNL     1       3.149   1.631  18.814  0.00  0.00    +0.000 C 
ATOM      8  N   UNL     1       1.790   1.789  18.959  0.00  0.00    +0.000 N 
ATOM      9  C   UNL     1       1.186   2.271  20.211  0.00  0.00    +0.000 C 
ATOM     10  C   UNL     1       1.801   3.513  20.900  0.00  0.00    +0.000 C 
ATOM     11  H   UNL     1       1.252   1.013  18.583  0.00  0.00    +0.000 HD
ENDROOT
BRANCH   1  14
ATOM     12  C4* UNL     1       7.546   6.010  17.489  0.00  0.00    +0.000 C 
ATOM     13  O4* UNL     1       6.808   5.328  18.535  0.00  0.00    +0.000 OA
ATOM     14  C1* UNL     1       5.630   4.732  17.940  0.00  0.00    +0.000 C 
ATOM     15  C2* UNL     1       5.405   5.419  16.606  0.00  0.00    +0.000 C 
ATOM     16  C3* UNL     1       6.821   5.715  16.175  0.00  0.00    +0.000 C 
BRANCH  16  17
ATOM     17  O3* UNL     1       7.374   4.549  15.548  0.00  0.00    +0.000 OA
ATOM     18  H3* UNL     1       7.792   4.804  14.707  0.00  0.00    +0.000 HD
ENDBRANCH  16  17
BRANCH  12  19
ATOM     19  C5* UNL     1       7.637   7.503  17.823  0.00  0.00    +0.000 C 
BRANCH  19  20
ATOM     20  O5* UNL     1       8.575   7.756  18.865  0.00  0.00    +0.000 OA
ATOM     21  H5* UNL     1       8.784   8.706  18.839  0.00  0.00    +0.000 HD
ENDBRANCH  19  20
ENDBRANCH  12  19
ENDBRANCH   1  14
BRANCH  10  22
ATOM     22  O   UNL     1       2.369   3.087  22.154  0.00  0.00    +0.000 OA
ATOM     23  H   UNL     1       1.608   2.933  22.749  0.00  0.00    +0.000 HD
ENDBRANCH  10  22
TORSDOF 5
ENDMDL
MODEL 5
REMARK VINA RESULT:      -7.0      1.835      3.095
REMARK  Name = 
REMARK  5 active torsions:
REMARK  status: ('A' for Active; 'I' for Inactive)
REMARK    1  A    between atoms: O5*_1  and  C5*_2
REMARK    2  A    between atoms: C5*_2  and  C4*_3
REMARK    3  A    between atoms: C1*_5  and  N_6
REMARK    4  A    between atoms: C_15  and  O_16
REMARK    5  A    between atoms: C3*_18  and  O3*_19
REMARK                            x       y       z     vdW  Elec       q    Type
REMARK                         _______ _______ _______ _____ _____    ______ ____
ROOT
ATOM      1  N   UNL     1       3.920   4.088  17.957  0.00  0.00    +0.000 N 
ATOM      2  C   UNL     1       4.033   2.812  17.485  0.00  0.00    +0.000 A 
ATOM      3  N   UNL     1       3.178   1.996  18.061  0.00  0.00    +0.000 NA
ATOM      4  C   UNL     1       2.492   2.784  18.966  0.00  0.00    +0.000 A 
ATOM      5  C   UNL     1       2.943   4.093  18.927  0.00  0.00    +0.000 A 
ATOM      6  N   UNL     1       2.616   5.213  19.614  0.00  0.00    +0.000 NA
ATOM      7  C   UNL     1       2.304   5.044  20.854  0.00  0.00    +0.000 C 
ATOM      8  N   UNL     1       2.199   3.911  21.627  0.00  0.00    +0.000 N 
ATOM      9  C   UNL     1       1.327   2.787  21.255  0.00  0.00    +0.000 C 
ATOM     10  C   UNL     1       1.373   2.264  19.799  0.00  0.00    +0.000 C 
ATOM     11  H   UNL     1       2.116   4.108  22.621  0.00  0.00    +0.000 HD
ENDROOT
BRANCH   1  14
ATOM     12  C4* UNL     1       6.172   5.818  15.839  0.00  0.00    +0.000 C 
ATOM     13  O4* UNL     1       4.839   5.336  16.141  0.00  0.00    +0.000 OA
ATOM     14  C1* UNL     1       4.708   5.241  17.580  0.00  0.00    +0.000 C 
ATOM     15  C2* UNL     1       6.112   5.242  18.158  0.00  0.00    +0.000 C 
ATOM     16  C3* UNL     1       6.842   6.128  17.178  0.00  0.00    +0.000 C 
BRANCH  16  17
ATOM     17  O3* UNL     1       6.629   7.501  17.540  0.00  0.00    +0.000 OA
ATOM     18  H3* UNL     1       7.389   8.031  17.246  0.00  0.00    +0.000 HD
ENDBRANCH  16  17
BRANCH  12  19
ATOM     19  C5* UNL     1       6.915   4.768  15.005  0.00  0.00    +0.000 C 
BRANCH  19  20
ATOM     20  O5* UNL     1       7.806   5.369  14.070  0.00  0.00    +0.000 OA
ATOM     21  H5* UNL     1       8.138   4.659  13.493  0.00  0.00    +0.000 HD
ENDBRANCH  19  20
ENDBRANCH  12  19
ENDBRANCH   1  14
BRANCH  10  22
ATOM     22  O   UNL     1       0.098   2.547  19.187  0.00  0.00    +0.000 OA
ATOM     23  H   UNL     1      -0.316   3.234  19.749  0.00  0.00    +0.000 HD
ENDBRANCH  10  22
TORSDOF 5
ENDMDL
MODEL 6
REMARK VINA RESULT:      -6.9      1.460      2.269
REMARK  Name = 
REMARK  5 active torsions:
REMARK  status: ('A' for Active; 'I' for Inactive)
REMARK    1  A    between atoms: O5*_1  and  C5*_2
REMARK    2  A    between atoms: C5*_2  and  C4*_3
REMARK    3  A    between atoms: C1*_5  and  N_6
REMARK    4  A    between atoms: C_15  and  O_16
REMARK    5  A    between atoms: C3*_18  and  O3*_19
REMARK                            x       y       z     vdW  Elec       q    Type
REMARK                         _______ _______ _______ _____ _____    ______ ____
ROOT
ATOM      1  N   UNL     1       3.888   5.623  18.731  0.00  0.00    +0.000 N 
ATOM      2  C   UNL     1       2.979   6.429  19.353  0.00  0.00    +0.000 A 
ATOM      3  N   UNL     1       2.115   5.740  20.064  0.00  0.00    +0.000 NA
ATOM      4  C   UNL     1       2.475   4.418  19.876  0.00  0.00    +0.000 A 
ATOM      5  C   UNL     1       3.575   4.318  19.040  0.00  0.00    +0.000 A 
ATOM      6  N   UNL     1       4.277   3.271  18.545  0.00  0.00    +0.000 NA
ATOM      7  C   UNL     1       3.593   2.215  18.264  0.00  0.00    +0.000 C 
ATOM      8  N   UNL     1       2.257   1.922  18.408  0.00  0.00    +0.000 N 
ATOM      9  C   UNL     1       1.569   2.022  19.705  0.00  0.00    +0.000 C 
ATOM     10  C   UNL     1       1.786   3.292  20.562  0.00  0.00    +0.000 C 
ATOM     11  H   UNL     1       1.976   1.073  17.925  0.00  0.00    +0.000 HD
ENDROOT
BRANCH   1  14
ATOM     12  C4* UNL     1       5.988   5.182  15.911  0.00  0.00    +0.000 C 
ATOM     13  O4* UNL     1       4.719   5.574  16.494  0.00  0.00    +0.000 OA
ATOM     14  C1* UNL     1       4.963   6.021  17.849  0.00  0.00    +0.000 C 
ATOM     15  C2* UNL     1       6.324   5.489  18.258  0.00  0.00    +0.000 C 
ATOM     16  C3* UNL     1       7.066   5.513  16.944  0.00  0.00    +0.000 C 
BRANCH  16  17
ATOM     17  O3* UNL     1       7.585   6.833  16.722  0.00  0.00    +0.000 OA
ATOM     18  H3* UNL     1       7.417   7.093  15.801  0.00  0.00    +0.000 HD
ENDBRANCH  16  17
BRANCH  12  19
ATOM     19  C5* UNL     1       5.934   3.699  15.528  0.00  0.00    +0.000 C 
BRANCH  19  20
ATOM     20  O5* UNL     1       6.329   3.488  14.175  0.00  0.00    +0.000 OA
ATOM     21  H5* UNL     1       6.605   4.350  13.819  0.00  0.00    +0.000 HD
ENDBRANCH  19  20
ENDBRANCH  12  19
ENDBRANCH   1  14
BRANCH  10  22
ATOM     22  O   UNL     1       2.494   2.902  21.757  0.00  0.00    +0.000 OA
ATOM     23  H   UNL     1       3.324   2.487  21.446  0.00  0.00    +0.000 HD
ENDBRANCH  10  22
TORSDOF 5
ENDMDL
MODEL 7
REMARK VINA RESULT:      -6.8      1.972      6.131
REMARK  Name = 
REMARK  5 active torsions:
REMARK  status: ('A' for Active; 'I' for Inactive)
REMARK    1  A    between atoms: O5*_1  and  C5*_2
REMARK    2  A    between atoms: C5*_2  and  C4*_3
REMARK    3  A    between atoms: C1*_5  and  N_6
REMARK    4  A    between atoms: C_15  and  O_16
REMARK    5  A    between atoms: C3*_18  and  O3*_19
REMARK                            x       y       z     vdW  Elec       q    Type
REMARK                         _______ _______ _______ _____ _____    ______ ____
ROOT
ATOM      1  N   UNL     1       4.256   3.916  18.358  0.00  0.00    +0.000 N 
ATOM      2  C   UNL     1       3.695   3.968  17.115  0.00  0.00    +0.000 A 
ATOM      3  N   UNL     1       4.511   4.491  16.228  0.00  0.00    +0.000 NA
ATOM      4  C   UNL     1       5.652   4.812  16.941  0.00  0.00    +0.000 A 
ATOM      5  C   UNL     1       5.514   4.471  18.276  0.00  0.00    +0.000 A 
ATOM      6  N   UNL     1       6.318   4.596  19.358  0.00  0.00    +0.000 NA
ATOM      7  C   UNL     1       7.051   5.657  19.397  0.00  0.00    +0.000 C 
ATOM      8  N   UNL     1       7.207   6.697  18.510  0.00  0.00    +0.000 N 
ATOM      9  C   UNL     1       7.597   6.479  17.109  0.00  0.00    +0.000 C 
ATOM     10  C   UNL     1       6.868   5.380  16.299  0.00  0.00    +0.000 C 
ATOM     11  H   UNL     1       7.717   7.486  18.900  0.00  0.00    +0.000 HD
ENDROOT
BRANCH   1  14
ATOM     12  C4* UNL     1       1.623   2.431  20.206  0.00  0.00    +0.000 C 
ATOM     13  O4* UNL     1       2.765   2.319  19.319  0.00  0.00    +0.000 OA
ATOM     14  C1* UNL     1       3.651   3.433  19.580  0.00  0.00    +0.000 C 
ATOM     15  C2* UNL     1       2.844   4.483  20.323  0.00  0.00    +0.000 C 
ATOM     16  C3* UNL     1       1.895   3.624  21.123  0.00  0.00    +0.000 C 
BRANCH  16  17
ATOM     17  O3* UNL     1       2.551   3.194  22.325  0.00  0.00    +0.000 OA
ATOM     18  H3* UNL     1       1.932   3.264  23.071  0.00  0.00    +0.000 HD
ENDBRANCH  16  17
BRANCH  12  19
ATOM     19  C5* UNL     1       0.344   2.570  19.373  0.00  0.00    +0.000 C 
BRANCH  19  20
ATOM     20  O5* UNL     1       0.359   1.715  18.234  0.00  0.00    +0.000 OA
ATOM     21  H5* UNL     1      -0.256   2.094  17.583  0.00  0.00    +0.000 HD
ENDBRANCH  19  20
ENDBRANCH  12  19
ENDBRANCH   1  14
BRANCH  10  22
ATOM     22  O   UNL     1       7.826   4.345  15.997  0.00  0.00    +0.000 OA
ATOM     23  H   UNL     1       8.019   4.436  15.043  0.00  0.00    +0.000 HD
ENDBRANCH  10  22
TORSDOF 5
ENDMDL
MODEL 8
REMARK VINA RESULT:      -6.7      2.007      5.722
REMARK  Name = 
REMARK  5 active torsions:
REMARK  status: ('A' for Active; 'I' for Inactive)
REMARK    1  A    between atoms: O5*_1  and  C5*_2
REMARK    2  A    between atoms: C5*_2  and  C4*_3
REMARK    3  A    between atoms: C1*_5  and  N_6
REMARK    4  A    between atoms: C_15  and  O_16
REMARK    5  A    between atoms: C3*_18  and  O3*_19
REMARK                            x       y       z     vdW  Elec       q    Type
REMARK                         _______ _______ _______ _____ _____    ______ ____
ROOT
ATOM      1  N   UNL     1       4.155   4.244  18.621  0.00  0.00    +0.000 N 
ATOM      2  C   UNL     1       4.989   4.439  19.684  0.00  0.00    +0.000 A 
ATOM      3  N   UNL     1       6.152   4.926  19.315  0.00  0.00    +0.000 NA
ATOM      4  C   UNL     1       6.072   5.033  17.939  0.00  0.00    +0.000 A 
ATOM      5  C   UNL     1       4.837   4.605  17.479  0.00  0.00    +0.000 A 
ATOM      6  N   UNL     1       4.287   4.496  16.247  0.00  0.00    +0.000 NA
ATOM      7  C   UNL     1       5.091   4.153  15.299  0.00  0.00    +0.000 C 
ATOM      8  N   UNL     1       6.444   3.907  15.287  0.00  0.00    +0.000 N 
ATOM      9  C   UNL     1       7.424   4.897  15.760  0.00  0.00    +0.000 C 
ATOM     10  C   UNL     1       7.166   5.608  17.111  0.00  0.00    +0.000 C 
ATOM     11  H   UNL     1       6.768   3.474  14.427  0.00  0.00    +0.000 HD
ENDROOT
BRANCH   1  14
ATOM     12  C4* UNL     1       1.200   3.179  20.260  0.00  0.00    +0.000 C 
ATOM     13  O4* UNL     1       2.049   4.236  19.744  0.00  0.00    +0.000 OA
ATOM     14  C1* UNL     1       2.815   3.701  18.638  0.00  0.00    +0.000 C 
ATOM     15  C2* UNL     1       2.766   2.188  18.750  0.00  0.00    +0.000 C 
ATOM     16  C3* UNL     1       1.394   1.972  19.342  0.00  0.00    +0.000 C 
BRANCH  16  17
ATOM     17  O3* UNL     1       0.422   1.983  18.286  0.00  0.00    +0.000 OA
ATOM     18  H3* UNL     1       0.829   2.341  17.479  0.00  0.00    +0.000 HD
ENDBRANCH  16  17
BRANCH  12  19
ATOM     19  C5* UNL     1       1.562   2.906  21.724  0.00  0.00    +0.000 C 
BRANCH  19  20
ATOM     20  O5* UNL     1       2.919   2.494  21.866  0.00  0.00    +0.000 OA
ATOM     21  H5* UNL     1       3.321   3.062  22.546  0.00  0.00    +0.000 HD
ENDBRANCH  19  20
ENDBRANCH  12  19
ENDBRANCH   1  14
BRANCH  10  22
ATOM     22  O   UNL     1       6.931   7.004  16.837  0.00  0.00    +0.000 OA
ATOM     23  H   UNL     1       6.361   7.322  17.567  0.00  0.00    +0.000 HD
ENDBRANCH  10  22
TORSDOF 5
ENDMDL
MODEL 9
REMARK VINA RESULT:      -6.5      1.244      1.316
REMARK  Name = 
REMARK  5 active torsions:
REMARK  status: ('A' for Active; 'I' for Inactive)
REMARK    1  A    between atoms: O5*_1  and  C5*_2
REMARK    2  A    between atoms: C5*_2  and  C4*_3
REMARK    3  A    between atoms: C1*_5  and  N_6
REMARK    4  A    between atoms: C_15  and  O_16
REMARK    5  A    between atoms: C3*_18  and  O3*_19
REMARK                            x       y       z     vdW  Elec       q    Type
REMARK                         _______ _______ _______ _____ _____    ______ ____
ROOT
ATOM      1  N   UNL     1       3.317   5.341  18.604  0.00  0.00    +0.000 N 
ATOM      2  C   UNL     1       2.743   6.302  19.385  0.00  0.00    +0.000 A 
ATOM      3  N   UNL     1       2.048   5.783  20.372  0.00  0.00    +0.000 NA
ATOM      4  C   UNL     1       2.164   4.415  20.207  0.00  0.00    +0.000 A 
ATOM      5  C   UNL     1       2.946   4.113  19.104  0.00  0.00    +0.000 A 
ATOM      6  N   UNL     1       3.332   2.952  18.524  0.00  0.00    +0.000 NA
ATOM      7  C   UNL     1       2.467   1.996  18.545  0.00  0.00    +0.000 C 
ATOM      8  N   UNL     1       1.207   1.911  19.091  0.00  0.00    +0.000 N 
ATOM      9  C   UNL     1       0.951   2.173  20.515  0.00  0.00    +0.000 C 
ATOM     10  C   UNL     1       1.572   3.437  21.159  0.00  0.00    +0.000 C 
ATOM     11  H   UNL     1       0.690   1.091  18.785  0.00  0.00    +0.000 HD
ENDROOT
BRANCH   1  14
ATOM     12  C4* UNL     1       6.374   5.243  16.814  0.00  0.00    +0.000 C 
ATOM     13  O4* UNL     1       5.209   4.577  17.365  0.00  0.00    +0.000 OA
ATOM     14  C1* UNL     1       4.125   5.535  17.419  0.00  0.00    +0.000 C 
ATOM     15  C2* UNL     1       4.742   6.917  17.315  0.00  0.00    +0.000 C 
ATOM     16  C3* UNL     1       5.929   6.652  16.420  0.00  0.00    +0.000 C 
BRANCH  16  17
ATOM     17  O3* UNL     1       5.498   6.677  15.051  0.00  0.00    +0.000 OA
ATOM     18  H3* UNL     1       6.131   6.179  14.506  0.00  0.00    +0.000 HD
ENDBRANCH  16  17
BRANCH  12  19
ATOM     19  C5* UNL     1       7.507   5.219  17.846  0.00  0.00    +0.000 C 
BRANCH  19  20
ATOM     20  O5* UNL     1       8.304   4.044  17.729  0.00  0.00    +0.000 OA
ATOM     21  H5* UNL     1       8.726   4.070  16.852  0.00  0.00    +0.000 HD
ENDBRANCH  19  20
ENDBRANCH  12  19
ENDBRANCH   1  14
BRANCH  10  22
ATOM     22  O   UNL     1       2.545   3.004  22.131  0.00  0.00    +0.000 OA
ATOM     23  H   UNL     1       3.418   3.185  21.727  0.00  0.00    +0.000 HD
ENDBRANCH  10  22
TORSDOF 5
ENDMDL
