MODEL 1
REMARK VINA RESULT:      -7.3      0.000      0.000
REMARK  Name = 
REMARK  8 active torsions:
REMARK  status: ('A' for Active; 'I' for Inactive)
REMARK    1  A    between atoms: C_1  and  O_2
REMARK    2  A    between atoms: O_2  and  C_3
REMARK    3  A    between atoms: C_7  and  C_8
REMARK    4  A    between atoms: C_8  and  N_9
REMARK    5  A    between atoms: C_15  and  N_16
REMARK    6  A    between atoms: C_22  and  C_23
REMARK    7  A    between atoms: C_23  and  O_25
REMARK    8  A    between atoms: N_29  and  C_30
REMARK                            x       y       z     vdW  Elec       q    Type
REMARK                         _______ _______ _______ _____ _____    ______ ____
ROOT
ATOM      1  N   UNL     1       3.745   5.461  18.052  0.00  0.00    +0.000 N 
ATOM      2  C   UNL     1       3.076   4.259  17.898  0.00  0.00    +0.000 A 
ATOM      3  N   UNL     1       2.333   3.746  18.917  0.00  0.00    +0.000 N 
ATOM      4  C   UNL     1       1.192   2.892  18.588  0.00  0.00    +0.000 C 
ATOM      5  C   UNL     1       0.188   3.016  19.749  0.00  0.00    +0.000 C 
ATOM      6  C   UNL     1       0.809   2.700  21.120  0.00  0.00    +0.000 C 
ATOM      7  C   UNL     1       2.126   3.463  21.336  0.00  0.00    +0.000 C 
ATOM      8  C   UNL     1       3.033   3.235  20.112  0.00  0.00    +0.000 C 
ATOM      9  N   UNL     1       3.298   3.756  16.693  0.00  0.00    +0.000 NA
ATOM     10  C   UNL     1       4.286   4.544  16.157  0.00  0.00    +0.000 A 
ATOM     11  C   UNL     1       5.171   4.298  15.040  0.00  0.00    +0.000 A 
ATOM     12  C   UNL     1       4.767   3.716  13.844  0.00  0.00    +0.000 A 
ATOM     13  C   UNL     1       5.701   3.569  12.806  0.00  0.00    +0.000 A 
ATOM     14  C   UNL     1       7.050   3.923  12.997  0.00  0.00    +0.000 A 
ATOM     15  C   UNL     1       7.458   4.491  14.205  0.00  0.00    +0.000 A 
ATOM     16  C   UNL     1       6.508   4.739  15.197  0.00  0.00    +0.000 A 
ATOM     17  N   UNL     1       6.864   5.595  16.295  0.00  0.00    +0.000 N 
ATOM     18  C   UNL     1       7.761   4.980  17.267  0.00  0.00    +0.000 C 
ATOM     19  C   UNL     1       5.833   6.326  16.925  0.00  0.00    +0.000 A 
ATOM     20  O   UNL     1       6.014   7.408  17.473  0.00  0.00    +0.000 OA
ATOM     21  C   UNL     1       4.622   5.561  17.009  0.00  0.00    +0.000 A 
ENDROOT
BRANCH   7  22
ATOM     22  N   UNL     1       2.770   3.072  22.595  0.00  0.00    +0.000 NA
ATOM     23  H   UNL     1       3.557   2.450  22.419  0.00  0.00    +0.000 HD
ATOM     24  H   UNL     1       2.112   2.546  23.170  0.00  0.00    +0.000 HD
ENDBRANCH   7  22
BRANCH  13  25
ATOM     25  C   UNL     1       5.195   3.171  11.468  0.00  0.00    +0.000 C 
ATOM     26  O   UNL     1       4.360   3.820  10.864  0.00  0.00    +0.000 OA
BRANCH  25  27
ATOM     27  O   UNL     1       5.745   2.039  10.981  0.00  0.00    +0.000 OA
ATOM     28  H   UNL     1       5.739   1.279  11.590  0.00  0.00    +0.000 HD
ENDBRANCH  25  27
ENDBRANCH  13  25
BRANCH   1  29
ATOM     29  C   UNL     1       3.672   6.391  19.169  0.00  0.00    +0.000 C 
BRANCH  29  34
ATOM     30  C   UNL     1       0.952   8.925  19.996  0.00  0.00    +0.000 A 
ATOM     31  C   UNL     1       0.760   9.570  18.775  0.00  0.00    +0.000 A 
ATOM     32  C   UNL     1       1.521   9.210  17.666  0.00  0.00    +0.000 A 
ATOM     33  C   UNL     1       2.441   8.176  17.782  0.00  0.00    +0.000 A 
ATOM     34  C   UNL     1       2.656   7.509  18.997  0.00  0.00    +0.000 A 
ATOM     35  C   UNL     1       1.897   7.909  20.113  0.00  0.00    +0.000 A 
BRANCH  30  37
ATOM     36  C   UNL     1       0.625   9.268  22.320  0.00  0.00    +0.000 C 
ATOM     37  O   UNL     1       0.131   9.381  20.995  0.00  0.00    +0.000 OA
ENDBRANCH  30  37
ENDBRANCH  29  34
ENDBRANCH   1  29
TORSDOF 6
ENDMDL
MODEL 2
REMARK VINA RESULT:      -7.2      3.579      8.058
REMARK  Name = 
REMARK  8 active torsions:
REMARK  status: ('A' for Active; 'I' for Inactive)
REMARK    1  A    between atoms: C_1  and  O_2
REMARK    2  A    between atoms: O_2  and  C_3
REMARK    3  A    between atoms: C_7  and  C_8
REMARK    4  A    between atoms: C_8  and  N_9
REMARK    5  A    between atoms: C_15  and  N_16
REMARK    6  A    between atoms: C_22  and  C_23
REMARK    7  A    between atoms: C_23  and  O_25
REMARK    8  A    between atoms: N_29  and  C_30
REMARK                            x       y       z     vdW  Elec       q    Type
REMARK                         _______ _______ _______ _____ _____    ______ ____
ROOT
ATOM      1  N   UNL     1       2.791   6.672  18.732  0.00  0.00    +0.000 N 
ATOM      2  C   UNL     1       2.245   5.851  19.704  0.00  0.00    +0.000 A 
ATOM      3  N   UNL     1       2.430   4.503  19.653  0.00  0.00    +0.000 N 
ATOM      4  C   UNL     1       2.422   3.749  20.906  0.00  0.00    +0.000 C 
ATOM      5  C   UNL     1       3.281   2.492  20.681  0.00  0.00    +0.000 C 
ATOM      6  C   UNL     1       2.828   1.661  19.468  0.00  0.00    +0.000 C 
ATOM      7  C   UNL     1       2.642   2.535  18.218  0.00  0.00    +0.000 C 
ATOM      8  C   UNL     1       1.754   3.739  18.586  0.00  0.00    +0.000 C 
ATOM      9  N   UNL     1       1.564   6.567  20.586  0.00  0.00    +0.000 NA
ATOM     10  C   UNL     1       1.504   7.828  20.048  0.00  0.00    +0.000 A 
ATOM     11  C   UNL     1       0.629   8.934  20.363  0.00  0.00    +0.000 A 
ATOM     12  C   UNL     1       0.271   9.297  21.656  0.00  0.00    +0.000 A 
ATOM     13  C   UNL     1      -0.548  10.421  21.850  0.00  0.00    +0.000 A 
ATOM     14  C   UNL     1      -1.076  11.124  20.749  0.00  0.00    +0.000 A 
ATOM     15  C   UNL     1      -0.730  10.748  19.450  0.00  0.00    +0.000 A 
ATOM     16  C   UNL     1       0.172   9.699  19.262  0.00  0.00    +0.000 A 
ATOM     17  N   UNL     1       0.761   9.521  17.962  0.00  0.00    +0.000 N 
ATOM     18  C   UNL     1      -0.145   8.960  16.967  0.00  0.00    +0.000 C 
ATOM     19  C   UNL     1       2.043   8.933  17.893  0.00  0.00    +0.000 A 
ATOM     20  O   UNL     1       2.845   9.174  16.997  0.00  0.00    +0.000 OA
ATOM     21  C   UNL     1       2.200   7.896  18.871  0.00  0.00    +0.000 A 
ENDROOT
BRANCH   7  22
ATOM     22  N   UNL     1       2.103   1.758  17.097  0.00  0.00    +0.000 NA
ATOM     23  H   UNL     1       2.079   2.319  16.248  0.00  0.00    +0.000 HD
ATOM     24  H   UNL     1       1.138   1.493  17.294  0.00  0.00    +0.000 HD
ENDBRANCH   7  22
BRANCH  13  25
ATOM     25  C   UNL     1      -0.718  10.927  23.234  0.00  0.00    +0.000 C 
ATOM     26  O   UNL     1      -1.134  12.046  23.477  0.00  0.00    +0.000 OA
BRANCH  25  27
ATOM     27  O   UNL     1      -0.381  10.041  24.195  0.00  0.00    +0.000 OA
ATOM     28  H   UNL     1      -1.096   9.442  24.476  0.00  0.00    +0.000 HD
ENDBRANCH  25  27
ENDBRANCH  13  25
BRANCH   1  29
ATOM     29  C   UNL     1       3.703   6.306  17.658  0.00  0.00    +0.000 C 
BRANCH  29  34
ATOM     30  C   UNL     1       7.326   7.470  17.794  0.00  0.00    +0.000 A 
ATOM     31  C   UNL     1       7.906   6.552  18.668  0.00  0.00    +0.000 A 
ATOM     32  C   UNL     1       7.130   5.551  19.246  0.00  0.00    +0.000 A 
ATOM     33  C   UNL     1       5.786   5.455  18.908  0.00  0.00    +0.000 A 
ATOM     34  C   UNL     1       5.176   6.364  18.031  0.00  0.00    +0.000 A 
ATOM     35  C   UNL     1       5.972   7.386  17.482  0.00  0.00    +0.000 A 
BRANCH  30  37
ATOM     36  C   UNL     1       8.540   9.474  18.161  0.00  0.00    +0.000 C 
ATOM     37  O   UNL     1       8.210   8.395  17.301  0.00  0.00    +0.000 OA
ENDBRANCH  30  37
ENDBRANCH  29  34
ENDBRANCH   1  29
TORSDOF 6
ENDMDL
MODEL 3
REMARK VINA RESULT:      -6.7      6.587     10.369
REMARK  Name = 
REMARK  8 active torsions:
REMARK  status: ('A' for Active; 'I' for Inactive)
REMARK    1  A    between atoms: C_1  and  O_2
REMARK    2  A    between atoms: O_2  and  C_3
REMARK    3  A    between atoms: C_7  and  C_8
REMARK    4  A    between atoms: C_8  and  N_9
REMARK    5  A    between atoms: C_15  and  N_16
REMARK    6  A    between atoms: C_22  and  C_23
REMARK    7  A    between atoms: C_23  and  O_25
REMARK    8  A    between atoms: N_29  and  C_30
REMARK                            x       y       z     vdW  Elec       q    Type
REMARK                         _______ _______ _______ _____ _____    ______ ____
ROOT
ATOM      1  N   UNL     1      -2.556  12.785  20.124  0.00  0.00    +0.000 N 
ATOM      2  C   UNL     1      -3.172  11.982  19.178  0.00  0.00    +0.000 A 
ATOM      3  N   UNL     1      -4.465  12.208  18.817  0.00  0.00    +0.000 N 
ATOM      4  C   UNL     1      -4.891  11.826  17.471  0.00  0.00    +0.000 C 
ATOM      5  C   UNL     1      -6.068  12.745  17.094  0.00  0.00    +0.000 C 
ATOM      6  C   UNL     1      -7.210  12.715  18.125  0.00  0.00    +0.000 C 
ATOM      7  C   UNL     1      -6.687  12.909  19.557  0.00  0.00    +0.000 C 
ATOM      8  C   UNL     1      -5.531  11.920  19.797  0.00  0.00    +0.000 C 
ATOM      9  N   UNL     1      -2.340  11.041  18.758  0.00  0.00    +0.000 NA
ATOM     10  C   UNL     1      -1.259  11.121  19.600  0.00  0.00    +0.000 A 
ATOM     11  C   UNL     1      -0.208  10.164  19.860  0.00  0.00    +0.000 A 
ATOM     12  C   UNL     1       0.416   9.409  18.873  0.00  0.00    +0.000 A 
ATOM     13  C   UNL     1       1.461   8.543  19.232  0.00  0.00    +0.000 A 
ATOM     14  C   UNL     1       1.817   8.369  20.583  0.00  0.00    +0.000 A 
ATOM     15  C   UNL     1       1.178   9.114  21.575  0.00  0.00    +0.000 A 
ATOM     16  C   UNL     1       0.216  10.056  21.207  0.00  0.00    +0.000 A 
ATOM     17  N   UNL     1      -0.207  11.027  22.179  0.00  0.00    +0.000 N 
ATOM     18  C   UNL     1      -1.085  10.493  23.215  0.00  0.00    +0.000 C 
ATOM     19  C   UNL     1      -0.656  12.280  21.709  0.00  0.00    +0.000 A 
ATOM     20  O   UNL     1      -0.555  13.316  22.358  0.00  0.00    +0.000 OA
ATOM     21  C   UNL     1      -1.404  12.149  20.492  0.00  0.00    +0.000 A 
ENDROOT
BRANCH   7  22
ATOM     22  N   UNL     1      -7.765  12.768  20.543  0.00  0.00    +0.000 NA
ATOM     23  H   UNL     1      -7.899  13.637  21.055  0.00  0.00    +0.000 HD
ATOM     24  H   UNL     1      -7.509  12.064  21.234  0.00  0.00    +0.000 HD
ENDBRANCH   7  22
BRANCH  13  25
ATOM     25  C   UNL     1       2.265   7.935  18.143  0.00  0.00    +0.000 C 
ATOM     26  O   UNL     1       2.613   6.767  18.159  0.00  0.00    +0.000 OA
BRANCH  25  27
ATOM     27  O   UNL     1       2.567   8.781  17.136  0.00  0.00    +0.000 OA
ATOM     28  H   UNL     1       1.804   9.223  16.723  0.00  0.00    +0.000 HD
ENDBRANCH  25  27
ENDBRANCH  13  25
BRANCH   1  29
ATOM     29  C   UNL     1      -3.073  13.996  20.745  0.00  0.00    +0.000 C 
BRANCH  29  34
ATOM     30  C   UNL     1      -5.918  14.464  23.231  0.00  0.00    +0.000 A 
ATOM     31  C   UNL     1      -5.740  13.389  24.101  0.00  0.00    +0.000 A 
ATOM     32  C   UNL     1      -4.706  12.481  23.886  0.00  0.00    +0.000 A 
ATOM     33  C   UNL     1      -3.835  12.683  22.823  0.00  0.00    +0.000 A 
ATOM     34  C   UNL     1      -3.990  13.757  21.934  0.00  0.00    +0.000 A 
ATOM     35  C   UNL     1      -5.059  14.645  22.151  0.00  0.00    +0.000 A 
BRANCH  30  37
ATOM     36  C   UNL     1      -7.622  15.942  22.499  0.00  0.00    +0.000 C 
ATOM     37  O   UNL     1      -6.971  15.275  23.568  0.00  0.00    +0.000 OA
ENDBRANCH  30  37
ENDBRANCH  29  34
ENDBRANCH   1  29
TORSDOF 6
ENDMDL
MODEL 4
REMARK VINA RESULT:      -6.6      6.227     10.087
REMARK  Name = 
REMARK  8 active torsions:
REMARK  status: ('A' for Active; 'I' for Inactive)
REMARK    1  A    between atoms: C_1  and  O_2
REMARK    2  A    between atoms: O_2  and  C_3
REMARK    3  A    between atoms: C_7  and  C_8
REMARK    4  A    between atoms: C_8  and  N_9
REMARK    5  A    between atoms: C_15  and  N_16
REMARK    6  A    between atoms: C_22  and  C_23
REMARK    7  A    between atoms: C_23  and  O_25
REMARK    8  A    between atoms: N_29  and  C_30
REMARK                            x       y       z     vdW  Elec       q    Type
REMARK                         _______ _______ _______ _____ _____    ______ ____
ROOT
ATOM      1  N   UNL     1      -2.470  12.720  20.074  0.00  0.00    +0.000 N 
ATOM      2  C   UNL     1      -3.097  11.927  19.127  0.00  0.00    +0.000 A 
ATOM      3  N   UNL     1      -4.392  12.163  18.777  0.00  0.00    +0.000 N 
ATOM      4  C   UNL     1      -4.829  11.793  17.432  0.00  0.00    +0.000 C 
ATOM      5  C   UNL     1      -6.003  12.721  17.069  0.00  0.00    +0.000 C 
ATOM      6  C   UNL     1      -7.138  12.691  18.107  0.00  0.00    +0.000 C 
ATOM      7  C   UNL     1      -6.604  12.872  19.537  0.00  0.00    +0.000 C 
ATOM      8  C   UNL     1      -5.452  11.875  19.762  0.00  0.00    +0.000 C 
ATOM      9  N   UNL     1      -2.274  10.985  18.695  0.00  0.00    +0.000 NA
ATOM     10  C   UNL     1      -1.187  11.053  19.529  0.00  0.00    +0.000 A 
ATOM     11  C   UNL     1      -0.140  10.087  19.775  0.00  0.00    +0.000 A 
ATOM     12  C   UNL     1       0.473   9.336  18.779  0.00  0.00    +0.000 A 
ATOM     13  C   UNL     1       1.516   8.461  19.125  0.00  0.00    +0.000 A 
ATOM     14  C   UNL     1       1.881   8.276  20.472  0.00  0.00    +0.000 A 
ATOM     15  C   UNL     1       1.253   9.018  21.474  0.00  0.00    +0.000 A 
ATOM     16  C   UNL     1       0.294   9.968  21.118  0.00  0.00    +0.000 A 
ATOM     17  N   UNL     1      -0.117  10.934  22.100  0.00  0.00    +0.000 N 
ATOM     18  C   UNL     1      -0.990  10.399  23.139  0.00  0.00    +0.000 C 
ATOM     19  C   UNL     1      -0.562  12.193  21.642  0.00  0.00    +0.000 A 
ATOM     20  O   UNL     1      -0.450  13.225  22.297  0.00  0.00    +0.000 OA
ATOM     21  C   UNL     1      -1.319  12.075  20.430  0.00  0.00    +0.000 A 
ENDROOT
BRANCH   7  22
ATOM     22  N   UNL     1      -7.675  12.730  20.529  0.00  0.00    +0.000 NA
ATOM     23  H   UNL     1      -7.897  11.748  20.682  0.00  0.00    +0.000 HD
ATOM     24  H   UNL     1      -8.528  13.166  20.180  0.00  0.00    +0.000 HD
ENDBRANCH   7  22
BRANCH  13  25
ATOM     25  C   UNL     1       2.308   7.856  18.026  0.00  0.00    +0.000 C 
ATOM     26  O   UNL     1       2.752   8.511  17.100  0.00  0.00    +0.000 OA
BRANCH  25  27
ATOM     27  O   UNL     1       2.500   6.525  18.147  0.00  0.00    +0.000 OA
ATOM     28  H   UNL     1       1.688   5.987  18.144  0.00  0.00    +0.000 HD
ENDBRANCH  25  27
ENDBRANCH  13  25
BRANCH   1  29
ATOM     29  C   UNL     1      -2.975  13.930  20.706  0.00  0.00    +0.000 C 
BRANCH  29  34
ATOM     30  C   UNL     1      -3.385  14.713  24.410  0.00  0.00    +0.000 A 
ATOM     31  C   UNL     1      -4.010  13.565  24.895  0.00  0.00    +0.000 A 
ATOM     32  C   UNL     1      -4.327  12.523  24.027  0.00  0.00    +0.000 A 
ATOM     33  C   UNL     1      -3.978  12.627  22.687  0.00  0.00    +0.000 A 
ATOM     34  C   UNL     1      -3.349  13.770  22.172  0.00  0.00    +0.000 A 
ATOM     35  C   UNL     1      -3.064  14.823  23.060  0.00  0.00    +0.000 A 
BRANCH  30  37
ATOM     36  C   UNL     1      -1.779  15.791  25.783  0.00  0.00    +0.000 C 
ATOM     37  O   UNL     1      -3.132  15.651  25.378  0.00  0.00    +0.000 OA
ENDBRANCH  30  37
ENDBRANCH  29  34
ENDBRANCH   1  29
TORSDOF 6
ENDMDL
MODEL 5
REMARK VINA RESULT:      -6.4      9.403     12.023
REMARK  Name = 
REMARK  8 active torsions:
REMARK  status: ('A' for Active; 'I' for Inactive)
REMARK    1  A    between atoms: C_1  and  O_2
REMARK    2  A    between atoms: O_2  and  C_3
REMARK    3  A    between atoms: C_7  and  C_8
REMARK    4  A    between atoms: C_8  and  N_9
REMARK    5  A    between atoms: C_15  and  N_16
REMARK    6  A    between atoms: C_22  and  C_23
REMARK    7  A    between atoms: C_23  and  O_25
REMARK    8  A    between atoms: N_29  and  C_30
REMARK                            x       y       z     vdW  Elec       q    Type
REMARK                         _______ _______ _______ _____ _____    ______ ____
ROOT
ATOM      1  N   UNL     1       4.842  15.134  20.885  0.00  0.00    +0.000 N 
ATOM      2  C   UNL     1       5.039  14.960  19.526  0.00  0.00    +0.000 A 
ATOM      3  N   UNL     1       6.211  15.336  18.943  0.00  0.00    +0.000 N 
ATOM      4  C   UNL     1       6.654  14.626  17.745  0.00  0.00    +0.000 C 
ATOM      5  C   UNL     1       8.190  14.733  17.700  0.00  0.00    +0.000 C 
ATOM      6  C   UNL     1       8.695  16.184  17.769  0.00  0.00    +0.000 C 
ATOM      7  C   UNL     1       8.037  16.960  18.922  0.00  0.00    +0.000 C 
ATOM      8  C   UNL     1       6.511  16.777  18.830  0.00  0.00    +0.000 C 
ATOM      9  N   UNL     1       3.963  14.427  18.967  0.00  0.00    +0.000 NA
ATOM     10  C   UNL     1       3.001  14.461  19.946  0.00  0.00    +0.000 A 
ATOM     11  C   UNL     1       1.564  14.343  19.844  0.00  0.00    +0.000 A 
ATOM     12  C   UNL     1       0.917  13.431  19.018  0.00  0.00    +0.000 A 
ATOM     13  C   UNL     1      -0.486  13.369  19.035  0.00  0.00    +0.000 A 
ATOM     14  C   UNL     1      -1.236  14.276  19.809  0.00  0.00    +0.000 A 
ATOM     15  C   UNL     1      -0.585  15.202  20.624  0.00  0.00    +0.000 A 
ATOM     16  C   UNL     1       0.809  15.190  20.692  0.00  0.00    +0.000 A 
ATOM     17  N   UNL     1       1.455  15.918  21.749  0.00  0.00    +0.000 N 
ATOM     18  C   UNL     1       1.448  17.366  21.570  0.00  0.00    +0.000 C 
ATOM     19  C   UNL     1       2.710  15.455  22.200  0.00  0.00    +0.000 A 
ATOM     20  O   UNL     1       3.115  15.619  23.346  0.00  0.00    +0.000 OA
ATOM     21  C   UNL     1       3.507  14.956  21.117  0.00  0.00    +0.000 A 
ENDROOT
BRANCH   7  22
ATOM     22  N   UNL     1       8.438  18.371  18.912  0.00  0.00    +0.000 NA
ATOM     23  H   UNL     1       7.644  18.972  19.128  0.00  0.00    +0.000 HD
ATOM     24  H   UNL     1       8.751  18.634  17.979  0.00  0.00    +0.000 HD
ENDBRANCH   7  22
BRANCH  13  25
ATOM     25  C   UNL     1      -1.140  12.237  18.333  0.00  0.00    +0.000 C 
ATOM     26  O   UNL     1      -1.406  11.186  18.890  0.00  0.00    +0.000 OA
BRANCH  25  27
ATOM     27  O   UNL     1      -1.418  12.474  17.034  0.00  0.00    +0.000 OA
ATOM     28  H   UNL     1      -2.170  13.071  16.873  0.00  0.00    +0.000 HD
ENDBRANCH  25  27
ENDBRANCH  13  25
BRANCH   1  29
ATOM     29  C   UNL     1       5.808  15.573  21.881  0.00  0.00    +0.000 C 
BRANCH  29  34
ATOM     30  C   UNL     1       7.378  12.396  23.275  0.00  0.00    +0.000 A 
ATOM     31  C   UNL     1       8.725  12.559  22.954  0.00  0.00    +0.000 A 
ATOM     32  C   UNL     1       9.147  13.692  22.263  0.00  0.00    +0.000 A 
ATOM     33  C   UNL     1       8.218  14.671  21.935  0.00  0.00    +0.000 A 
ATOM     34  C   UNL     1       6.857  14.535  22.246  0.00  0.00    +0.000 A 
ATOM     35  C   UNL     1       6.448  13.368  22.918  0.00  0.00    +0.000 A 
BRANCH  30  37
ATOM     36  C   UNL     1       6.373  11.368  25.162  0.00  0.00    +0.000 C 
ATOM     37  O   UNL     1       7.112  11.237  23.958  0.00  0.00    +0.000 OA
ENDBRANCH  30  37
ENDBRANCH  29  34
ENDBRANCH   1  29
TORSDOF 6
ENDMDL
MODEL 6
REMARK VINA RESULT:      -6.4      6.519     11.047
REMARK  Name = 
REMARK  8 active torsions:
REMARK  status: ('A' for Active; 'I' for Inactive)
REMARK    1  A    between atoms: C_1  and  O_2
REMARK    2  A    between atoms: O_2  and  C_3
REMARK    3  A    between atoms: C_7  and  C_8
REMARK    4  A    between atoms: C_8  and  N_9
REMARK    5  A    between atoms: C_15  and  N_16
REMARK    6  A    between atoms: C_22  and  C_23
REMARK    7  A    between atoms: C_23  and  O_25
REMARK    8  A    between atoms: N_29  and  C_30
REMARK                            x       y       z     vdW  Elec       q    Type
REMARK                         _______ _______ _______ _____ _____    ______ ____
ROOT
ATOM      1  N   UNL     1       0.968  12.817  20.313  0.00  0.00    +0.000 N 
ATOM      2  C   UNL     1       0.364  13.375  21.427  0.00  0.00    +0.000 A 
ATOM      3  N   UNL     1      -0.949  13.132  21.694  0.00  0.00    +0.000 N 
ATOM      4  C   UNL     1      -1.397  13.169  23.085  0.00  0.00    +0.000 C 
ATOM      5  C   UNL     1      -2.627  12.248  23.186  0.00  0.00    +0.000 C 
ATOM      6  C   UNL     1      -3.735  12.609  22.182  0.00  0.00    +0.000 C 
ATOM      7  C   UNL     1      -3.179  12.771  20.758  0.00  0.00    +0.000 C 
ATOM      8  C   UNL     1      -1.970  13.725  20.807  0.00  0.00    +0.000 C 
ATOM      9  N   UNL     1       1.226  14.125  22.095  0.00  0.00    +0.000 NA
ATOM     10  C   UNL     1       2.327  14.211  21.280  0.00  0.00    +0.000 A 
ATOM     11  C   UNL     1       3.430  15.146  21.299  0.00  0.00    +0.000 A 
ATOM     12  C   UNL     1       4.059  15.579  22.461  0.00  0.00    +0.000 A 
ATOM     13  C   UNL     1       5.154  16.452  22.361  0.00  0.00    +0.000 A 
ATOM     14  C   UNL     1       5.560  16.955  21.110  0.00  0.00    +0.000 A 
ATOM     15  C   UNL     1       4.916  16.533  19.946  0.00  0.00    +0.000 A 
ATOM     16  C   UNL     1       3.899  15.581  20.036  0.00  0.00    +0.000 A 
ATOM     17  N   UNL     1       3.460  14.924  18.835  0.00  0.00    +0.000 N 
ATOM     18  C   UNL     1       2.641  15.758  17.963  0.00  0.00    +0.000 C 
ATOM     19  C   UNL     1       2.938  13.617  18.950  0.00  0.00    +0.000 A 
ATOM     20  O   UNL     1       3.009  12.784  18.052  0.00  0.00    +0.000 OA
ATOM     21  C   UNL     1       2.160  13.464  20.145  0.00  0.00    +0.000 A 
ENDROOT
BRANCH   7  22
ATOM     22  N   UNL     1      -4.218  13.225  19.827  0.00  0.00    +0.000 NA
ATOM     23  H   UNL     1      -3.828  13.376  18.899  0.00  0.00    +0.000 HD
ATOM     24  H   UNL     1      -4.586  14.124  20.134  0.00  0.00    +0.000 HD
ENDBRANCH   7  22
BRANCH  13  25
ATOM     25  C   UNL     1       5.953  16.708  23.585  0.00  0.00    +0.000 C 
ATOM     26  O   UNL     1       5.466  17.178  24.598  0.00  0.00    +0.000 OA
BRANCH  25  27
ATOM     27  O   UNL     1       7.255  16.369  23.481  0.00  0.00    +0.000 OA
ATOM     28  H   UNL     1       7.855  16.834  24.090  0.00  0.00    +0.000 HD
ENDBRANCH  25  27
ENDBRANCH  13  25
BRANCH   1  29
ATOM     29  C   UNL     1       0.414  11.842  19.386  0.00  0.00    +0.000 C 
BRANCH  29  34
ATOM     30  C   UNL     1       1.968   8.434  18.697  0.00  0.00    +0.000 A 
ATOM     31  C   UNL     1       1.821   7.782  19.920  0.00  0.00    +0.000 A 
ATOM     32  C   UNL     1       1.234   8.440  20.997  0.00  0.00    +0.000 A 
ATOM     33  C   UNL     1       0.762   9.736  20.825  0.00  0.00    +0.000 A 
ATOM     34  C   UNL     1       0.895  10.416  19.605  0.00  0.00    +0.000 A 
ATOM     35  C   UNL     1       1.519   9.742  18.539  0.00  0.00    +0.000 A 
BRANCH  30  37
ATOM     36  C   UNL     1       3.103   6.423  18.155  0.00  0.00    +0.000 C 
ATOM     37  O   UNL     1       2.558   7.662  17.730  0.00  0.00    +0.000 OA
ENDBRANCH  30  37
ENDBRANCH  29  34
ENDBRANCH   1  29
TORSDOF 6
ENDMDL
MODEL 7
REMARK VINA RESULT:      -6.4      6.309     10.204
REMARK  Name = 
REMARK  8 active torsions:
REMARK  status: ('A' for Active; 'I' for Inactive)
REMARK    1  A    between atoms: C_1  and  O_2
REMARK    2  A    between atoms: O_2  and  C_3
REMARK    3  A    between atoms: C_7  and  C_8
REMARK    4  A    between atoms: C_8  and  N_9
REMARK    5  A    between atoms: C_15  and  N_16
REMARK    6  A    between atoms: C_22  and  C_23
REMARK    7  A    between atoms: C_23  and  O_25
REMARK    8  A    between atoms: N_29  and  C_30
REMARK                            x       y       z     vdW  Elec       q    Type
REMARK                         _______ _______ _______ _____ _____    ______ ____
ROOT
ATOM      1  N   UNL     1      -2.524  12.854  20.052  0.00  0.00    +0.000 N 
ATOM      2  C   UNL     1      -3.154  12.036  19.129  0.00  0.00    +0.000 A 
ATOM      3  N   UNL     1      -4.447  12.268  18.770  0.00  0.00    +0.000 N 
ATOM      4  C   UNL     1      -4.885  11.859  17.436  0.00  0.00    +0.000 C 
ATOM      5  C   UNL     1      -6.053  12.782  17.043  0.00  0.00    +0.000 C 
ATOM      6  C   UNL     1      -7.189  12.790  18.080  0.00  0.00    +0.000 C 
ATOM      7  C   UNL     1      -6.656  13.012  19.505  0.00  0.00    +0.000 C 
ATOM      8  C   UNL     1      -5.510  12.016  19.762  0.00  0.00    +0.000 C 
ATOM      9  N   UNL     1      -2.336  11.076  18.727  0.00  0.00    +0.000 NA
ATOM     10  C   UNL     1      -1.249  11.164  19.560  0.00  0.00    +0.000 A 
ATOM     11  C   UNL     1      -0.207  10.200  19.837  0.00  0.00    +0.000 A 
ATOM     12  C   UNL     1       0.402   9.416  18.865  0.00  0.00    +0.000 A 
ATOM     13  C   UNL     1       1.439   8.546  19.239  0.00  0.00    +0.000 A 
ATOM     14  C   UNL     1       1.802   8.401  20.593  0.00  0.00    +0.000 A 
ATOM     15  C   UNL     1       1.177   9.176  21.570  0.00  0.00    +0.000 A 
ATOM     16  C   UNL     1       0.223  10.120  21.184  0.00  0.00    +0.000 A 
ATOM     17  N   UNL     1      -0.183  11.119  22.135  0.00  0.00    +0.000 N 
ATOM     18  C   UNL     1      -1.060  10.620  23.188  0.00  0.00    +0.000 C 
ATOM     19  C   UNL     1      -0.621  12.366  21.638  0.00  0.00    +0.000 A 
ATOM     20  O   UNL     1      -0.504  13.416  22.261  0.00  0.00    +0.000 OA
ATOM     21  C   UNL     1      -1.377  12.214  20.429  0.00  0.00    +0.000 A 
ENDROOT
BRANCH   7  22
ATOM     22  N   UNL     1      -7.729  12.907  20.499  0.00  0.00    +0.000 NA
ATOM     23  H   UNL     1      -8.312  12.093  20.315  0.00  0.00    +0.000 HD
ATOM     24  H   UNL     1      -8.342  13.719  20.432  0.00  0.00    +0.000 HD
ENDBRANCH   7  22
BRANCH  13  25
ATOM     25  C   UNL     1       2.230   7.903  18.161  0.00  0.00    +0.000 C 
ATOM     26  O   UNL     1       2.574   8.499  17.156  0.00  0.00    +0.000 OA
BRANCH  25  27
ATOM     27  O   UNL     1       2.539   6.610  18.394  0.00  0.00    +0.000 OA
ATOM     28  H   UNL     1       2.433   6.014  17.632  0.00  0.00    +0.000 HD
ENDBRANCH  25  27
ENDBRANCH  13  25
BRANCH   1  29
ATOM     29  C   UNL     1      -3.023  14.085  20.646  0.00  0.00    +0.000 C 
BRANCH  29  34
ATOM     30  C   UNL     1      -4.764  12.856  23.801  0.00  0.00    +0.000 A 
ATOM     31  C   UNL     1      -4.211  13.671  24.789  0.00  0.00    +0.000 A 
ATOM     32  C   UNL     1      -3.250  14.620  24.453  0.00  0.00    +0.000 A 
ATOM     33  C   UNL     1      -2.881  14.772  23.123  0.00  0.00    +0.000 A 
ATOM     34  C   UNL     1      -3.421  13.967  22.109  0.00  0.00    +0.000 A 
ATOM     35  C   UNL     1      -4.369  12.993  22.474  0.00  0.00    +0.000 A 
BRANCH  30  37
ATOM     36  C   UNL     1      -7.054  12.263  23.975  0.00  0.00    +0.000 C 
ATOM     37  O   UNL     1      -5.699  11.973  24.277  0.00  0.00    +0.000 OA
ENDBRANCH  30  37
ENDBRANCH  29  34
ENDBRANCH   1  29
TORSDOF 6
ENDMDL
MODEL 8
REMARK VINA RESULT:      -6.4      6.405     10.800
REMARK  Name = 
REMARK  8 active torsions:
REMARK  status: ('A' for Active; 'I' for Inactive)
REMARK    1  A    between atoms: C_1  and  O_2
REMARK    2  A    between atoms: O_2  and  C_3
REMARK    3  A    between atoms: C_7  and  C_8
REMARK    4  A    between atoms: C_8  and  N_9
REMARK    5  A    between atoms: C_15  and  N_16
REMARK    6  A    between atoms: C_22  and  C_23
REMARK    7  A    between atoms: C_23  and  O_25
REMARK    8  A    between atoms: N_29  and  C_30
REMARK                            x       y       z     vdW  Elec       q    Type
REMARK                         _______ _______ _______ _____ _____    ______ ____
ROOT
ATOM      1  N   UNL     1       1.081  12.756  20.120  0.00  0.00    +0.000 N 
ATOM      2  C   UNL     1       0.537  13.216  21.307  0.00  0.00    +0.000 A 
ATOM      3  N   UNL     1      -0.773  12.986  21.602  0.00  0.00    +0.000 N 
ATOM      4  C   UNL     1      -1.166  12.896  23.007  0.00  0.00    +0.000 C 
ATOM      5  C   UNL     1      -2.421  12.006  23.067  0.00  0.00    +0.000 C 
ATOM      6  C   UNL     1      -3.553  12.498  22.149  0.00  0.00    +0.000 C 
ATOM      7  C   UNL     1      -3.046  12.786  20.726  0.00  0.00    +0.000 C 
ATOM      8  C   UNL     1      -1.806  13.694  20.821  0.00  0.00    +0.000 C 
ATOM      9  N   UNL     1       1.448  13.871  22.011  0.00  0.00    +0.000 NA
ATOM     10  C   UNL     1       2.520  14.007  21.164  0.00  0.00    +0.000 A 
ATOM     11  C   UNL     1       3.652  14.902  21.232  0.00  0.00    +0.000 A 
ATOM     12  C   UNL     1       4.339  15.198  22.404  0.00  0.00    +0.000 A 
ATOM     13  C   UNL     1       5.458  16.044  22.346  0.00  0.00    +0.000 A 
ATOM     14  C   UNL     1       5.832  16.659  21.136  0.00  0.00    +0.000 A 
ATOM     15  C   UNL     1       5.132  16.374  19.963  0.00  0.00    +0.000 A 
ATOM     16  C   UNL     1       4.088  15.447  20.000  0.00  0.00    +0.000 A 
ATOM     17  N   UNL     1       3.583  14.928  18.758  0.00  0.00    +0.000 N 
ATOM     18  C   UNL     1       2.760  15.868  18.007  0.00  0.00    +0.000 C 
ATOM     19  C   UNL     1       3.023  13.632  18.764  0.00  0.00    +0.000 A 
ATOM     20  O   UNL     1       3.033  12.891  17.786  0.00  0.00    +0.000 OA
ATOM     21  C   UNL     1       2.286  13.382  19.969  0.00  0.00    +0.000 A 
ENDROOT
BRANCH   7  22
ATOM     22  N   UNL     1      -4.104  13.360  19.888  0.00  0.00    +0.000 NA
ATOM     23  H   UNL     1      -3.885  13.241  18.901  0.00  0.00    +0.000 HD
ATOM     24  H   UNL     1      -4.164  14.365  20.049  0.00  0.00    +0.000 HD
ENDBRANCH   7  22
BRANCH  13  25
ATOM     25  C   UNL     1       6.309  16.153  23.557  0.00  0.00    +0.000 C 
ATOM     26  O   UNL     1       7.510  15.950  23.533  0.00  0.00    +0.000 OA
BRANCH  25  27
ATOM     27  O   UNL     1       5.642  16.503  24.676  0.00  0.00    +0.000 OA
ATOM     28  H   UNL     1       5.705  17.443  24.921  0.00  0.00    +0.000 HD
ENDBRANCH  25  27
ENDBRANCH  13  25
BRANCH   1  29
ATOM     29  C   UNL     1       0.461  11.895  19.124  0.00  0.00    +0.000 C 
BRANCH  29  34
ATOM     30  C   UNL     1       1.430   8.340  20.086  0.00  0.00    +0.000 A 
ATOM     31  C   UNL     1       2.117   7.898  18.956  0.00  0.00    +0.000 A 
ATOM     32  C   UNL     1       2.263   8.736  17.854  0.00  0.00    +0.000 A 
ATOM     33  C   UNL     1       1.752  10.027  17.912  0.00  0.00    +0.000 A 
ATOM     34  C   UNL     1       1.056  10.498  19.035  0.00  0.00    +0.000 A 
ATOM     35  C   UNL     1       0.894   9.624  20.125  0.00  0.00    +0.000 A 
BRANCH  30  37
ATOM     36  C   UNL     1       1.683   6.073  20.736  0.00  0.00    +0.000 C 
ATOM     37  O   UNL     1       1.369   7.410  21.091  0.00  0.00    +0.000 OA
ENDBRANCH  30  37
ENDBRANCH  29  34
ENDBRANCH   1  29
TORSDOF 6
ENDMDL
MODEL 9
REMARK VINA RESULT:      -6.4      7.851     13.007
REMARK  Name = 
REMARK  8 active torsions:
REMARK  status: ('A' for Active; 'I' for Inactive)
REMARK    1  A    between atoms: C_1  and  O_2
REMARK    2  A    between atoms: O_2  and  C_3
REMARK    3  A    between atoms: C_7  and  C_8
REMARK    4  A    between atoms: C_8  and  N_9
REMARK    5  A    between atoms: C_15  and  N_16
REMARK    6  A    between atoms: C_22  and  C_23
REMARK    7  A    between atoms: C_23  and  O_25
REMARK    8  A    between atoms: N_29  and  C_30
REMARK                            x       y       z     vdW  Elec       q    Type
REMARK                         _______ _______ _______ _____ _____    ______ ____
ROOT
ATOM      1  N   UNL     1      -0.390  13.667  21.888  0.00  0.00    +0.000 N 
ATOM      2  C   UNL     1      -0.882  12.542  21.249  0.00  0.00    +0.000 A 
ATOM      3  N   UNL     1      -0.097  11.838  20.388  0.00  0.00    +0.000 N 
ATOM      4  C   UNL     1      -0.352  10.408  20.221  0.00  0.00    +0.000 C 
ATOM      5  C   UNL     1       0.980   9.760  19.799  0.00  0.00    +0.000 C 
ATOM      6  C   UNL     1       1.601  10.416  18.553  0.00  0.00    +0.000 C 
ATOM      7  C   UNL     1       1.653  11.946  18.684  0.00  0.00    +0.000 C 
ATOM      8  C   UNL     1       0.257  12.453  19.094  0.00  0.00    +0.000 C 
ATOM      9  N   UNL     1      -2.142  12.327  21.596  0.00  0.00    +0.000 NA
ATOM     10  C   UNL     1      -2.513  13.447  22.297  0.00  0.00    +0.000 A 
ATOM     11  C   UNL     1      -3.829  13.945  22.629  0.00  0.00    +0.000 A 
ATOM     12  C   UNL     1      -4.880  13.138  23.051  0.00  0.00    +0.000 A 
ATOM     13  C   UNL     1      -6.104  13.734  23.395  0.00  0.00    +0.000 A 
ATOM     14  C   UNL     1      -6.299  15.119  23.232  0.00  0.00    +0.000 A 
ATOM     15  C   UNL     1      -5.249  15.925  22.791  0.00  0.00    +0.000 A 
ATOM     16  C   UNL     1      -4.000  15.348  22.555  0.00  0.00    +0.000 A 
ATOM     17  N   UNL     1      -2.858  16.210  22.409  0.00  0.00    +0.000 N 
ATOM     18  C   UNL     1      -2.804  16.920  21.136  0.00  0.00    +0.000 C 
ATOM     19  C   UNL     1      -1.594  15.701  22.778  0.00  0.00    +0.000 A 
ATOM     20  O   UNL     1      -0.679  16.407  23.187  0.00  0.00    +0.000 OA
ATOM     21  C   UNL     1      -1.464  14.315  22.431  0.00  0.00    +0.000 A 
ENDROOT
BRANCH   7  22
ATOM     22  N   UNL     1       2.142  12.572  17.451  0.00  0.00    +0.000 NA
ATOM     23  H   UNL     1       2.607  11.886  16.860  0.00  0.00    +0.000 HD
ATOM     24  H   UNL     1       2.841  13.278  17.676  0.00  0.00    +0.000 HD
ENDBRANCH   7  22
BRANCH  13  25
ATOM     25  C   UNL     1      -7.123  12.890  24.066  0.00  0.00    +0.000 C 
ATOM     26  O   UNL     1      -7.226  11.694  23.855  0.00  0.00    +0.000 OA
BRANCH  25  27
ATOM     27  O   UNL     1      -7.917  13.557  24.929  0.00  0.00    +0.000 OA
ATOM     28  H   UNL     1      -7.690  14.495  25.062  0.00  0.00    +0.000 HD
ENDBRANCH  25  27
ENDBRANCH  13  25
BRANCH   1  29
ATOM     29  C   UNL     1       0.973  14.179  21.879  0.00  0.00    +0.000 C 
BRANCH  29  34
ATOM     30  C   UNL     1       3.051  15.855  19.164  0.00  0.00    +0.000 A 
ATOM     31  C   UNL     1       2.082  16.510  18.403  0.00  0.00    +0.000 A 
ATOM     32  C   UNL     1       0.737  16.403  18.744  0.00  0.00    +0.000 A 
ATOM     33  C   UNL     1       0.378  15.675  19.871  0.00  0.00    +0.000 A 
ATOM     34  C   UNL     1       1.330  15.007  20.655  0.00  0.00    +0.000 A 
ATOM     35  C   UNL     1       2.681  15.103  20.275  0.00  0.00    +0.000 A 
BRANCH  30  37
ATOM     36  C   UNL     1       4.873  15.034  17.888  0.00  0.00    +0.000 C 
ATOM     37  O   UNL     1       4.330  16.052  18.713  0.00  0.00    +0.000 OA
ENDBRANCH  30  37
ENDBRANCH  29  34
ENDBRANCH   1  29
TORSDOF 6
ENDMDL
