MODEL 1
REMARK VINA RESULT:      -7.0      0.000      0.000
REMARK  Name = 
REMARK  12 active torsions:
REMARK  status: ('A' for Active; 'I' for Inactive)
REMARK    1  A    between atoms: C_1  and  C_2
REMARK    2  A    between atoms: C_4  and  O_5
REMARK    3  A    between atoms: O_5  and  C_6
REMARK    4  A    between atoms: C_6  and  C_7
REMARK    5  A    between atoms: C_7  and  C_8
REMARK    6  A    between atoms: C_7  and  C_9
REMARK    7  A    between atoms: C_12  and  C_13
REMARK    8  A    between atoms: C_13  and  C_15
REMARK    9  A    between atoms: C_16  and  O_17
REMARK   10  A    between atoms: N_20  and  C_21
REMARK   11  A    between atoms: C_21  and  C_22
REMARK   12  A    between atoms: C_28  and  C_29
REMARK                            x       y       z     vdW  Elec       q    Type
REMARK                         _______ _______ _______ _____ _____    ______ ____
ROOT
ATOM      1  C   UNL     1       1.295  11.808  19.359  0.00  0.00    +0.000 C 
ATOM      2  C   UNL     1       2.132  12.460  18.530  0.00  0.00    +0.000 C 
ATOM      3  C   UNL     1       2.663  13.639  19.248  0.00  0.00    +0.000 C 
ATOM      4  O   UNL     1       3.497  14.419  18.829  0.00  0.00    +0.000 OA
ATOM      5  N   UNL     1       2.046  13.660  20.485  0.00  0.00    +0.000 N 
ATOM      6  C   UNL     1       1.183  12.508  20.687  0.00  0.00    +0.000 C 
ENDROOT
BRANCH   6   7
ATOM      7  C   UNL     1      -0.209  12.923  21.117  0.00  0.00    +0.000 A 
ATOM      8  C   UNL     1      -1.054  13.679  20.294  0.00  0.00    +0.000 A 
ATOM      9  C   UNL     1      -2.304  14.044  20.772  0.00  0.00    +0.000 A 
ATOM     10  N   UNL     1      -2.768  13.711  21.996  0.00  0.00    +0.000 NA
ATOM     11  C   UNL     1      -1.940  12.997  22.784  0.00  0.00    +0.000 A 
ATOM     12  C   UNL     1      -0.669  12.599  22.401  0.00  0.00    +0.000 A 
ENDBRANCH   6   7
BRANCH   1  13
ATOM     13  C   UNL     1       0.663  10.551  18.868  0.00  0.00    +0.000 C 
ATOM     14  O   UNL     1      -0.389  10.639  18.230  0.00  0.00    +0.000 OA
BRANCH  13  21
ATOM     15  C   UNL     1       0.104   9.026  21.431  0.00  0.00    +0.000 C 
ATOM     16  C   UNL     1       1.045   8.540  20.361  0.00  0.00    +0.000 A 
ATOM     17  C   UNL     1       1.720   7.330  20.599  0.00  0.00    +0.000 A 
ATOM     18  C   UNL     1       2.509   6.736  19.617  0.00  0.00    +0.000 A 
ATOM     19  C   UNL     1       2.558   7.301  18.350  0.00  0.00    +0.000 A 
ATOM     20  C   UNL     1       1.916   8.519  18.104  0.00  0.00    +0.000 A 
ATOM     21  C   UNL     1       1.237   9.198  19.124  0.00  0.00    +0.000 A 
BRANCH  18  22
ATOM     22  O   UNL     1       3.115   5.571  19.983  0.00  0.00    +0.000 OA
BRANCH  22  23
ATOM     23  C   UNL     1       2.765   4.423  19.206  0.00  0.00    +0.000 C 
BRANCH  23  24
ATOM     24  C   UNL     1       1.435   3.864  19.733  0.00  0.00    +0.000 C 
ATOM     25  C   UNL     1       0.937   2.707  18.861  0.00  0.00    +0.000 C 
ATOM     26  C   UNL     1       1.590   3.413  21.184  0.00  0.00    +0.000 C 
ENDBRANCH  23  24
ENDBRANCH  22  23
ENDBRANCH  18  22
ENDBRANCH  13  21
ENDBRANCH   1  13
BRANCH   2  27
ATOM     27  O   UNL     1       2.499  12.139  17.252  0.00  0.00    +0.000 OA
ATOM     28  H   UNL     1       3.378  12.549  17.091  0.00  0.00    +0.000 HD
ENDBRANCH   2  27
BRANCH   5  29
ATOM     29  C   UNL     1       2.408  14.607  21.524  0.00  0.00    +0.000 C 
BRANCH  29  30
ATOM     30  C   UNL     1       1.488  15.793  21.599  0.00  0.00    +0.000 A 
ATOM     31  C   UNL     1       1.300  16.653  20.511  0.00  0.00    +0.000 A 
ATOM     32  C   UNL     1       0.406  17.716  20.610  0.00  0.00    +0.000 A 
ATOM     33  C   UNL     1      -0.273  17.890  21.803  0.00  0.00    +0.000 A 
ATOM     34  N   UNL     1      -0.117  17.087  22.878  0.00  0.00    +0.000 NA
ATOM     35  C   UNL     1       0.744  16.052  22.745  0.00  0.00    +0.000 A 
ENDBRANCH  29  30
ENDBRANCH   5  29
TORSDOF 9
ENDMDL
MODEL 2
REMARK VINA RESULT:      -7.0      2.606      4.398
REMARK  Name = 
REMARK  12 active torsions:
REMARK  status: ('A' for Active; 'I' for Inactive)
REMARK    1  A    between atoms: C_1  and  C_2
REMARK    2  A    between atoms: C_4  and  O_5
REMARK    3  A    between atoms: O_5  and  C_6
REMARK    4  A    between atoms: C_6  and  C_7
REMARK    5  A    between atoms: C_7  and  C_8
REMARK    6  A    between atoms: C_7  and  C_9
REMARK    7  A    between atoms: C_12  and  C_13
REMARK    8  A    between atoms: C_13  and  C_15
REMARK    9  A    between atoms: C_16  and  O_17
REMARK   10  A    between atoms: N_20  and  C_21
REMARK   11  A    between atoms: C_21  and  C_22
REMARK   12  A    between atoms: C_28  and  C_29
REMARK                            x       y       z     vdW  Elec       q    Type
REMARK                         _______ _______ _______ _____ _____    ______ ____
ROOT
ATOM      1  C   UNL     1      -0.087  12.083  19.213  0.00  0.00    +0.000 C 
ATOM      2  C   UNL     1      -0.023  13.376  19.584  0.00  0.00    +0.000 C 
ATOM      3  C   UNL     1      -1.382  13.808  19.978  0.00  0.00    +0.000 C 
ATOM      4  O   UNL     1      -1.686  14.895  20.430  0.00  0.00    +0.000 OA
ATOM      5  N   UNL     1      -2.219  12.731  19.753  0.00  0.00    +0.000 N 
ATOM      6  C   UNL     1      -1.493  11.554  19.307  0.00  0.00    +0.000 C 
ENDROOT
BRANCH   6   7
ATOM      7  C   UNL     1      -2.087  10.981  18.038  0.00  0.00    +0.000 A 
ATOM      8  C   UNL     1      -2.535   9.656  17.952  0.00  0.00    +0.000 A 
ATOM      9  C   UNL     1      -3.040   9.196  16.745  0.00  0.00    +0.000 A 
ATOM     10  N   UNL     1      -3.132   9.953  15.631  0.00  0.00    +0.000 NA
ATOM     11  C   UNL     1      -2.685  11.221  15.722  0.00  0.00    +0.000 A 
ATOM     12  C   UNL     1      -2.150  11.765  16.878  0.00  0.00    +0.000 A 
ENDBRANCH   6   7
BRANCH   1  13
ATOM     13  C   UNL     1       1.178  11.408  18.810  0.00  0.00    +0.000 C 
ATOM     14  O   UNL     1       2.061  12.089  18.283  0.00  0.00    +0.000 OA
BRANCH  13  21
ATOM     15  C   UNL     1       0.687  10.040  21.473  0.00  0.00    +0.000 C 
ATOM     16  C   UNL     1       1.276   9.343  20.275  0.00  0.00    +0.000 A 
ATOM     17  C   UNL     1       1.647   7.995  20.431  0.00  0.00    +0.000 A 
ATOM     18  C   UNL     1       2.077   7.233  19.349  0.00  0.00    +0.000 A 
ATOM     19  C   UNL     1       2.055   7.786  18.076  0.00  0.00    +0.000 A 
ATOM     20  C   UNL     1       1.717   9.133  17.905  0.00  0.00    +0.000 A 
ATOM     21  C   UNL     1       1.419   9.948  19.004  0.00  0.00    +0.000 A 
BRANCH  18  22
ATOM     22  O   UNL     1       2.415   5.945  19.642  0.00  0.00    +0.000 OA
BRANCH  22  23
ATOM     23  C   UNL     1       1.733   5.367  20.757  0.00  0.00    +0.000 C 
BRANCH  23  24
ATOM     24  C   UNL     1       1.019   4.093  20.286  0.00  0.00    +0.000 C 
ATOM     25  C   UNL     1       1.408   3.740  18.848  0.00  0.00    +0.000 C 
ATOM     26  C   UNL     1       1.334   2.932  21.226  0.00  0.00    +0.000 C 
ENDBRANCH  23  24
ENDBRANCH  22  23
ENDBRANCH  18  22
ENDBRANCH  13  21
ENDBRANCH   1  13
BRANCH   2  27
ATOM     27  O   UNL     1       1.067  14.201  19.641  0.00  0.00    +0.000 OA
ATOM     28  H   UNL     1       1.223  14.408  20.590  0.00  0.00    +0.000 HD
ENDBRANCH   2  27
BRANCH   5  29
ATOM     29  C   UNL     1      -3.619  12.735  20.141  0.00  0.00    +0.000 C 
BRANCH  29  30
ATOM     30  C   UNL     1      -3.829  12.583  21.622  0.00  0.00    +0.000 A 
ATOM     31  C   UNL     1      -2.778  12.261  22.489  0.00  0.00    +0.000 A 
ATOM     32  C   UNL     1      -3.010  12.172  23.859  0.00  0.00    +0.000 A 
ATOM     33  C   UNL     1      -4.292  12.404  24.322  0.00  0.00    +0.000 A 
ATOM     34  N   UNL     1      -5.335  12.713  23.520  0.00  0.00    +0.000 NA
ATOM     35  C   UNL     1      -5.075  12.810  22.196  0.00  0.00    +0.000 A 
ENDBRANCH  29  30
ENDBRANCH   5  29
TORSDOF 9
ENDMDL
MODEL 3
REMARK VINA RESULT:      -7.0      0.767      1.203
REMARK  Name = 
REMARK  12 active torsions:
REMARK  status: ('A' for Active; 'I' for Inactive)
REMARK    1  A    between atoms: C_1  and  C_2
REMARK    2  A    between atoms: C_4  and  O_5
REMARK    3  A    between atoms: O_5  and  C_6
REMARK    4  A    between atoms: C_6  and  C_7
REMARK    5  A    between atoms: C_7  and  C_8
REMARK    6  A    between atoms: C_7  and  C_9
REMARK    7  A    between atoms: C_12  and  C_13
REMARK    8  A    between atoms: C_13  and  C_15
REMARK    9  A    between atoms: C_16  and  O_17
REMARK   10  A    between atoms: N_20  and  C_21
REMARK   11  A    between atoms: C_21  and  C_22
REMARK   12  A    between atoms: C_28  and  C_29
REMARK                            x       y       z     vdW  Elec       q    Type
REMARK                         _______ _______ _______ _____ _____    ______ ____
ROOT
ATOM      1  C   UNL     1       1.329  11.767  19.319  0.00  0.00    +0.000 C 
ATOM      2  C   UNL     1       2.148  12.454  18.500  0.00  0.00    +0.000 C 
ATOM      3  C   UNL     1       2.659  13.628  19.242  0.00  0.00    +0.000 C 
ATOM      4  O   UNL     1       3.474  14.434  18.835  0.00  0.00    +0.000 OA
ATOM      5  N   UNL     1       2.048  13.609  20.482  0.00  0.00    +0.000 N 
ATOM      6  C   UNL     1       1.210  12.436  20.663  0.00  0.00    +0.000 C 
ENDROOT
BRANCH   6   7
ATOM      7  C   UNL     1      -0.187  12.813  21.109  0.00  0.00    +0.000 A 
ATOM      8  C   UNL     1      -0.655  12.558  22.405  0.00  0.00    +0.000 A 
ATOM      9  C   UNL     1      -1.957  12.907  22.729  0.00  0.00    +0.000 A 
ATOM     10  N   UNL     1      -2.817  13.488  21.865  0.00  0.00    +0.000 NA
ATOM     11  C   UNL     1      -2.361  13.715  20.617  0.00  0.00    +0.000 A 
ATOM     12  C   UNL     1      -1.082  13.387  20.196  0.00  0.00    +0.000 A 
ENDBRANCH   6   7
BRANCH   1  13
ATOM     13  C   UNL     1       0.720  10.509  18.805  0.00  0.00    +0.000 C 
ATOM     14  O   UNL     1      -0.313  10.593  18.134  0.00  0.00    +0.000 OA
BRANCH  13  21
ATOM     15  C   UNL     1       0.126   8.990  21.364  0.00  0.00    +0.000 C 
ATOM     16  C   UNL     1       1.084   8.503  20.308  0.00  0.00    +0.000 A 
ATOM     17  C   UNL     1       1.760   7.296  20.560  0.00  0.00    +0.000 A 
ATOM     18  C   UNL     1       2.564   6.701  19.592  0.00  0.00    +0.000 A 
ATOM     19  C   UNL     1       2.631   7.263  18.324  0.00  0.00    +0.000 A 
ATOM     20  C   UNL     1       1.989   8.479  18.065  0.00  0.00    +0.000 A 
ATOM     21  C   UNL     1       1.293   9.159  19.072  0.00  0.00    +0.000 A 
BRANCH  18  22
ATOM     22  O   UNL     1       3.168   5.539  19.970  0.00  0.00    +0.000 OA
BRANCH  22  23
ATOM     23  C   UNL     1       2.810   4.382  19.210  0.00  0.00    +0.000 C 
BRANCH  23  24
ATOM     24  C   UNL     1       1.445   3.878  19.701  0.00  0.00    +0.000 C 
ATOM     25  C   UNL     1       0.917   2.753  18.807  0.00  0.00    +0.000 C 
ATOM     26  C   UNL     1       1.545   3.409  21.150  0.00  0.00    +0.000 C 
ENDBRANCH  23  24
ENDBRANCH  22  23
ENDBRANCH  18  22
ENDBRANCH  13  21
ENDBRANCH   1  13
BRANCH   2  27
ATOM     27  O   UNL     1       2.514  12.169  17.214  0.00  0.00    +0.000 OA
ATOM     28  H   UNL     1       1.835  11.558  16.848  0.00  0.00    +0.000 HD
ENDBRANCH   2  27
BRANCH   5  29
ATOM     29  C   UNL     1       2.397  14.541  21.540  0.00  0.00    +0.000 C 
BRANCH  29  30
ATOM     30  C   UNL     1       2.037  15.965  21.225  0.00  0.00    +0.000 A 
ATOM     31  C   UNL     1       0.724  16.348  20.924  0.00  0.00    +0.000 A 
ATOM     32  C   UNL     1       0.428  17.686  20.679  0.00  0.00    +0.000 A 
ATOM     33  C   UNL     1       1.459  18.605  20.739  0.00  0.00    +0.000 A 
ATOM     34  N   UNL     1       2.740  18.279  21.020  0.00  0.00    +0.000 NA
ATOM     35  C   UNL     1       2.993  16.974  21.271  0.00  0.00    +0.000 A 
ENDBRANCH  29  30
ENDBRANCH   5  29
TORSDOF 9
ENDMDL
MODEL 4
REMARK VINA RESULT:      -6.9      2.855      5.141
REMARK  Name = 
REMARK  12 active torsions:
REMARK  status: ('A' for Active; 'I' for Inactive)
REMARK    1  A    between atoms: C_1  and  C_2
REMARK    2  A    between atoms: C_4  and  O_5
REMARK    3  A    between atoms: O_5  and  C_6
REMARK    4  A    between atoms: C_6  and  C_7
REMARK    5  A    between atoms: C_7  and  C_8
REMARK    6  A    between atoms: C_7  and  C_9
REMARK    7  A    between atoms: C_12  and  C_13
REMARK    8  A    between atoms: C_13  and  C_15
REMARK    9  A    between atoms: C_16  and  O_17
REMARK   10  A    between atoms: N_20  and  C_21
REMARK   11  A    between atoms: C_21  and  C_22
REMARK   12  A    between atoms: C_28  and  C_29
REMARK                            x       y       z     vdW  Elec       q    Type
REMARK                         _______ _______ _______ _____ _____    ______ ____
ROOT
ATOM      1  C   UNL     1      -0.801  12.094  21.165  0.00  0.00    +0.000 C 
ATOM      2  C   UNL     1      -1.397  11.745  22.320  0.00  0.00    +0.000 C 
ATOM      3  C   UNL     1      -2.786  12.253  22.292  0.00  0.00    +0.000 C 
ATOM      4  O   UNL     1      -3.636  12.066  23.142  0.00  0.00    +0.000 OA
ATOM      5  N   UNL     1      -2.928  12.952  21.108  0.00  0.00    +0.000 N 
ATOM      6  C   UNL     1      -1.735  12.879  20.282  0.00  0.00    +0.000 C 
ENDROOT
BRANCH   6   7
ATOM      7  C   UNL     1      -1.266  14.255  19.856  0.00  0.00    +0.000 A 
ATOM      8  C   UNL     1      -0.411  14.451  18.764  0.00  0.00    +0.000 A 
ATOM      9  C   UNL     1      -0.003  15.740  18.454  0.00  0.00    +0.000 A 
ATOM     10  N   UNL     1      -0.383  16.835  19.146  0.00  0.00    +0.000 NA
ATOM     11  C   UNL     1      -1.194  16.633  20.204  0.00  0.00    +0.000 A 
ATOM     12  C   UNL     1      -1.641  15.383  20.599  0.00  0.00    +0.000 A 
ENDBRANCH   6   7
BRANCH   1  13
ATOM     13  C   UNL     1       0.604  11.654  20.941  0.00  0.00    +0.000 C 
ATOM     14  O   UNL     1       1.511  12.316  21.453  0.00  0.00    +0.000 OA
BRANCH  13  21
ATOM     15  C   UNL     1       1.104   8.935  22.193  0.00  0.00    +0.000 C 
ATOM     16  C   UNL     1       1.284   9.223  20.725  0.00  0.00    +0.000 A 
ATOM     17  C   UNL     1       1.747   8.170  19.915  0.00  0.00    +0.000 A 
ATOM     18  C   UNL     1       1.820   8.301  18.531  0.00  0.00    +0.000 A 
ATOM     19  C   UNL     1       1.345   9.459  17.932  0.00  0.00    +0.000 A 
ATOM     20  C   UNL     1       0.908  10.527  18.723  0.00  0.00    +0.000 A 
ATOM     21  C   UNL     1       0.962  10.460  20.121  0.00  0.00    +0.000 A 
BRANCH  18  22
ATOM     22  O   UNL     1       2.295   7.209  17.868  0.00  0.00    +0.000 OA
BRANCH  22  23
ATOM     23  C   UNL     1       2.745   6.133  18.694  0.00  0.00    +0.000 C 
BRANCH  23  24
ATOM     24  C   UNL     1       1.994   4.857  18.287  0.00  0.00    +0.000 C 
ATOM     25  C   UNL     1       2.899   3.912  17.491  0.00  0.00    +0.000 C 
ATOM     26  C   UNL     1       1.439   4.154  19.523  0.00  0.00    +0.000 C 
ENDBRANCH  23  24
ENDBRANCH  22  23
ENDBRANCH  18  22
ENDBRANCH  13  21
ENDBRANCH   1  13
BRANCH   2  27
ATOM     27  O   UNL     1      -0.888  11.028  23.368  0.00  0.00    +0.000 OA
ATOM     28  H   UNL     1      -0.800  11.646  24.127  0.00  0.00    +0.000 HD
ENDBRANCH   2  27
BRANCH   5  29
ATOM     29  C   UNL     1      -4.201  13.494  20.666  0.00  0.00    +0.000 C 
BRANCH  29  30
ATOM     30  C   UNL     1      -5.076  12.481  19.983  0.00  0.00    +0.000 A 
ATOM     31  C   UNL     1      -4.769  11.973  18.715  0.00  0.00    +0.000 A 
ATOM     32  C   UNL     1      -5.586  11.004  18.138  0.00  0.00    +0.000 A 
ATOM     33  C   UNL     1      -6.694  10.576  18.846  0.00  0.00    +0.000 A 
ATOM     34  N   UNL     1      -7.029  11.043  20.069  0.00  0.00    +0.000 NA
ATOM     35  C   UNL     1      -6.207  11.969  20.612  0.00  0.00    +0.000 A 
ENDBRANCH  29  30
ENDBRANCH   5  29
TORSDOF 9
ENDMDL
MODEL 5
REMARK VINA RESULT:      -6.9      0.917      1.737
REMARK  Name = 
REMARK  12 active torsions:
REMARK  status: ('A' for Active; 'I' for Inactive)
REMARK    1  A    between atoms: C_1  and  C_2
REMARK    2  A    between atoms: C_4  and  O_5
REMARK    3  A    between atoms: O_5  and  C_6
REMARK    4  A    between atoms: C_6  and  C_7
REMARK    5  A    between atoms: C_7  and  C_8
REMARK    6  A    between atoms: C_7  and  C_9
REMARK    7  A    between atoms: C_12  and  C_13
REMARK    8  A    between atoms: C_13  and  C_15
REMARK    9  A    between atoms: C_16  and  O_17
REMARK   10  A    between atoms: N_20  and  C_21
REMARK   11  A    between atoms: C_21  and  C_22
REMARK   12  A    between atoms: C_28  and  C_29
REMARK                            x       y       z     vdW  Elec       q    Type
REMARK                         _______ _______ _______ _____ _____    ______ ____
ROOT
ATOM      1  C   UNL     1       1.268  11.490  19.405  0.00  0.00    +0.000 C 
ATOM      2  C   UNL     1       1.989  12.300  18.606  0.00  0.00    +0.000 C 
ATOM      3  C   UNL     1       2.303  13.531  19.363  0.00  0.00    +0.000 C 
ATOM      4  O   UNL     1       2.994  14.454  18.977  0.00  0.00    +0.000 OA
ATOM      5  N   UNL     1       1.680  13.410  20.591  0.00  0.00    +0.000 N 
ATOM      6  C   UNL     1       1.025  12.122  20.750  0.00  0.00    +0.000 C 
ENDROOT
BRANCH   6   7
ATOM      7  C   UNL     1      -0.421  12.280  21.172  0.00  0.00    +0.000 A 
ATOM      8  C   UNL     1      -1.380  12.887  20.350  0.00  0.00    +0.000 A 
ATOM      9  C   UNL     1      -2.678  13.020  20.820  0.00  0.00    +0.000 A 
ATOM     10  N   UNL     1      -3.085  12.595  22.035  0.00  0.00    +0.000 NA
ATOM     11  C   UNL     1      -2.150  12.026  22.822  0.00  0.00    +0.000 A 
ATOM     12  C   UNL     1      -0.827  11.864  22.447  0.00  0.00    +0.000 A 
ENDBRANCH   6   7
BRANCH   1  13
ATOM     13  C   UNL     1       0.865  10.159  18.872  0.00  0.00    +0.000 C 
ATOM     14  O   UNL     1       0.138  10.125  17.877  0.00  0.00    +0.000 OA
BRANCH  13  21
ATOM     15  C   UNL     1       2.899   8.333  17.553  0.00  0.00    +0.000 C 
ATOM     16  C   UNL     1       2.168   7.987  18.823  0.00  0.00    +0.000 A 
ATOM     17  C   UNL     1       2.428   6.727  19.393  0.00  0.00    +0.000 A 
ATOM     18  C   UNL     1       1.901   6.369  20.630  0.00  0.00    +0.000 A 
ATOM     19  C   UNL     1       1.179   7.305  21.358  0.00  0.00    +0.000 A 
ATOM     20  C   UNL     1       0.887   8.552  20.796  0.00  0.00    +0.000 A 
ATOM     21  C   UNL     1       1.291   8.871  19.494  0.00  0.00    +0.000 A 
BRANCH  18  22
ATOM     22  O   UNL     1       2.224   5.116  21.060  0.00  0.00    +0.000 OA
BRANCH  22  23
ATOM     23  C   UNL     1       2.737   4.234  20.059  0.00  0.00    +0.000 C 
BRANCH  23  24
ATOM     24  C   UNL     1       2.012   2.886  20.179  0.00  0.00    +0.000 C 
ATOM     25  C   UNL     1       1.511   2.651  21.607  0.00  0.00    +0.000 C 
ATOM     26  C   UNL     1       0.853   2.819  19.187  0.00  0.00    +0.000 C 
ENDBRANCH  23  24
ENDBRANCH  22  23
ENDBRANCH  18  22
ENDBRANCH  13  21
ENDBRANCH   1  13
BRANCH   2  27
ATOM     27  O   UNL     1       2.416  12.083  17.325  0.00  0.00    +0.000 OA
ATOM     28  H   UNL     1       3.297  11.650  17.383  0.00  0.00    +0.000 HD
ENDBRANCH   2  27
BRANCH   5  29
ATOM     29  C   UNL     1       1.864  14.375  21.661  0.00  0.00    +0.000 C 
BRANCH  29  30
ATOM     30  C   UNL     1       0.792  15.426  21.709  0.00  0.00    +0.000 A 
ATOM     31  C   UNL     1      -0.144  15.482  22.749  0.00  0.00    +0.000 A 
ATOM     32  C   UNL     1      -1.094  16.499  22.776  0.00  0.00    +0.000 A 
ATOM     33  C   UNL     1      -1.083  17.431  21.754  0.00  0.00    +0.000 A 
ATOM     34  N   UNL     1      -0.203  17.411  20.730  0.00  0.00    +0.000 NA
ATOM     35  C   UNL     1       0.720  16.423  20.741  0.00  0.00    +0.000 A 
ENDBRANCH  29  30
ENDBRANCH   5  29
TORSDOF 9
ENDMDL
MODEL 6
REMARK VINA RESULT:      -6.8      2.624      4.347
REMARK  Name = 
REMARK  12 active torsions:
REMARK  status: ('A' for Active; 'I' for Inactive)
REMARK    1  A    between atoms: C_1  and  C_2
REMARK    2  A    between atoms: C_4  and  O_5
REMARK    3  A    between atoms: O_5  and  C_6
REMARK    4  A    between atoms: C_6  and  C_7
REMARK    5  A    between atoms: C_7  and  C_8
REMARK    6  A    between atoms: C_7  and  C_9
REMARK    7  A    between atoms: C_12  and  C_13
REMARK    8  A    between atoms: C_13  and  C_15
REMARK    9  A    between atoms: C_16  and  O_17
REMARK   10  A    between atoms: N_20  and  C_21
REMARK   11  A    between atoms: C_21  and  C_22
REMARK   12  A    between atoms: C_28  and  C_29
REMARK                            x       y       z     vdW  Elec       q    Type
REMARK                         _______ _______ _______ _____ _____    ______ ____
ROOT
ATOM      1  C   UNL     1      -0.100  12.221  19.277  0.00  0.00    +0.000 C 
ATOM      2  C   UNL     1      -0.051  13.519  19.631  0.00  0.00    +0.000 C 
ATOM      3  C   UNL     1      -1.416  13.942  20.014  0.00  0.00    +0.000 C 
ATOM      4  O   UNL     1      -1.732  15.032  20.450  0.00  0.00    +0.000 OA
ATOM      5  N   UNL     1      -2.241  12.854  19.802  0.00  0.00    +0.000 N 
ATOM      6  C   UNL     1      -1.502  11.679  19.374  0.00  0.00    +0.000 C 
ENDROOT
BRANCH   6   7
ATOM      7  C   UNL     1      -2.085  11.082  18.110  0.00  0.00    +0.000 A 
ATOM      8  C   UNL     1      -2.096  11.771  16.891  0.00  0.00    +0.000 A 
ATOM      9  C   UNL     1      -2.675  11.168  15.784  0.00  0.00    +0.000 A 
ATOM     10  N   UNL     1      -3.236   9.940  15.805  0.00  0.00    +0.000 NA
ATOM     11  C   UNL     1      -3.232   9.292  16.987  0.00  0.00    +0.000 A 
ATOM     12  C   UNL     1      -2.692   9.819  18.149  0.00  0.00    +0.000 A 
ENDBRANCH   6   7
BRANCH   1  13
ATOM     13  C   UNL     1       1.173  11.552  18.887  0.00  0.00    +0.000 C 
ATOM     14  O   UNL     1       2.076  12.248  18.416  0.00  0.00    +0.000 OA
BRANCH  13  21
ATOM     15  C   UNL     1       0.767  10.115  21.529  0.00  0.00    +0.000 C 
ATOM     16  C   UNL     1       1.296   9.445  20.289  0.00  0.00    +0.000 A 
ATOM     17  C   UNL     1       1.652   8.089  20.392  0.00  0.00    +0.000 A 
ATOM     18  C   UNL     1       2.028   7.351  19.272  0.00  0.00    +0.000 A 
ATOM     19  C   UNL     1       1.964   7.941  18.017  0.00  0.00    +0.000 A 
ATOM     20  C   UNL     1       1.640   9.297  17.898  0.00  0.00    +0.000 A 
ATOM     21  C   UNL     1       1.398  10.085  19.031  0.00  0.00    +0.000 A 
BRANCH  18  22
ATOM     22  O   UNL     1       2.357   6.051  19.515  0.00  0.00    +0.000 OA
BRANCH  22  23
ATOM     23  C   UNL     1       2.767   5.295  18.373  0.00  0.00    +0.000 C 
BRANCH  23  24
ATOM     24  C   UNL     1       1.777   4.138  18.172  0.00  0.00    +0.000 C 
ATOM     25  C   UNL     1       2.454   2.941  17.501  0.00  0.00    +0.000 C 
ATOM     26  C   UNL     1       1.166   3.728  19.510  0.00  0.00    +0.000 C 
ENDBRANCH  23  24
ENDBRANCH  22  23
ENDBRANCH  18  22
ENDBRANCH  13  21
ENDBRANCH   1  13
BRANCH   2  27
ATOM     27  O   UNL     1       1.030  14.355  19.681  0.00  0.00    +0.000 OA
ATOM     28  H   UNL     1       0.781  15.117  20.251  0.00  0.00    +0.000 HD
ENDBRANCH   2  27
BRANCH   5  29
ATOM     29  C   UNL     1      -3.642  12.849  20.185  0.00  0.00    +0.000 C 
BRANCH  29  30
ATOM     30  C   UNL     1      -3.858  12.657  21.660  0.00  0.00    +0.000 A 
ATOM     31  C   UNL     1      -2.801  12.361  22.530  0.00  0.00    +0.000 A 
ATOM     32  C   UNL     1      -3.040  12.234  23.895  0.00  0.00    +0.000 A 
ATOM     33  C   UNL     1      -4.334  12.402  24.352  0.00  0.00    +0.000 A 
ATOM     34  N   UNL     1      -5.382  12.684  23.547  0.00  0.00    +0.000 NA
ATOM     35  C   UNL     1      -5.117  12.820  22.228  0.00  0.00    +0.000 A 
ENDBRANCH  29  30
ENDBRANCH   5  29
TORSDOF 9
ENDMDL
MODEL 7
REMARK VINA RESULT:      -6.8      0.953      1.574
REMARK  Name = 
REMARK  12 active torsions:
REMARK  status: ('A' for Active; 'I' for Inactive)
REMARK    1  A    between atoms: C_1  and  C_2
REMARK    2  A    between atoms: C_4  and  O_5
REMARK    3  A    between atoms: O_5  and  C_6
REMARK    4  A    between atoms: C_6  and  C_7
REMARK    5  A    between atoms: C_7  and  C_8
REMARK    6  A    between atoms: C_7  and  C_9
REMARK    7  A    between atoms: C_12  and  C_13
REMARK    8  A    between atoms: C_13  and  C_15
REMARK    9  A    between atoms: C_16  and  O_17
REMARK   10  A    between atoms: N_20  and  C_21
REMARK   11  A    between atoms: C_21  and  C_22
REMARK   12  A    between atoms: C_28  and  C_29
REMARK                            x       y       z     vdW  Elec       q    Type
REMARK                         _______ _______ _______ _____ _____    ______ ____
ROOT
ATOM      1  C   UNL     1       1.253  11.614  19.345  0.00  0.00    +0.000 C 
ATOM      2  C   UNL     1       2.054  12.354  18.556  0.00  0.00    +0.000 C 
ATOM      3  C   UNL     1       2.481  13.544  19.323  0.00  0.00    +0.000 C 
ATOM      4  O   UNL     1       3.261  14.398  18.947  0.00  0.00    +0.000 OA
ATOM      5  N   UNL     1       1.841  13.478  20.546  0.00  0.00    +0.000 N 
ATOM      6  C   UNL     1       1.063  12.259  20.692  0.00  0.00    +0.000 C 
ENDROOT
BRANCH   6   7
ATOM      7  C   UNL     1      -0.364  12.554  21.106  0.00  0.00    +0.000 A 
ATOM      8  C   UNL     1      -0.887  12.143  22.339  0.00  0.00    +0.000 A 
ATOM      9  C   UNL     1      -2.212  12.427  22.633  0.00  0.00    +0.000 A 
ATOM     10  N   UNL     1      -3.044  13.085  21.797  0.00  0.00    +0.000 NA
ATOM     11  C   UNL     1      -2.534  13.462  20.608  0.00  0.00    +0.000 A 
ATOM     12  C   UNL     1      -1.228  13.210  20.219  0.00  0.00    +0.000 A 
ENDBRANCH   6   7
BRANCH   1  13
ATOM     13  C   UNL     1       0.726  10.331  18.801  0.00  0.00    +0.000 C 
ATOM     14  O   UNL     1      -0.337  10.356  18.174  0.00  0.00    +0.000 OA
BRANCH  13  21
ATOM     15  C   UNL     1       0.367   8.673  21.317  0.00  0.00    +0.000 C 
ATOM     16  C   UNL     1       1.314   8.306  20.205  0.00  0.00    +0.000 A 
ATOM     17  C   UNL     1       2.094   7.149  20.379  0.00  0.00    +0.000 A 
ATOM     18  C   UNL     1       2.901   6.659  19.356  0.00  0.00    +0.000 A 
ATOM     19  C   UNL     1       2.868   7.272  18.111  0.00  0.00    +0.000 A 
ATOM     20  C   UNL     1       2.121   8.440  17.928  0.00  0.00    +0.000 A 
ATOM     21  C   UNL     1       1.417   9.023  18.990  0.00  0.00    +0.000 A 
BRANCH  18  22
ATOM     22  O   UNL     1       3.612   5.536  19.662  0.00  0.00    +0.000 OA
BRANCH  22  23
ATOM     23  C   UNL     1       4.810   5.340  18.908  0.00  0.00    +0.000 C 
BRANCH  23  24
ATOM     24  C   UNL     1       4.684   4.028  18.122  0.00  0.00    +0.000 C 
ATOM     25  C   UNL     1       3.394   3.287  18.486  0.00  0.00    +0.000 C 
ATOM     26  C   UNL     1       4.737   4.304  16.621  0.00  0.00    +0.000 C 
ENDBRANCH  23  24
ENDBRANCH  22  23
ENDBRANCH  18  22
ENDBRANCH  13  21
ENDBRANCH   1  13
BRANCH   2  27
ATOM     27  O   UNL     1       2.467  12.105  17.276  0.00  0.00    +0.000 OA
ATOM     28  H   UNL     1       1.993  12.736  16.690  0.00  0.00    +0.000 HD
ENDBRANCH   2  27
BRANCH   5  29
ATOM     29  C   UNL     1       2.111  14.413  21.623  0.00  0.00    +0.000 C 
BRANCH  29  30
ATOM     30  C   UNL     1       1.122  15.543  21.695  0.00  0.00    +0.000 A 
ATOM     31  C   UNL     1       0.956  16.449  20.641  0.00  0.00    +0.000 A 
ATOM     32  C   UNL     1      -0.001  17.456  20.733  0.00  0.00    +0.000 A 
ATOM     33  C   UNL     1      -0.763  17.530  21.885  0.00  0.00    +0.000 A 
ATOM     34  N   UNL     1      -0.632  16.680  22.927  0.00  0.00    +0.000 NA
ATOM     35  C   UNL     1       0.293  15.701  22.801  0.00  0.00    +0.000 A 
ENDBRANCH  29  30
ENDBRANCH   5  29
TORSDOF 9
ENDMDL
MODEL 8
REMARK VINA RESULT:      -6.7      1.855      2.823
REMARK  Name = 
REMARK  12 active torsions:
REMARK  status: ('A' for Active; 'I' for Inactive)
REMARK    1  A    between atoms: C_1  and  C_2
REMARK    2  A    between atoms: C_4  and  O_5
REMARK    3  A    between atoms: O_5  and  C_6
REMARK    4  A    between atoms: C_6  and  C_7
REMARK    5  A    between atoms: C_7  and  C_8
REMARK    6  A    between atoms: C_7  and  C_9
REMARK    7  A    between atoms: C_12  and  C_13
REMARK    8  A    between atoms: C_13  and  C_15
REMARK    9  A    between atoms: C_16  and  O_17
REMARK   10  A    between atoms: N_20  and  C_21
REMARK   11  A    between atoms: C_21  and  C_22
REMARK   12  A    between atoms: C_28  and  C_29
REMARK                            x       y       z     vdW  Elec       q    Type
REMARK                         _______ _______ _______ _____ _____    ______ ____
ROOT
ATOM      1  C   UNL     1       1.547  12.304  19.259  0.00  0.00    +0.000 C 
ATOM      2  C   UNL     1       2.424  12.660  18.302  0.00  0.00    +0.000 C 
ATOM      3  C   UNL     1       3.191  13.826  18.793  0.00  0.00    +0.000 C 
ATOM      4  O   UNL     1       4.113  14.372  18.218  0.00  0.00    +0.000 OA
ATOM      5  N   UNL     1       2.670  14.149  20.032  0.00  0.00    +0.000 N 
ATOM      6  C   UNL     1       1.642  13.213  20.455  0.00  0.00    +0.000 C 
ENDROOT
BRANCH   6   7
ATOM      7  C   UNL     1       0.371  13.928  20.865  0.00  0.00    +0.000 A 
ATOM      8  C   UNL     1      -0.343  14.751  19.984  0.00  0.00    +0.000 A 
ATOM      9  C   UNL     1      -1.483  15.394  20.442  0.00  0.00    +0.000 A 
ATOM     10  N   UNL     1      -1.957  15.277  21.701  0.00  0.00    +0.000 NA
ATOM     11  C   UNL     1      -1.254  14.494  22.543  0.00  0.00    +0.000 A 
ATOM     12  C   UNL     1      -0.096  13.824  22.182  0.00  0.00    +0.000 A 
ENDBRANCH   6   7
BRANCH   1  13
ATOM     13  C   UNL     1       0.682  11.117  19.009  0.00  0.00    +0.000 C 
ATOM     14  O   UNL     1      -0.485  11.309  18.661  0.00  0.00    +0.000 OA
BRANCH  13  21
ATOM     15  C   UNL     1       0.264   9.564  21.582  0.00  0.00    +0.000 C 
ATOM     16  C   UNL     1       1.043   9.035  20.407  0.00  0.00    +0.000 A 
ATOM     17  C   UNL     1       1.632   7.765  20.544  0.00  0.00    +0.000 A 
ATOM     18  C   UNL     1       2.260   7.139  19.471  0.00  0.00    +0.000 A 
ATOM     19  C   UNL     1       2.225   7.738  18.219  0.00  0.00    +0.000 A 
ATOM     20  C   UNL     1       1.668   9.012  18.070  0.00  0.00    +0.000 A 
ATOM     21  C   UNL     1       1.161   9.713  19.171  0.00  0.00    +0.000 A 
BRANCH  18  22
ATOM     22  O   UNL     1       2.798   5.916  19.743  0.00  0.00    +0.000 OA
BRANCH  22  23
ATOM     23  C   UNL     1       2.170   5.189  20.802  0.00  0.00    +0.000 C 
BRANCH  23  24
ATOM     24  C   UNL     1       1.294   4.088  20.187  0.00  0.00    +0.000 C 
ATOM     25  C   UNL     1       1.816   3.672  18.809  0.00  0.00    +0.000 C 
ATOM     26  C   UNL     1       1.227   2.882  21.121  0.00  0.00    +0.000 C 
ENDBRANCH  23  24
ENDBRANCH  22  23
ENDBRANCH  18  22
ENDBRANCH  13  21
ENDBRANCH   1  13
BRANCH   2  27
ATOM     27  O   UNL     1       2.645  12.083  17.081  0.00  0.00    +0.000 OA
ATOM     28  H   UNL     1       2.967  11.169  17.247  0.00  0.00    +0.000 HD
ENDBRANCH   2  27
BRANCH   5  29
ATOM     29  C   UNL     1       3.254  15.169  20.884  0.00  0.00    +0.000 C 
BRANCH  29  30
ATOM     30  C   UNL     1       4.591  14.782  21.450  0.00  0.00    +0.000 A 
ATOM     31  C   UNL     1       4.725  13.766  22.404  0.00  0.00    +0.000 A 
ATOM     32  C   UNL     1       5.988  13.411  22.870  0.00  0.00    +0.000 A 
ATOM     33  C   UNL     1       7.084  14.090  22.369  0.00  0.00    +0.000 A 
ATOM     34  N   UNL     1       6.999  15.078  21.452  0.00  0.00    +0.000 NA
ATOM     35  C   UNL     1       5.761  15.388  21.005  0.00  0.00    +0.000 A 
ENDBRANCH  29  30
ENDBRANCH   5  29
TORSDOF 9
ENDMDL
MODEL 9
REMARK VINA RESULT:      -6.7      3.555      8.659
REMARK  Name = 
REMARK  12 active torsions:
REMARK  status: ('A' for Active; 'I' for Inactive)
REMARK    1  A    between atoms: C_1  and  C_2
REMARK    2  A    between atoms: C_4  and  O_5
REMARK    3  A    between atoms: O_5  and  C_6
REMARK    4  A    between atoms: C_6  and  C_7
REMARK    5  A    between atoms: C_7  and  C_8
REMARK    6  A    between atoms: C_7  and  C_9
REMARK    7  A    between atoms: C_12  and  C_13
REMARK    8  A    between atoms: C_13  and  C_15
REMARK    9  A    between atoms: C_16  and  O_17
REMARK   10  A    between atoms: N_20  and  C_21
REMARK   11  A    between atoms: C_21  and  C_22
REMARK   12  A    between atoms: C_28  and  C_29
REMARK                            x       y       z     vdW  Elec       q    Type
REMARK                         _______ _______ _______ _____ _____    ______ ____
ROOT
ATOM      1  C   UNL     1       1.768   8.318  18.761  0.00  0.00    +0.000 C 
ATOM      2  C   UNL     1       2.921   7.744  18.370  0.00  0.00    +0.000 C 
ATOM      3  C   UNL     1       3.123   6.522  19.178  0.00  0.00    +0.000 C 
ATOM      4  O   UNL     1       4.028   5.719  19.050  0.00  0.00    +0.000 OA
ATOM      5  N   UNL     1       2.076   6.466  20.078  0.00  0.00    +0.000 N 
ATOM      6  C   UNL     1       1.118   7.540  19.874  0.00  0.00    +0.000 C 
ENDROOT
BRANCH   6   7
ATOM      7  C   UNL     1       0.845   8.295  21.158  0.00  0.00    +0.000 A 
ATOM      8  C   UNL     1      -0.454   8.533  21.625  0.00  0.00    +0.000 A 
ATOM      9  C   UNL     1      -0.623   9.258  22.796  0.00  0.00    +0.000 A 
ATOM     10  N   UNL     1       0.398   9.755  23.527  0.00  0.00    +0.000 NA
ATOM     11  C   UNL     1       1.642   9.531  23.059  0.00  0.00    +0.000 A 
ATOM     12  C   UNL     1       1.910   8.833  21.893  0.00  0.00    +0.000 A 
ENDBRANCH   6   7
BRANCH   1  13
ATOM     13  C   UNL     1       1.326   9.554  18.056  0.00  0.00    +0.000 C 
ATOM     14  O   UNL     1       2.158  10.173  17.388  0.00  0.00    +0.000 OA
BRANCH  13  21
ATOM     15  C   UNL     1       0.564  11.834  19.907  0.00  0.00    +0.000 C 
ATOM     16  C   UNL     1      -0.429  11.077  19.065  0.00  0.00    +0.000 A 
ATOM     17  C   UNL     1      -1.783  11.437  19.187  0.00  0.00    +0.000 A 
ATOM     18  C   UNL     1      -2.756  10.886  18.358  0.00  0.00    +0.000 A 
ATOM     19  C   UNL     1      -2.372  10.032  17.333  0.00  0.00    +0.000 A 
ATOM     20  C   UNL     1      -1.034   9.641  17.215  0.00  0.00    +0.000 A 
ATOM     21  C   UNL     1      -0.069  10.078  18.131  0.00  0.00    +0.000 A 
BRANCH  18  22
ATOM     22  O   UNL     1      -4.029  11.314  18.590  0.00  0.00    +0.000 OA
BRANCH  22  23
ATOM     23  C   UNL     1      -4.787  11.656  17.427  0.00  0.00    +0.000 C 
BRANCH  23  24
ATOM     24  C   UNL     1      -6.267  11.759  17.821  0.00  0.00    +0.000 C 
ATOM     25  C   UNL     1      -6.430  11.842  19.341  0.00  0.00    +0.000 C 
ATOM     26  C   UNL     1      -6.910  12.968  17.146  0.00  0.00    +0.000 C 
ENDBRANCH  23  24
ENDBRANCH  22  23
ENDBRANCH  18  22
ENDBRANCH  13  21
ENDBRANCH   1  13
BRANCH   2  27
ATOM     27  O   UNL     1       3.790   8.143  17.391  0.00  0.00    +0.000 OA
ATOM     28  H   UNL     1       3.909   9.114  17.487  0.00  0.00    +0.000 HD
ENDBRANCH   2  27
BRANCH   5  29
ATOM     29  C   UNL     1       1.863   5.333  20.961  0.00  0.00    +0.000 C 
BRANCH  29  30
ATOM     30  C   UNL     1       1.831   4.013  20.244  0.00  0.00    +0.000 A 
ATOM     31  C   UNL     1       0.753   3.637  19.434  0.00  0.00    +0.000 A 
ATOM     32  C   UNL     1       0.784   2.422  18.754  0.00  0.00    +0.000 A 
ATOM     33  C   UNL     1       1.896   1.615  18.908  0.00  0.00    +0.000 A 
ATOM     34  N   UNL     1       2.955   1.937  19.683  0.00  0.00    +0.000 NA
ATOM     35  C   UNL     1       2.904   3.131  20.316  0.00  0.00    +0.000 A 
ENDBRANCH  29  30
ENDBRANCH   5  29
TORSDOF 9
ENDMDL
