MODEL 1
REMARK VINA RESULT:      -8.0      0.000      0.000
REMARK  Name = 
REMARK  9 active torsions:
REMARK  status: ('A' for Active; 'I' for Inactive)
REMARK    1  A    between atoms: C_1  and  C_2
REMARK    2  A    between atoms: C_2  and  C_3
REMARK    3  A    between atoms: C_2  and  C_4
REMARK    4  A    between atoms: C_2  and  N_5
REMARK    5  A    between atoms: N_5  and  C_6
REMARK    6  A    between atoms: C_6  and  C_7
REMARK    7  A    between atoms: C_12  and  C_13
REMARK    8  A    between atoms: C_13  and  N_14
REMARK    9  A    between atoms: C_15  and  C_17
REMARK                            x       y       z     vdW  Elec       q    Type
REMARK                         _______ _______ _______ _____ _____    ______ ____
ROOT
ATOM      1  C   UNL     1       2.377   5.832  19.947  0.00  0.00    +0.000 A 
ATOM      2  C   UNL     1       2.448   6.409  18.707  0.00  0.00    +0.000 A 
ATOM      3  C   UNL     1       2.031   7.751  18.824  0.00  0.00    +0.000 A 
ATOM      4  C   UNL     1       1.895   8.784  17.904  0.00  0.00    +0.000 A 
ATOM      5  C   UNL     1       1.421  10.025  18.340  0.00  0.00    +0.000 A 
ATOM      6  C   UNL     1       1.081  10.260  19.683  0.00  0.00    +0.000 A 
ATOM      7  C   UNL     1       1.230   9.218  20.623  0.00  0.00    +0.000 A 
ATOM      8  C   UNL     1       1.710   7.976  20.164  0.00  0.00    +0.000 A 
ATOM      9  N   UNL     1       1.947   6.792  20.837  0.00  0.00    +0.000 N 
ATOM     10  H   UNL     1       1.813   6.648  21.824  0.00  0.00    +0.000 HD
ENDROOT
BRANCH   1  11
ATOM     11  C   UNL     1       2.644   4.432  20.345  0.00  0.00    +0.000 C 
BRANCH  11  12
ATOM     12  N   UNL     1       3.482   3.778  19.334  0.00  0.00    +0.000 NA
ATOM     13  H   UNL     1       3.777   4.494  18.672  0.00  0.00    +0.000 HD
BRANCH  12  15
ATOM     14  C   UNL     1       1.488   2.351  19.346  0.00  0.00    +0.000 C 
ATOM     15  C   UNL     1       2.779   2.709  18.596  0.00  0.00    +0.000 C 
ATOM     16  C   UNL     1       3.651   1.447  18.462  0.00  0.00    +0.000 C 
ATOM     17  C   UNL     1       2.398   3.222  17.190  0.00  0.00    +0.000 C 
ENDBRANCH  12  15
ENDBRANCH  11  12
ENDBRANCH   1  11
BRANCH   6  18
ATOM     18  C   UNL     1       0.549  11.607  20.139  0.00  0.00    +0.000 C 
BRANCH  18  19
ATOM     19  N   UNL     1      -0.891  11.677  20.194  0.00  0.00    +0.000 N 
ATOM     20  C   UNL     1      -1.629  12.303  19.208  0.00  0.00    +0.000 C 
ATOM     21  O   UNL     1      -1.144  12.839  18.228  0.00  0.00    +0.000 OA
ATOM     22  H   UNL     1      -1.405  11.053  20.811  0.00  0.00    +0.000 HD
BRANCH  20  23
ATOM     23  C   UNL     1      -3.136  12.218  19.429  0.00  0.00    +0.000 A 
ATOM     24  C   UNL     1      -3.865  11.685  18.445  0.00  0.00    +0.000 A 
ATOM     25  C   UNL     1      -5.316  11.519  18.660  0.00  0.00    +0.000 A 
ATOM     26  O   UNL     1      -5.993  11.021  17.763  0.00  0.00    +0.000 OA
ATOM     27  N   UNL     1      -5.793  11.936  19.895  0.00  0.00    +0.000 N 
ATOM     28  C   UNL     1      -7.147  11.785  20.185  0.00  0.00    +0.000 A 
ATOM     29  C   UNL     1      -7.664  12.176  21.358  0.00  0.00    +0.000 A 
ATOM     30  C   UNL     1      -6.813  12.774  22.352  0.00  0.00    +0.000 A 
ATOM     31  C   UNL     1      -5.506  12.936  22.117  0.00  0.00    +0.000 A 
ATOM     32  C   UNL     1      -4.925  12.495  20.820  0.00  0.00    +0.000 A 
ATOM     33  N   UNL     1      -3.647  12.651  20.633  0.00  0.00    +0.000 NA
ENDBRANCH  20  23
ENDBRANCH  18  19
ENDBRANCH   6  18
TORSDOF 6
ENDMDL
MODEL 2
REMARK VINA RESULT:      -7.9      4.028      6.630
REMARK  Name = 
REMARK  9 active torsions:
REMARK  status: ('A' for Active; 'I' for Inactive)
REMARK    1  A    between atoms: C_1  and  C_2
REMARK    2  A    between atoms: C_2  and  C_3
REMARK    3  A    between atoms: C_2  and  C_4
REMARK    4  A    between atoms: C_2  and  N_5
REMARK    5  A    between atoms: N_5  and  C_6
REMARK    6  A    between atoms: C_6  and  C_7
REMARK    7  A    between atoms: C_12  and  C_13
REMARK    8  A    between atoms: C_13  and  N_14
REMARK    9  A    between atoms: C_15  and  C_17
REMARK                            x       y       z     vdW  Elec       q    Type
REMARK                         _______ _______ _______ _____ _____    ______ ____
ROOT
ATOM      1  C   UNL     1       6.418   4.256  15.197  0.00  0.00    +0.000 A 
ATOM      2  C   UNL     1       7.125   4.888  16.185  0.00  0.00    +0.000 A 
ATOM      3  C   UNL     1       6.296   4.984  17.322  0.00  0.00    +0.000 A 
ATOM      4  C   UNL     1       6.483   5.530  18.587  0.00  0.00    +0.000 A 
ATOM      5  C   UNL     1       5.431   5.489  19.507  0.00  0.00    +0.000 A 
ATOM      6  C   UNL     1       4.190   4.908  19.193  0.00  0.00    +0.000 A 
ATOM      7  C   UNL     1       4.001   4.342  17.915  0.00  0.00    +0.000 A 
ATOM      8  C   UNL     1       5.072   4.393  17.002  0.00  0.00    +0.000 A 
ATOM      9  N   UNL     1       5.177   3.937  15.702  0.00  0.00    +0.000 N 
ATOM     10  H   UNL     1       4.452   3.457  15.194  0.00  0.00    +0.000 HD
ENDROOT
BRANCH   1  11
ATOM     11  C   UNL     1       6.814   3.970  13.800  0.00  0.00    +0.000 C 
BRANCH  11  12
ATOM     12  N   UNL     1       5.975   2.897  13.254  0.00  0.00    +0.000 NA
ATOM     13  H   UNL     1       6.390   2.011  13.539  0.00  0.00    +0.000 HD
BRANCH  12  15
ATOM     14  C   UNL     1       6.838   3.994  11.238  0.00  0.00    +0.000 C 
ATOM     15  C   UNL     1       5.878   2.925  11.780  0.00  0.00    +0.000 C 
ATOM     16  C   UNL     1       4.448   3.248  11.314  0.00  0.00    +0.000 C 
ATOM     17  C   UNL     1       6.307   1.554  11.213  0.00  0.00    +0.000 C 
ENDBRANCH  12  15
ENDBRANCH  11  12
ENDBRANCH   1  11
BRANCH   6  18
ATOM     18  C   UNL     1       3.051   4.889  20.196  0.00  0.00    +0.000 C 
BRANCH  18  19
ATOM     19  N   UNL     1       2.483   6.187  20.460  0.00  0.00    +0.000 N 
ATOM     20  C   UNL     1       2.109   7.041  19.439  0.00  0.00    +0.000 C 
ATOM     21  O   UNL     1       2.223   6.781  18.255  0.00  0.00    +0.000 OA
ATOM     22  H   UNL     1       2.106   6.398  21.381  0.00  0.00    +0.000 HD
BRANCH  20  23
ATOM     23  C   UNL     1       1.480   8.341  19.932  0.00  0.00    +0.000 A 
ATOM     24  C   UNL     1       1.512   9.384  19.100  0.00  0.00    +0.000 A 
ATOM     25  C   UNL     1       0.845  10.633  19.518  0.00  0.00    +0.000 A 
ATOM     26  O   UNL     1       0.862  11.596  18.754  0.00  0.00    +0.000 OA
ATOM     27  N   UNL     1       0.228  10.600  20.761  0.00  0.00    +0.000 N 
ATOM     28  C   UNL     1      -0.449  11.730  21.214  0.00  0.00    +0.000 A 
ATOM     29  C   UNL     1      -1.055  11.756  22.408  0.00  0.00    +0.000 A 
ATOM     30  C   UNL     1      -1.013  10.597  23.258  0.00  0.00    +0.000 A 
ATOM     31  C   UNL     1      -0.377   9.489  22.863  0.00  0.00    +0.000 A 
ATOM     32  C   UNL     1       0.291   9.450  21.534  0.00  0.00    +0.000 A 
ATOM     33  N   UNL     1       0.885   8.350  21.175  0.00  0.00    +0.000 NA
ENDBRANCH  20  23
ENDBRANCH  18  19
ENDBRANCH   6  18
TORSDOF 6
ENDMDL
MODEL 3
REMARK VINA RESULT:      -7.9      8.699     10.286
REMARK  Name = 
REMARK  9 active torsions:
REMARK  status: ('A' for Active; 'I' for Inactive)
REMARK    1  A    between atoms: C_1  and  C_2
REMARK    2  A    between atoms: C_2  and  C_3
REMARK    3  A    between atoms: C_2  and  C_4
REMARK    4  A    between atoms: C_2  and  N_5
REMARK    5  A    between atoms: N_5  and  C_6
REMARK    6  A    between atoms: C_6  and  C_7
REMARK    7  A    between atoms: C_12  and  C_13
REMARK    8  A    between atoms: C_13  and  N_14
REMARK    9  A    between atoms: C_15  and  C_17
REMARK                            x       y       z     vdW  Elec       q    Type
REMARK                         _______ _______ _______ _____ _____    ______ ____
ROOT
ATOM      1  C   UNL     1       4.549   4.583  17.544  0.00  0.00    +0.000 A 
ATOM      2  C   UNL     1       5.564   4.346  18.432  0.00  0.00    +0.000 A 
ATOM      3  C   UNL     1       6.435   5.455  18.408  0.00  0.00    +0.000 A 
ATOM      4  C   UNL     1       7.614   5.750  19.084  0.00  0.00    +0.000 A 
ATOM      5  C   UNL     1       8.270   6.954  18.813  0.00  0.00    +0.000 A 
ATOM      6  C   UNL     1       7.772   7.879  17.879  0.00  0.00    +0.000 A 
ATOM      7  C   UNL     1       6.568   7.590  17.201  0.00  0.00    +0.000 A 
ATOM      8  C   UNL     1       5.922   6.373  17.488  0.00  0.00    +0.000 A 
ATOM      9  N   UNL     1       4.756   5.825  16.986  0.00  0.00    +0.000 N 
ATOM     10  H   UNL     1       4.157   6.260  16.305  0.00  0.00    +0.000 HD
ENDROOT
BRANCH   1  11
ATOM     11  C   UNL     1       3.423   3.706  17.154  0.00  0.00    +0.000 C 
BRANCH  11  12
ATOM     12  N   UNL     1       2.312   3.872  18.097  0.00  0.00    +0.000 NA
ATOM     13  H   UNL     1       2.511   4.698  18.661  0.00  0.00    +0.000 HD
BRANCH  12  15
ATOM     14  C   UNL     1       0.677   2.232  18.900  0.00  0.00    +0.000 C 
ATOM     15  C   UNL     1       2.131   2.715  18.997  0.00  0.00    +0.000 C 
ATOM     16  C   UNL     1       2.444   3.080  20.458  0.00  0.00    +0.000 C 
ATOM     17  C   UNL     1       3.056   1.564  18.545  0.00  0.00    +0.000 C 
ENDBRANCH  12  15
ENDBRANCH  11  12
ENDBRANCH   1  11
BRANCH   6  18
ATOM     18  C   UNL     1       8.506   9.174  17.581  0.00  0.00    +0.000 C 
BRANCH  18  19
ATOM     19  N   UNL     1       8.596  10.067  18.710  0.00  0.00    +0.000 N 
ATOM     20  C   UNL     1       9.580  11.033  18.799  0.00  0.00    +0.000 C 
ATOM     21  O   UNL     1      10.439  11.213  17.956  0.00  0.00    +0.000 OA
ATOM     22  H   UNL     1       7.798  10.181  19.330  0.00  0.00    +0.000 HD
BRANCH  20  23
ATOM     23  C   UNL     1       9.464  11.907  20.045  0.00  0.00    +0.000 A 
ATOM     24  C   UNL     1       9.854  13.179  19.933  0.00  0.00    +0.000 A 
ATOM     25  C   UNL     1       9.684  14.068  21.098  0.00  0.00    +0.000 A 
ATOM     26  O   UNL     1      10.031  15.243  21.001  0.00  0.00    +0.000 OA
ATOM     27  N   UNL     1       9.114  13.486  22.222  0.00  0.00    +0.000 N 
ATOM     28  C   UNL     1       8.892  14.267  23.354  0.00  0.00    +0.000 A 
ATOM     29  C   UNL     1       8.353  13.756  24.469  0.00  0.00    +0.000 A 
ATOM     30  C   UNL     1       7.992  12.364  24.516  0.00  0.00    +0.000 A 
ATOM     31  C   UNL     1       8.184  11.577  23.452  0.00  0.00    +0.000 A 
ATOM     32  C   UNL     1       8.775  12.141  22.208  0.00  0.00    +0.000 A 
ATOM     33  N   UNL     1       8.930  11.350  21.187  0.00  0.00    +0.000 NA
ENDBRANCH  20  23
ENDBRANCH  18  19
ENDBRANCH   6  18
TORSDOF 6
ENDMDL
MODEL 4
REMARK VINA RESULT:      -7.8      4.193     10.874
REMARK  Name = 
REMARK  9 active torsions:
REMARK  status: ('A' for Active; 'I' for Inactive)
REMARK    1  A    between atoms: C_1  and  C_2
REMARK    2  A    between atoms: C_2  and  C_3
REMARK    3  A    between atoms: C_2  and  C_4
REMARK    4  A    between atoms: C_2  and  N_5
REMARK    5  A    between atoms: N_5  and  C_6
REMARK    6  A    between atoms: C_6  and  C_7
REMARK    7  A    between atoms: C_12  and  C_13
REMARK    8  A    between atoms: C_13  and  N_14
REMARK    9  A    between atoms: C_15  and  C_17
REMARK                            x       y       z     vdW  Elec       q    Type
REMARK                         _______ _______ _______ _____ _____    ______ ____
ROOT
ATOM      1  C   UNL     1      -0.416  10.925  18.356  0.00  0.00    +0.000 A 
ATOM      2  C   UNL     1      -0.558  10.712  19.701  0.00  0.00    +0.000 A 
ATOM      3  C   UNL     1       0.244   9.608  20.058  0.00  0.00    +0.000 A 
ATOM      4  C   UNL     1       0.474   8.954  21.262  0.00  0.00    +0.000 A 
ATOM      5  C   UNL     1       1.327   7.846  21.282  0.00  0.00    +0.000 A 
ATOM      6  C   UNL     1       1.961   7.376  20.120  0.00  0.00    +0.000 A 
ATOM      7  C   UNL     1       1.741   8.045  18.897  0.00  0.00    +0.000 A 
ATOM      8  C   UNL     1       0.879   9.159  18.898  0.00  0.00    +0.000 A 
ATOM      9  N   UNL     1       0.475   9.993  17.872  0.00  0.00    +0.000 N 
ATOM     10  H   UNL     1       0.774   9.921  16.914  0.00  0.00    +0.000 HD
ENDROOT
BRANCH   1  11
ATOM     11  C   UNL     1      -1.091  11.916  17.489  0.00  0.00    +0.000 C 
BRANCH  11  12
ATOM     12  N   UNL     1      -2.512  12.001  17.842  0.00  0.00    +0.000 NA
ATOM     13  H   UNL     1      -2.603  11.705  18.813  0.00  0.00    +0.000 HD
BRANCH  12  15
ATOM     14  C   UNL     1      -3.451   9.747  17.629  0.00  0.00    +0.000 C 
ATOM     15  C   UNL     1      -3.375  11.146  17.002  0.00  0.00    +0.000 C 
ATOM     16  C   UNL     1      -2.829  11.027  15.568  0.00  0.00    +0.000 C 
ATOM     17  C   UNL     1      -4.801  11.739  16.962  0.00  0.00    +0.000 C 
ENDBRANCH  12  15
ENDBRANCH  11  12
ENDBRANCH   1  11
BRANCH   6  18
ATOM     18  C   UNL     1       2.870   6.159  20.153  0.00  0.00    +0.000 C 
BRANCH  18  19
ATOM     19  N   UNL     1       3.762   6.066  19.024  0.00  0.00    +0.000 N 
ATOM     20  C   UNL     1       3.777   4.960  18.196  0.00  0.00    +0.000 C 
ATOM     21  O   UNL     1       3.058   3.988  18.340  0.00  0.00    +0.000 OA
ATOM     22  H   UNL     1       4.207   6.905  18.660  0.00  0.00    +0.000 HD
BRANCH  20  23
ATOM     23  C   UNL     1       4.755   5.085  17.031  0.00  0.00    +0.000 A 
ATOM     24  C   UNL     1       5.816   5.874  17.211  0.00  0.00    +0.000 A 
ATOM     25  C   UNL     1       6.819   5.956  16.130  0.00  0.00    +0.000 A 
ATOM     26  O   UNL     1       7.805   6.672  16.292  0.00  0.00    +0.000 OA
ATOM     27  N   UNL     1       6.558   5.182  15.008  0.00  0.00    +0.000 N 
ATOM     28  C   UNL     1       7.473   5.182  13.956  0.00  0.00    +0.000 A 
ATOM     29  C   UNL     1       7.269   4.461  12.846  0.00  0.00    +0.000 A 
ATOM     30  C   UNL     1       6.078   3.663  12.719  0.00  0.00    +0.000 A 
ATOM     31  C   UNL     1       5.175   3.630  13.704  0.00  0.00    +0.000 A 
ATOM     32  C   UNL     1       5.400   4.423  14.944  0.00  0.00    +0.000 A 
ATOM     33  N   UNL     1       4.509   4.353  15.889  0.00  0.00    +0.000 NA
ENDBRANCH  20  23
ENDBRANCH  18  19
ENDBRANCH   6  18
TORSDOF 6
ENDMDL
MODEL 5
REMARK VINA RESULT:      -7.8      2.258      2.893
REMARK  Name = 
REMARK  9 active torsions:
REMARK  status: ('A' for Active; 'I' for Inactive)
REMARK    1  A    between atoms: C_1  and  C_2
REMARK    2  A    between atoms: C_2  and  C_3
REMARK    3  A    between atoms: C_2  and  C_4
REMARK    4  A    between atoms: C_2  and  N_5
REMARK    5  A    between atoms: N_5  and  C_6
REMARK    6  A    between atoms: C_6  and  C_7
REMARK    7  A    between atoms: C_12  and  C_13
REMARK    8  A    between atoms: C_13  and  N_14
REMARK    9  A    between atoms: C_15  and  C_17
REMARK                            x       y       z     vdW  Elec       q    Type
REMARK                         _______ _______ _______ _____ _____    ______ ____
ROOT
ATOM      1  C   UNL     1       3.323   5.847  18.650  0.00  0.00    +0.000 A 
ATOM      2  C   UNL     1       2.740   6.041  19.874  0.00  0.00    +0.000 A 
ATOM      3  C   UNL     1       2.093   7.295  19.858  0.00  0.00    +0.000 A 
ATOM      4  C   UNL     1       1.365   7.998  20.810  0.00  0.00    +0.000 A 
ATOM      5  C   UNL     1       0.863   9.261  20.486  0.00  0.00    +0.000 A 
ATOM      6  C   UNL     1       1.070   9.842  19.223  0.00  0.00    +0.000 A 
ATOM      7  C   UNL     1       1.798   9.126  18.249  0.00  0.00    +0.000 A 
ATOM      8  C   UNL     1       2.294   7.855  18.594  0.00  0.00    +0.000 A 
ATOM      9  N   UNL     1       3.034   6.942  17.865  0.00  0.00    +0.000 N 
ATOM     10  H   UNL     1       3.329   7.064  16.911  0.00  0.00    +0.000 HD
ENDROOT
BRANCH   1  11
ATOM     11  C   UNL     1       4.167   4.726  18.182  0.00  0.00    +0.000 C 
BRANCH  11  12
ATOM     12  N   UNL     1       5.093   5.197  17.147  0.00  0.00    +0.000 NA
ATOM     13  H   UNL     1       5.187   4.451  16.459  0.00  0.00    +0.000 HD
BRANCH  12  15
ATOM     14  C   UNL     1       6.442   5.316  19.190  0.00  0.00    +0.000 C 
ATOM     15  C   UNL     1       6.433   5.533  17.670  0.00  0.00    +0.000 C 
ATOM     16  C   UNL     1       6.808   6.994  17.367  0.00  0.00    +0.000 C 
ATOM     17  C   UNL     1       7.481   4.591  17.038  0.00  0.00    +0.000 C 
ENDBRANCH  12  15
ENDBRANCH  11  12
ENDBRANCH   1  11
BRANCH   6  18
ATOM     18  C   UNL     1       0.535  11.224  18.892  0.00  0.00    +0.000 C 
BRANCH  18  19
ATOM     19  N   UNL     1      -0.624  11.601  19.662  0.00  0.00    +0.000 N 
ATOM     20  C   UNL     1      -1.800  12.008  19.059  0.00  0.00    +0.000 C 
ATOM     21  O   UNL     1      -1.959  12.084  17.855  0.00  0.00    +0.000 OA
ATOM     22  H   UNL     1      -0.692  11.331  20.640  0.00  0.00    +0.000 HD
BRANCH  20  23
ATOM     23  C   UNL     1      -2.920  12.309  20.051  0.00  0.00    +0.000 A 
ATOM     24  C   UNL     1      -4.146  12.474  19.550  0.00  0.00    +0.000 A 
ATOM     25  C   UNL     1      -5.263  12.692  20.491  0.00  0.00    +0.000 A 
ATOM     26  O   UNL     1      -6.397  12.835  20.038  0.00  0.00    +0.000 OA
ATOM     27  N   UNL     1      -4.924  12.696  21.837  0.00  0.00    +0.000 N 
ATOM     28  C   UNL     1      -5.927  12.865  22.789  0.00  0.00    +0.000 A 
ATOM     29  C   UNL     1      -5.657  12.885  24.101  0.00  0.00    +0.000 A 
ATOM     30  C   UNL     1      -4.300  12.733  24.555  0.00  0.00    +0.000 A 
ATOM     31  C   UNL     1      -3.306  12.565  23.677  0.00  0.00    +0.000 A 
ATOM     32  C   UNL     1      -3.601  12.533  22.218  0.00  0.00    +0.000 A 
ATOM     33  N   UNL     1      -2.611  12.350  21.394  0.00  0.00    +0.000 NA
ENDBRANCH  20  23
ENDBRANCH  18  19
ENDBRANCH   6  18
TORSDOF 6
ENDMDL
MODEL 6
REMARK VINA RESULT:      -7.8      1.114      1.224
REMARK  Name = 
REMARK  9 active torsions:
REMARK  status: ('A' for Active; 'I' for Inactive)
REMARK    1  A    between atoms: C_1  and  C_2
REMARK    2  A    between atoms: C_2  and  C_3
REMARK    3  A    between atoms: C_2  and  C_4
REMARK    4  A    between atoms: C_2  and  N_5
REMARK    5  A    between atoms: N_5  and  C_6
REMARK    6  A    between atoms: C_6  and  C_7
REMARK    7  A    between atoms: C_12  and  C_13
REMARK    8  A    between atoms: C_13  and  N_14
REMARK    9  A    between atoms: C_15  and  C_17
REMARK                            x       y       z     vdW  Elec       q    Type
REMARK                         _______ _______ _______ _____ _____    ______ ____
ROOT
ATOM      1  C   UNL     1       2.225   6.282  20.074  0.00  0.00    +0.000 A 
ATOM      2  C   UNL     1       2.431   6.841  18.841  0.00  0.00    +0.000 A 
ATOM      3  C   UNL     1       2.005   8.184  18.892  0.00  0.00    +0.000 A 
ATOM      4  C   UNL     1       1.970   9.204  17.948  0.00  0.00    +0.000 A 
ATOM      5  C   UNL     1       1.451  10.450  18.312  0.00  0.00    +0.000 A 
ATOM      6  C   UNL     1       0.967  10.704  19.606  0.00  0.00    +0.000 A 
ATOM      7  C   UNL     1       1.012   9.676  20.571  0.00  0.00    +0.000 A 
ATOM      8  C   UNL     1       1.538   8.428  20.186  0.00  0.00    +0.000 A 
ATOM      9  N   UNL     1       1.701   7.254  20.897  0.00  0.00    +0.000 N 
ATOM     10  H   UNL     1       1.460   7.124  21.866  0.00  0.00    +0.000 HD
ENDROOT
BRANCH   1  11
ATOM     11  C   UNL     1       2.446   4.888  20.519  0.00  0.00    +0.000 C 
BRANCH  11  12
ATOM     12  N   UNL     1       3.263   4.174  19.532  0.00  0.00    +0.000 NA
ATOM     13  H   UNL     1       3.539   4.848  18.819  0.00  0.00    +0.000 HD
BRANCH  12  15
ATOM     14  C   UNL     1       1.345   2.663  19.747  0.00  0.00    +0.000 C 
ATOM     15  C   UNL     1       2.549   3.057  18.880  0.00  0.00    +0.000 C 
ATOM     16  C   UNL     1       3.462   1.832  18.698  0.00  0.00    +0.000 C 
ATOM     17  C   UNL     1       2.026   3.518  17.502  0.00  0.00    +0.000 C 
ENDBRANCH  12  15
ENDBRANCH  11  12
ENDBRANCH   1  11
BRANCH   6  18
ATOM     18  C   UNL     1       0.388  12.057  19.981  0.00  0.00    +0.000 C 
BRANCH  18  19
ATOM     19  N   UNL     1      -1.031  12.034  20.238  0.00  0.00    +0.000 N 
ATOM     20  C   UNL     1      -1.665  13.054  20.922  0.00  0.00    +0.000 C 
ATOM     21  O   UNL     1      -1.098  14.038  21.360  0.00  0.00    +0.000 OA
ATOM     22  H   UNL     1      -1.632  11.410  19.704  0.00  0.00    +0.000 HD
BRANCH  20  23
ATOM     23  C   UNL     1      -3.174  12.862  21.038  0.00  0.00    +0.000 A 
ATOM     24  C   UNL     1      -3.827  12.494  19.933  0.00  0.00    +0.000 A 
ATOM     25  C   UNL     1      -5.275  12.227  20.032  0.00  0.00    +0.000 A 
ATOM     26  O   UNL     1      -5.882  11.878  19.021  0.00  0.00    +0.000 OA
ATOM     27  N   UNL     1      -5.831  12.382  21.294  0.00  0.00    +0.000 N 
ATOM     28  C   UNL     1      -7.188  12.119  21.476  0.00  0.00    +0.000 A 
ATOM     29  C   UNL     1      -7.779  12.259  22.670  0.00  0.00    +0.000 A 
ATOM     30  C   UNL     1      -7.008  12.694  23.804  0.00  0.00    +0.000 A 
ATOM     31  C   UNL     1      -5.702  12.954  23.677  0.00  0.00    +0.000 A 
ATOM     32  C   UNL     1      -5.038  12.792  22.355  0.00  0.00    +0.000 A 
ATOM     33  N   UNL     1      -3.763  13.037  22.272  0.00  0.00    +0.000 NA
ENDBRANCH  20  23
ENDBRANCH  18  19
ENDBRANCH   6  18
TORSDOF 6
ENDMDL
MODEL 7
REMARK VINA RESULT:      -7.7      1.294      1.750
REMARK  Name = 
REMARK  9 active torsions:
REMARK  status: ('A' for Active; 'I' for Inactive)
REMARK    1  A    between atoms: C_1  and  C_2
REMARK    2  A    between atoms: C_2  and  C_3
REMARK    3  A    between atoms: C_2  and  C_4
REMARK    4  A    between atoms: C_2  and  N_5
REMARK    5  A    between atoms: N_5  and  C_6
REMARK    6  A    between atoms: C_6  and  C_7
REMARK    7  A    between atoms: C_12  and  C_13
REMARK    8  A    between atoms: C_13  and  N_14
REMARK    9  A    between atoms: C_15  and  C_17
REMARK                            x       y       z     vdW  Elec       q    Type
REMARK                         _______ _______ _______ _____ _____    ______ ____
ROOT
ATOM      1  C   UNL     1       2.212   6.051  19.897  0.00  0.00    +0.000 A 
ATOM      2  C   UNL     1       2.462   6.548  18.645  0.00  0.00    +0.000 A 
ATOM      3  C   UNL     1       2.173   7.929  18.657  0.00  0.00    +0.000 A 
ATOM      4  C   UNL     1       2.232   8.918  17.682  0.00  0.00    +0.000 A 
ATOM      5  C   UNL     1       1.844  10.220  18.010  0.00  0.00    +0.000 A 
ATOM      6  C   UNL     1       1.400  10.561  19.299  0.00  0.00    +0.000 A 
ATOM      7  C   UNL     1       1.351   9.563  20.295  0.00  0.00    +0.000 A 
ATOM      8  C   UNL     1       1.746   8.258  19.945  0.00  0.00    +0.000 A 
ATOM      9  N   UNL     1       1.796   7.096  20.692  0.00  0.00    +0.000 N 
ATOM     10  H   UNL     1       1.553   7.020  21.666  0.00  0.00    +0.000 HD
ENDROOT
BRANCH   1  11
ATOM     11  C   UNL     1       2.296   4.656  20.383  0.00  0.00    +0.000 C 
BRANCH  11  12
ATOM     12  N   UNL     1       3.254   3.901  19.568  0.00  0.00    +0.000 NA
ATOM     13  H   UNL     1       3.705   4.562  18.936  0.00  0.00    +0.000 HD
BRANCH  12  15
ATOM     14  C   UNL     1       1.253   2.499  19.372  0.00  0.00    +0.000 C 
ATOM     15  C   UNL     1       2.625   2.832  18.767  0.00  0.00    +0.000 C 
ATOM     16  C   UNL     1       3.489   1.558  18.746  0.00  0.00    +0.000 C 
ATOM     17  C   UNL     1       2.411   3.332  17.322  0.00  0.00    +0.000 C 
ENDBRANCH  12  15
ENDBRANCH  11  12
ENDBRANCH   1  11
BRANCH   6  18
ATOM     18  C   UNL     1       0.964  11.976  19.635  0.00  0.00    +0.000 C 
BRANCH  18  19
ATOM     19  N   UNL     1      -0.401  12.074  20.088  0.00  0.00    +0.000 N 
ATOM     20  C   UNL     1      -1.445  12.310  19.213  0.00  0.00    +0.000 C 
ATOM     21  O   UNL     1      -1.311  12.454  18.012  0.00  0.00    +0.000 OA
ATOM     22  H   UNL     1      -0.658  11.717  21.006  0.00  0.00    +0.000 HD
BRANCH  20  23
ATOM     23  C   UNL     1      -2.814  12.322  19.888  0.00  0.00    +0.000 A 
ATOM     24  C   UNL     1      -2.847  12.623  21.188  0.00  0.00    +0.000 A 
ATOM     25  C   UNL     1      -4.163  12.717  21.851  0.00  0.00    +0.000 A 
ATOM     26  O   UNL     1      -4.203  13.003  23.046  0.00  0.00    +0.000 OA
ATOM     27  N   UNL     1      -5.265  12.485  21.039  0.00  0.00    +0.000 N 
ATOM     28  C   UNL     1      -6.543  12.586  21.583  0.00  0.00    +0.000 A 
ATOM     29  C   UNL     1      -7.641  12.365  20.848  0.00  0.00    +0.000 A 
ATOM     30  C   UNL     1      -7.514  12.012  19.459  0.00  0.00    +0.000 A 
ATOM     31  C   UNL     1      -6.307  11.907  18.894  0.00  0.00    +0.000 A 
ATOM     32  C   UNL     1      -5.083  12.160  19.703  0.00  0.00    +0.000 A 
ATOM     33  N   UNL     1      -3.926  12.067  19.116  0.00  0.00    +0.000 NA
ENDBRANCH  20  23
ENDBRANCH  18  19
ENDBRANCH   6  18
TORSDOF 6
ENDMDL
MODEL 8
REMARK VINA RESULT:      -7.7      2.067      2.646
REMARK  Name = 
REMARK  9 active torsions:
REMARK  status: ('A' for Active; 'I' for Inactive)
REMARK    1  A    between atoms: C_1  and  C_2
REMARK    2  A    between atoms: C_2  and  C_3
REMARK    3  A    between atoms: C_2  and  C_4
REMARK    4  A    between atoms: C_2  and  N_5
REMARK    5  A    between atoms: N_5  and  C_6
REMARK    6  A    between atoms: C_6  and  C_7
REMARK    7  A    between atoms: C_12  and  C_13
REMARK    8  A    between atoms: C_13  and  N_14
REMARK    9  A    between atoms: C_15  and  C_17
REMARK                            x       y       z     vdW  Elec       q    Type
REMARK                         _______ _______ _______ _____ _____    ______ ____
ROOT
ATOM      1  C   UNL     1       3.408   5.219  18.518  0.00  0.00    +0.000 A 
ATOM      2  C   UNL     1       2.830   5.393  19.747  0.00  0.00    +0.000 A 
ATOM      3  C   UNL     1       2.281   6.692  19.794  0.00  0.00    +0.000 A 
ATOM      4  C   UNL     1       1.600   7.398  20.778  0.00  0.00    +0.000 A 
ATOM      5  C   UNL     1       1.199   8.711  20.518  0.00  0.00    +0.000 A 
ATOM      6  C   UNL     1       1.461   9.339  19.289  0.00  0.00    +0.000 A 
ATOM      7  C   UNL     1       2.142   8.622  18.282  0.00  0.00    +0.000 A 
ATOM      8  C   UNL     1       2.536   7.300  18.563  0.00  0.00    +0.000 A 
ATOM      9  N   UNL     1       3.211   6.372  17.791  0.00  0.00    +0.000 N 
ATOM     10  H   UNL     1       3.524   6.521  16.846  0.00  0.00    +0.000 HD
ENDROOT
BRANCH   1  11
ATOM     11  C   UNL     1       4.168   4.062  17.997  0.00  0.00    +0.000 C 
BRANCH  11  12
ATOM     12  N   UNL     1       4.278   4.155  16.537  0.00  0.00    +0.000 NA
ATOM     13  H   UNL     1       4.095   3.227  16.158  0.00  0.00    +0.000 HD
BRANCH  12  15
ATOM     14  C   UNL     1       6.071   3.691  14.931  0.00  0.00    +0.000 C 
ATOM     15  C   UNL     1       5.609   4.601  16.078  0.00  0.00    +0.000 C 
ATOM     16  C   UNL     1       6.646   4.546  17.214  0.00  0.00    +0.000 C 
ATOM     17  C   UNL     1       5.509   6.046  15.543  0.00  0.00    +0.000 C 
ENDBRANCH  12  15
ENDBRANCH  11  12
ENDBRANCH   1  11
BRANCH   6  18
ATOM     18  C   UNL     1       1.037  10.774  19.028  0.00  0.00    +0.000 C 
BRANCH  18  19
ATOM     19  N   UNL     1      -0.375  10.928  18.779  0.00  0.00    +0.000 N 
ATOM     20  C   UNL     1      -1.120  11.918  19.393  0.00  0.00    +0.000 C 
ATOM     21  O   UNL     1      -0.664  12.727  20.180  0.00  0.00    +0.000 OA
ATOM     22  H   UNL     1      -0.797  10.491  17.963  0.00  0.00    +0.000 HD
BRANCH  20  23
ATOM     23  C   UNL     1      -2.580  11.943  18.952  0.00  0.00    +0.000 A 
ATOM     24  C   UNL     1      -2.852  11.492  17.725  0.00  0.00    +0.000 A 
ATOM     25  C   UNL     1      -4.263  11.433  17.297  0.00  0.00    +0.000 A 
ATOM     26  O   UNL     1      -4.523  11.010  16.172  0.00  0.00    +0.000 OA
ATOM     27  N   UNL     1      -5.195  11.854  18.236  0.00  0.00    +0.000 N 
ATOM     28  C   UNL     1      -6.551  11.800  17.919  0.00  0.00    +0.000 A 
ATOM     29  C   UNL     1      -7.492  12.201  18.783  0.00  0.00    +0.000 A 
ATOM     30  C   UNL     1      -7.111  12.707  20.075  0.00  0.00    +0.000 A 
ATOM     31  C   UNL     1      -5.821  12.774  20.423  0.00  0.00    +0.000 A 
ATOM     32  C   UNL     1      -4.771  12.321  19.471  0.00  0.00    +0.000 A 
ATOM     33  N   UNL     1      -3.528  12.384  19.850  0.00  0.00    +0.000 NA
ENDBRANCH  20  23
ENDBRANCH  18  19
ENDBRANCH   6  18
TORSDOF 6
ENDMDL
MODEL 9
REMARK VINA RESULT:      -7.7      1.111      1.531
REMARK  Name = 
REMARK  9 active torsions:
REMARK  status: ('A' for Active; 'I' for Inactive)
REMARK    1  A    between atoms: C_1  and  C_2
REMARK    2  A    between atoms: C_2  and  C_3
REMARK    3  A    between atoms: C_2  and  C_4
REMARK    4  A    between atoms: C_2  and  N_5
REMARK    5  A    between atoms: N_5  and  C_6
REMARK    6  A    between atoms: C_6  and  C_7
REMARK    7  A    between atoms: C_12  and  C_13
REMARK    8  A    between atoms: C_13  and  N_14
REMARK    9  A    between atoms: C_15  and  C_17
REMARK                            x       y       z     vdW  Elec       q    Type
REMARK                         _______ _______ _______ _____ _____    ______ ____
ROOT
ATOM      1  C   UNL     1       2.939   6.532  18.766  0.00  0.00    +0.000 A 
ATOM      2  C   UNL     1       2.391   6.754  20.001  0.00  0.00    +0.000 A 
ATOM      3  C   UNL     1       1.725   7.997  19.968  0.00  0.00    +0.000 A 
ATOM      4  C   UNL     1       1.015   8.717  20.922  0.00  0.00    +0.000 A 
ATOM      5  C   UNL     1       0.484   9.963  20.577  0.00  0.00    +0.000 A 
ATOM      6  C   UNL     1       0.644  10.509  19.291  0.00  0.00    +0.000 A 
ATOM      7  C   UNL     1       1.352   9.775  18.316  0.00  0.00    +0.000 A 
ATOM      8  C   UNL     1       1.879   8.522  18.683  0.00  0.00    +0.000 A 
ATOM      9  N   UNL     1       2.610   7.599  17.959  0.00  0.00    +0.000 N 
ATOM     10  H   UNL     1       2.874   7.696  16.993  0.00  0.00    +0.000 HD
ENDROOT
BRANCH   1  11
ATOM     11  C   UNL     1       3.786   5.410  18.305  0.00  0.00    +0.000 C 
BRANCH  11  12
ATOM     12  N   UNL     1       2.940   4.326  17.792  0.00  0.00    +0.000 NA
ATOM     13  H   UNL     1       1.995   4.695  17.697  0.00  0.00    +0.000 HD
BRANCH  12  15
ATOM     14  C   UNL     1       1.568   3.136  19.439  0.00  0.00    +0.000 C 
ATOM     15  C   UNL     1       2.902   3.145  18.679  0.00  0.00    +0.000 C 
ATOM     16  C   UNL     1       4.060   3.162  19.693  0.00  0.00    +0.000 C 
ATOM     17  C   UNL     1       2.985   1.860  17.826  0.00  0.00    +0.000 C 
ENDBRANCH  12  15
ENDBRANCH  11  12
ENDBRANCH   1  11
BRANCH   6  18
ATOM     18  C   UNL     1       0.078  11.873  18.937  0.00  0.00    +0.000 C 
BRANCH  18  19
ATOM     19  N   UNL     1      -1.316  12.031  19.272  0.00  0.00    +0.000 N 
ATOM     20  C   UNL     1      -2.318  11.797  18.350  0.00  0.00    +0.000 C 
ATOM     21  O   UNL     1      -2.122  11.446  17.201  0.00  0.00    +0.000 OA
ATOM     22  H   UNL     1      -1.602  12.062  20.247  0.00  0.00    +0.000 HD
BRANCH  20  23
ATOM     23  C   UNL     1      -3.723  11.969  18.921  0.00  0.00    +0.000 A 
ATOM     24  C   UNL     1      -4.743  11.577  18.154  0.00  0.00    +0.000 A 
ATOM     25  C   UNL     1      -6.108  11.660  18.709  0.00  0.00    +0.000 A 
ATOM     26  O   UNL     1      -7.052  11.293  18.013  0.00  0.00    +0.000 OA
ATOM     27  N   UNL     1      -6.202  12.142  20.008  0.00  0.00    +0.000 N 
ATOM     28  C   UNL     1      -7.454  12.223  20.614  0.00  0.00    +0.000 A 
ATOM     29  C   UNL     1      -7.605  12.687  21.861  0.00  0.00    +0.000 A 
ATOM     30  C   UNL     1      -6.454  13.121  22.607  0.00  0.00    +0.000 A 
ATOM     31  C   UNL     1      -5.232  13.059  22.067  0.00  0.00    +0.000 A 
ATOM     32  C   UNL     1      -5.058  12.536  20.684  0.00  0.00    +0.000 A 
ATOM     33  N   UNL     1      -3.853  12.473  20.197  0.00  0.00    +0.000 NA
ENDBRANCH  20  23
ENDBRANCH  18  19
ENDBRANCH   6  18
TORSDOF 6
ENDMDL
