MODEL 1
REMARK VINA RESULT:      -8.2      0.000      0.000
REMARK  Name = 
REMARK  3 active torsions:
REMARK  status: ('A' for Active; 'I' for Inactive)
REMARK    1  A    between atoms: C_1  and  N_2
REMARK    2  A    between atoms: C_3  and  C_5
REMARK    3  A    between atoms: N_7  and  C_8
REMARK                            x       y       z     vdW  Elec       q    Type
REMARK                         _______ _______ _______ _____ _____    ______ ____
ROOT
ATOM      1  C   UNL     1       4.389   3.936  17.853  0.00  0.00    +0.000 A 
ATOM      2  C   UNL     1       4.985   3.790  16.655  0.00  0.00    +0.000 A 
ATOM      3  N   UNL     1       5.235   4.836  15.773  0.00  0.00    +0.000 N 
ATOM      4  C   UNL     1       4.835   6.151  16.058  0.00  0.00    +0.000 A 
ATOM      5  O   UNL     1       5.066   7.133  15.353  0.00  0.00    +0.000 OA
ATOM      6  C   UNL     1       4.008   6.331  17.281  0.00  0.00    +0.000 A 
ATOM      7  C   UNL     1       3.387   7.575  17.491  0.00  0.00    +0.000 A 
ATOM      8  C   UNL     1       2.600   7.784  18.619  0.00  0.00    +0.000 A 
ATOM      9  C   UNL     1       2.462   6.764  19.552  0.00  0.00    +0.000 A 
ATOM     10  C   UNL     1       3.077   5.524  19.341  0.00  0.00    +0.000 A 
ATOM     11  C   UNL     1       3.830   5.268  18.182  0.00  0.00    +0.000 A 
ENDROOT
BRANCH   3  12
ATOM     12  C   UNL     1       5.902   4.577  14.536  0.00  0.00    +0.000 A 
ATOM     13  C   UNL     1       7.144   5.161  14.253  0.00  0.00    +0.000 A 
ATOM     14  C   UNL     1       7.791   4.891  13.045  0.00  0.00    +0.000 A 
ATOM     15  C   UNL     1       7.185   4.064  12.099  0.00  0.00    +0.000 A 
ATOM     16  C   UNL     1       5.943   3.489  12.368  0.00  0.00    +0.000 A 
ATOM     17  C   UNL     1       5.314   3.728  13.590  0.00  0.00    +0.000 A 
ENDBRANCH   3  12
BRANCH   1  20
ATOM     18  C   UNL     1       4.907   1.445  20.681  0.00  0.00    +0.000 C 
ATOM     19  N   UNL     1       5.017   2.585  19.803  0.00  0.00    +0.000 N 
ATOM     20  C   UNL     1       4.198   2.702  18.701  0.00  0.00    +0.000 C 
ATOM     21  O   UNL     1       3.347   1.859  18.437  0.00  0.00    +0.000 OA
ATOM     22  H   UNL     1       5.585   3.362  20.110  0.00  0.00    +0.000 HD
ENDBRANCH   1  20
TORSDOF 2
ENDMDL
MODEL 2
REMARK VINA RESULT:      -8.2      0.031      1.055
REMARK  Name = 
REMARK  3 active torsions:
REMARK  status: ('A' for Active; 'I' for Inactive)
REMARK    1  A    between atoms: C_1  and  N_2
REMARK    2  A    between atoms: C_3  and  C_5
REMARK    3  A    between atoms: N_7  and  C_8
REMARK                            x       y       z     vdW  Elec       q    Type
REMARK                         _______ _______ _______ _____ _____    ______ ____
ROOT
ATOM      1  C   UNL     1       4.371   3.946  17.866  0.00  0.00    +0.000 A 
ATOM      2  C   UNL     1       4.962   3.792  16.667  0.00  0.00    +0.000 A 
ATOM      3  N   UNL     1       5.215   4.833  15.779  0.00  0.00    +0.000 N 
ATOM      4  C   UNL     1       4.820   6.151  16.059  0.00  0.00    +0.000 A 
ATOM      5  O   UNL     1       5.054   7.129  15.349  0.00  0.00    +0.000 OA
ATOM      6  C   UNL     1       3.998   6.340  17.284  0.00  0.00    +0.000 A 
ATOM      7  C   UNL     1       3.383   7.588  17.490  0.00  0.00    +0.000 A 
ATOM      8  C   UNL     1       2.600   7.805  18.619  0.00  0.00    +0.000 A 
ATOM      9  C   UNL     1       2.460   6.790  19.557  0.00  0.00    +0.000 A 
ATOM     10  C   UNL     1       3.069   5.546  19.350  0.00  0.00    +0.000 A 
ATOM     11  C   UNL     1       3.818   5.282  18.190  0.00  0.00    +0.000 A 
ENDROOT
BRANCH   3  12
ATOM     12  C   UNL     1       5.877   4.565  14.541  0.00  0.00    +0.000 A 
ATOM     13  C   UNL     1       5.299   3.718  13.587  0.00  0.00    +0.000 A 
ATOM     14  C   UNL     1       5.951   3.473  12.376  0.00  0.00    +0.000 A 
ATOM     15  C   UNL     1       7.198   4.044  12.128  0.00  0.00    +0.000 A 
ATOM     16  C   UNL     1       7.786   4.878  13.078  0.00  0.00    +0.000 A 
ATOM     17  C   UNL     1       7.119   5.154  14.272  0.00  0.00    +0.000 A 
ENDBRANCH   3  12
BRANCH   1  20
ATOM     18  C   UNL     1       4.928   1.434  20.668  0.00  0.00    +0.000 C 
ATOM     19  N   UNL     1       5.037   2.572  19.787  0.00  0.00    +0.000 N 
ATOM     20  C   UNL     1       4.177   2.717  18.719  0.00  0.00    +0.000 C 
ATOM     21  O   UNL     1       3.290   1.901  18.491  0.00  0.00    +0.000 OA
ATOM     22  H   UNL     1       5.641   3.330  20.071  0.00  0.00    +0.000 HD
ENDBRANCH   1  20
TORSDOF 2
ENDMDL
MODEL 3
REMARK VINA RESULT:      -8.2      2.463      6.366
REMARK  Name = 
REMARK  3 active torsions:
REMARK  status: ('A' for Active; 'I' for Inactive)
REMARK    1  A    between atoms: C_1  and  N_2
REMARK    2  A    between atoms: C_3  and  C_5
REMARK    3  A    between atoms: N_7  and  C_8
REMARK                            x       y       z     vdW  Elec       q    Type
REMARK                         _______ _______ _______ _____ _____    ______ ____
ROOT
ATOM      1  C   UNL     1       6.391   5.591  17.749  0.00  0.00    +0.000 A 
ATOM      2  C   UNL     1       5.411   5.279  18.617  0.00  0.00    +0.000 A 
ATOM      3  N   UNL     1       4.433   4.319  18.380  0.00  0.00    +0.000 N 
ATOM      4  C   UNL     1       4.369   3.617  17.166  0.00  0.00    +0.000 A 
ATOM      5  O   UNL     1       3.567   2.721  16.904  0.00  0.00    +0.000 OA
ATOM      6  C   UNL     1       5.314   4.060  16.105  0.00  0.00    +0.000 A 
ATOM      7  C   UNL     1       5.141   3.557  14.804  0.00  0.00    +0.000 A 
ATOM      8  C   UNL     1       5.997   3.951  13.782  0.00  0.00    +0.000 A 
ATOM      9  C   UNL     1       7.046   4.817  14.066  0.00  0.00    +0.000 A 
ATOM     10  C   UNL     1       7.216   5.321  15.361  0.00  0.00    +0.000 A 
ATOM     11  C   UNL     1       6.330   4.985  16.399  0.00  0.00    +0.000 A 
ENDROOT
BRANCH   3  12
ATOM     12  C   UNL     1       3.453   4.042  19.383  0.00  0.00    +0.000 A 
ATOM     13  C   UNL     1       3.622   2.977  20.277  0.00  0.00    +0.000 A 
ATOM     14  C   UNL     1       2.662   2.724  21.260  0.00  0.00    +0.000 A 
ATOM     15  C   UNL     1       1.513   3.510  21.332  0.00  0.00    +0.000 A 
ATOM     16  C   UNL     1       1.331   4.564  20.437  0.00  0.00    +0.000 A 
ATOM     17  C   UNL     1       2.307   4.841  19.479  0.00  0.00    +0.000 A 
ENDBRANCH   3  12
BRANCH   1  20
ATOM     18  C   UNL     1       8.185   8.945  17.844  0.00  0.00    +0.000 C 
ATOM     19  N   UNL     1       7.285   7.866  17.517  0.00  0.00    +0.000 N 
ATOM     20  C   UNL     1       7.385   6.650  18.160  0.00  0.00    +0.000 C 
ATOM     21  O   UNL     1       8.225   6.450  19.032  0.00  0.00    +0.000 OA
ATOM     22  H   UNL     1       6.487   8.079  16.936  0.00  0.00    +0.000 HD
ENDBRANCH   1  20
TORSDOF 2
ENDMDL
MODEL 4
REMARK VINA RESULT:      -8.2      2.447      6.371
REMARK  Name = 
REMARK  3 active torsions:
REMARK  status: ('A' for Active; 'I' for Inactive)
REMARK    1  A    between atoms: C_1  and  N_2
REMARK    2  A    between atoms: C_3  and  C_5
REMARK    3  A    between atoms: N_7  and  C_8
REMARK                            x       y       z     vdW  Elec       q    Type
REMARK                         _______ _______ _______ _____ _____    ______ ____
ROOT
ATOM      1  C   UNL     1       6.385   5.598  17.714  0.00  0.00    +0.000 A 
ATOM      2  C   UNL     1       5.403   5.290  18.582  0.00  0.00    +0.000 A 
ATOM      3  N   UNL     1       4.428   4.326  18.351  0.00  0.00    +0.000 N 
ATOM      4  C   UNL     1       4.369   3.614  17.143  0.00  0.00    +0.000 A 
ATOM      5  O   UNL     1       3.569   2.714  16.887  0.00  0.00    +0.000 OA
ATOM      6  C   UNL     1       5.315   4.050  16.081  0.00  0.00    +0.000 A 
ATOM      7  C   UNL     1       5.146   3.536  14.783  0.00  0.00    +0.000 A 
ATOM      8  C   UNL     1       6.004   3.922  13.760  0.00  0.00    +0.000 A 
ATOM      9  C   UNL     1       7.050   4.793  14.039  0.00  0.00    +0.000 A 
ATOM     10  C   UNL     1       7.216   5.308  15.331  0.00  0.00    +0.000 A 
ATOM     11  C   UNL     1       6.328   4.979  16.369  0.00  0.00    +0.000 A 
ENDROOT
BRANCH   3  12
ATOM     12  C   UNL     1       3.446   4.056  19.354  0.00  0.00    +0.000 A 
ATOM     13  C   UNL     1       2.318   4.875  19.493  0.00  0.00    +0.000 A 
ATOM     14  C   UNL     1       1.360   4.593  20.470  0.00  0.00    +0.000 A 
ATOM     15  C   UNL     1       1.541   3.514  21.334  0.00  0.00    +0.000 A 
ATOM     16  C   UNL     1       2.667   2.702  21.211  0.00  0.00    +0.000 A 
ATOM     17  C   UNL     1       3.606   2.960  20.211  0.00  0.00    +0.000 A 
ENDBRANCH   3  12
BRANCH   1  20
ATOM     18  C   UNL     1       8.158   8.963  17.799  0.00  0.00    +0.000 C 
ATOM     19  N   UNL     1       7.262   7.878  17.478  0.00  0.00    +0.000 N 
ATOM     20  C   UNL     1       7.375   6.662  18.118  0.00  0.00    +0.000 C 
ATOM     21  O   UNL     1       8.223   6.466  18.983  0.00  0.00    +0.000 OA
ATOM     22  H   UNL     1       6.458   8.086  16.903  0.00  0.00    +0.000 HD
ENDBRANCH   1  20
TORSDOF 2
ENDMDL
MODEL 5
REMARK VINA RESULT:      -7.7      2.300      4.228
REMARK  Name = 
REMARK  3 active torsions:
REMARK  status: ('A' for Active; 'I' for Inactive)
REMARK    1  A    between atoms: C_1  and  N_2
REMARK    2  A    between atoms: C_3  and  C_5
REMARK    3  A    between atoms: N_7  and  C_8
REMARK                            x       y       z     vdW  Elec       q    Type
REMARK                         _______ _______ _______ _____ _____    ______ ____
ROOT
ATOM      1  C   UNL     1       2.750   6.047  18.582  0.00  0.00    +0.000 A 
ATOM      2  C   UNL     1       3.711   5.916  17.649  0.00  0.00    +0.000 A 
ATOM      3  N   UNL     1       4.224   4.697  17.220  0.00  0.00    +0.000 N 
ATOM      4  C   UNL     1       3.795   3.481  17.775  0.00  0.00    +0.000 A 
ATOM      5  O   UNL     1       4.164   2.365  17.411  0.00  0.00    +0.000 OA
ATOM      6  C   UNL     1       2.873   3.584  18.938  0.00  0.00    +0.000 A 
ATOM      7  C   UNL     1       2.596   2.419  19.676  0.00  0.00    +0.000 A 
ATOM      8  C   UNL     1       1.745   2.472  20.774  0.00  0.00    +0.000 A 
ATOM      9  C   UNL     1       1.145   3.678  21.114  0.00  0.00    +0.000 A 
ATOM     10  C   UNL     1       1.424   4.838  20.382  0.00  0.00    +0.000 A 
ATOM     11  C   UNL     1       2.324   4.824  19.303  0.00  0.00    +0.000 A 
ENDROOT
BRANCH   3  12
ATOM     12  C   UNL     1       5.225   4.668  16.200  0.00  0.00    +0.000 A 
ATOM     13  C   UNL     1       6.548   5.032  16.482  0.00  0.00    +0.000 A 
ATOM     14  C   UNL     1       7.519   4.989  15.479  0.00  0.00    +0.000 A 
ATOM     15  C   UNL     1       7.166   4.617  14.182  0.00  0.00    +0.000 A 
ATOM     16  C   UNL     1       5.849   4.266  13.890  0.00  0.00    +0.000 A 
ATOM     17  C   UNL     1       4.886   4.273  14.899  0.00  0.00    +0.000 A 
ENDBRANCH   3  12
BRANCH   1  20
ATOM     18  C   UNL     1       1.628   9.651  18.105  0.00  0.00    +0.000 C 
ATOM     19  N   UNL     1       2.075   8.298  17.874  0.00  0.00    +0.000 N 
ATOM     20  C   UNL     1       2.291   7.441  18.932  0.00  0.00    +0.000 C 
ATOM     21  O   UNL     1       2.100   7.790  20.093  0.00  0.00    +0.000 OA
ATOM     22  H   UNL     1       2.061   7.953  16.925  0.00  0.00    +0.000 HD
ENDBRANCH   1  20
TORSDOF 2
ENDMDL
MODEL 6
REMARK VINA RESULT:      -7.7      2.308      4.350
REMARK  Name = 
REMARK  3 active torsions:
REMARK  status: ('A' for Active; 'I' for Inactive)
REMARK    1  A    between atoms: C_1  and  N_2
REMARK    2  A    between atoms: C_3  and  C_5
REMARK    3  A    between atoms: N_7  and  C_8
REMARK                            x       y       z     vdW  Elec       q    Type
REMARK                         _______ _______ _______ _____ _____    ______ ____
ROOT
ATOM      1  C   UNL     1       2.744   6.045  18.594  0.00  0.00    +0.000 A 
ATOM      2  C   UNL     1       3.709   5.920  17.665  0.00  0.00    +0.000 A 
ATOM      3  N   UNL     1       4.223   4.703  17.230  0.00  0.00    +0.000 N 
ATOM      4  C   UNL     1       3.792   3.484  17.776  0.00  0.00    +0.000 A 
ATOM      5  O   UNL     1       4.162   2.370  17.407  0.00  0.00    +0.000 OA
ATOM      6  C   UNL     1       2.865   3.580  18.936  0.00  0.00    +0.000 A 
ATOM      7  C   UNL     1       2.585   2.411  19.665  0.00  0.00    +0.000 A 
ATOM      8  C   UNL     1       1.729   2.457  20.760  0.00  0.00    +0.000 A 
ATOM      9  C   UNL     1       1.127   3.661  21.105  0.00  0.00    +0.000 A 
ATOM     10  C   UNL     1       1.410   4.826  20.380  0.00  0.00    +0.000 A 
ATOM     11  C   UNL     1       2.315   4.818  19.306  0.00  0.00    +0.000 A 
ENDROOT
BRANCH   3  12
ATOM     12  C   UNL     1       5.228   4.681  16.214  0.00  0.00    +0.000 A 
ATOM     13  C   UNL     1       4.917   4.290  14.905  0.00  0.00    +0.000 A 
ATOM     14  C   UNL     1       5.906   4.283  13.918  0.00  0.00    +0.000 A 
ATOM     15  C   UNL     1       7.217   4.631  14.242  0.00  0.00    +0.000 A 
ATOM     16  C   UNL     1       7.537   5.009  15.546  0.00  0.00    +0.000 A 
ATOM     17  C   UNL     1       6.543   5.053  16.523  0.00  0.00    +0.000 A 
ENDBRANCH   3  12
BRANCH   1  20
ATOM     18  C   UNL     1       1.588   9.640  18.132  0.00  0.00    +0.000 C 
ATOM     19  N   UNL     1       2.039   8.290  17.895  0.00  0.00    +0.000 N 
ATOM     20  C   UNL     1       2.284   7.437  18.951  0.00  0.00    +0.000 C 
ATOM     21  O   UNL     1       2.115   7.788  20.115  0.00  0.00    +0.000 OA
ATOM     22  H   UNL     1       2.007   7.943  16.947  0.00  0.00    +0.000 HD
ENDBRANCH   1  20
TORSDOF 2
ENDMDL
MODEL 7
REMARK VINA RESULT:      -7.4      2.322      4.176
REMARK  Name = 
REMARK  3 active torsions:
REMARK  status: ('A' for Active; 'I' for Inactive)
REMARK    1  A    between atoms: C_1  and  N_2
REMARK    2  A    between atoms: C_3  and  C_5
REMARK    3  A    between atoms: N_7  and  C_8
REMARK                            x       y       z     vdW  Elec       q    Type
REMARK                         _______ _______ _______ _____ _____    ______ ____
ROOT
ATOM      1  C   UNL     1       2.702   5.916  18.863  0.00  0.00    +0.000 A 
ATOM      2  C   UNL     1       3.664   5.844  17.925  0.00  0.00    +0.000 A 
ATOM      3  N   UNL     1       4.189   4.654  17.433  0.00  0.00    +0.000 N 
ATOM      4  C   UNL     1       3.773   3.406  17.923  0.00  0.00    +0.000 A 
ATOM      5  O   UNL     1       4.153   2.314  17.502  0.00  0.00    +0.000 OA
ATOM      6  C   UNL     1       2.850   3.438  19.090  0.00  0.00    +0.000 A 
ATOM      7  C   UNL     1       2.585   2.234  19.766  0.00  0.00    +0.000 A 
ATOM      8  C   UNL     1       1.734   2.221  20.865  0.00  0.00    +0.000 A 
ATOM      9  C   UNL     1       1.121   3.401  21.267  0.00  0.00    +0.000 A 
ATOM     10  C   UNL     1       1.388   4.601  20.597  0.00  0.00    +0.000 A 
ATOM     11  C   UNL     1       2.289   4.653  19.519  0.00  0.00    +0.000 A 
ENDROOT
BRANCH   3  12
ATOM     12  C   UNL     1       5.190   4.689  16.413  0.00  0.00    +0.000 A 
ATOM     13  C   UNL     1       6.505   5.071  16.710  0.00  0.00    +0.000 A 
ATOM     14  C   UNL     1       7.477   5.090  15.707  0.00  0.00    +0.000 A 
ATOM     15  C   UNL     1       7.132   4.763  14.396  0.00  0.00    +0.000 A 
ATOM     16  C   UNL     1       5.823   4.394  14.090  0.00  0.00    +0.000 A 
ATOM     17  C   UNL     1       4.860   4.338  15.098  0.00  0.00    +0.000 A 
ENDBRANCH   3  12
BRANCH   1  20
ATOM     18  C   UNL     1       1.427   8.704  21.117  0.00  0.00    +0.000 C 
ATOM     19  N   UNL     1       1.884   7.431  20.613  0.00  0.00    +0.000 N 
ATOM     20  C   UNL     1       2.229   7.285  19.286  0.00  0.00    +0.000 C 
ATOM     21  O   UNL     1       2.173   8.225  18.499  0.00  0.00    +0.000 OA
ATOM     22  H   UNL     1       2.101   6.709  21.285  0.00  0.00    +0.000 HD
ENDBRANCH   1  20
TORSDOF 2
ENDMDL
MODEL 8
REMARK VINA RESULT:      -7.1      2.262      6.608
REMARK  Name = 
REMARK  3 active torsions:
REMARK  status: ('A' for Active; 'I' for Inactive)
REMARK    1  A    between atoms: C_1  and  N_2
REMARK    2  A    between atoms: C_3  and  C_5
REMARK    3  A    between atoms: N_7  and  C_8
REMARK                            x       y       z     vdW  Elec       q    Type
REMARK                         _______ _______ _______ _____ _____    ______ ____
ROOT
ATOM      1  C   UNL     1       4.073   5.641  17.568  0.00  0.00    +0.000 A 
ATOM      2  C   UNL     1       3.451   6.743  18.026  0.00  0.00    +0.000 A 
ATOM      3  N   UNL     1       2.478   6.736  19.020  0.00  0.00    +0.000 N 
ATOM      4  C   UNL     1       2.031   5.541  19.605  0.00  0.00    +0.000 A 
ATOM      5  O   UNL     1       1.214   5.460  20.522  0.00  0.00    +0.000 OA
ATOM      6  C   UNL     1       2.551   4.285  19.001  0.00  0.00    +0.000 A 
ATOM      7  C   UNL     1       1.966   3.066  19.387  0.00  0.00    +0.000 A 
ATOM      8  C   UNL     1       2.417   1.869  18.842  0.00  0.00    +0.000 A 
ATOM      9  C   UNL     1       3.474   1.886  17.941  0.00  0.00    +0.000 A 
ATOM     10  C   UNL     1       4.055   3.100  17.554  0.00  0.00    +0.000 A 
ATOM     11  C   UNL     1       3.579   4.328  18.045  0.00  0.00    +0.000 A 
ENDROOT
BRANCH   3  12
ATOM     12  C   UNL     1       1.900   7.969  19.456  0.00  0.00    +0.000 A 
ATOM     13  C   UNL     1       1.552   8.164  20.799  0.00  0.00    +0.000 A 
ATOM     14  C   UNL     1       0.998   9.377  21.214  0.00  0.00    +0.000 A 
ATOM     15  C   UNL     1       0.757  10.388  20.284  0.00  0.00    +0.000 A 
ATOM     16  C   UNL     1       1.089  10.197  18.943  0.00  0.00    +0.000 A 
ATOM     17  C   UNL     1       1.677   9.000  18.534  0.00  0.00    +0.000 A 
ENDBRANCH   3  12
BRANCH   1  20
ATOM     18  C   UNL     1       7.197   4.986  15.498  0.00  0.00    +0.000 C 
ATOM     19  N   UNL     1       6.153   4.908  16.492  0.00  0.00    +0.000 N 
ATOM     20  C   UNL     1       5.115   5.816  16.491  0.00  0.00    +0.000 C 
ATOM     21  O   UNL     1       5.036   6.703  15.647  0.00  0.00    +0.000 OA
ATOM     22  H   UNL     1       6.117   4.082  17.073  0.00  0.00    +0.000 HD
ENDBRANCH   1  20
TORSDOF 2
ENDMDL
MODEL 9
REMARK VINA RESULT:      -7.0      2.302      6.662
REMARK  Name = 
REMARK  3 active torsions:
REMARK  status: ('A' for Active; 'I' for Inactive)
REMARK    1  A    between atoms: C_1  and  N_2
REMARK    2  A    between atoms: C_3  and  C_5
REMARK    3  A    between atoms: N_7  and  C_8
REMARK                            x       y       z     vdW  Elec       q    Type
REMARK                         _______ _______ _______ _____ _____    ______ ____
ROOT
ATOM      1  C   UNL     1       4.006   5.565  17.679  0.00  0.00    +0.000 A 
ATOM      2  C   UNL     1       3.398   6.666  18.158  0.00  0.00    +0.000 A 
ATOM      3  N   UNL     1       2.430   6.653  19.157  0.00  0.00    +0.000 N 
ATOM      4  C   UNL     1       1.973   5.452  19.724  0.00  0.00    +0.000 A 
ATOM      5  O   UNL     1       1.161   5.365  20.644  0.00  0.00    +0.000 OA
ATOM      6  C   UNL     1       2.477   4.201  19.097  0.00  0.00    +0.000 A 
ATOM      7  C   UNL     1       1.881   2.982  19.466  0.00  0.00    +0.000 A 
ATOM      8  C   UNL     1       2.318   1.790  18.900  0.00  0.00    +0.000 A 
ATOM      9  C   UNL     1       3.371   1.810  17.993  0.00  0.00    +0.000 A 
ATOM     10  C   UNL     1       3.962   3.025  17.623  0.00  0.00    +0.000 A 
ATOM     11  C   UNL     1       3.501   4.249  18.137  0.00  0.00    +0.000 A 
ENDROOT
BRANCH   3  12
ATOM     12  C   UNL     1       1.868   7.884  19.615  0.00  0.00    +0.000 A 
ATOM     13  C   UNL     1       1.575   8.918  18.716  0.00  0.00    +0.000 A 
ATOM     14  C   UNL     1       1.014  10.112  19.175  0.00  0.00    +0.000 A 
ATOM     15  C   UNL     1       0.777  10.293  20.537  0.00  0.00    +0.000 A 
ATOM     16  C   UNL     1       1.078   9.274  21.440  0.00  0.00    +0.000 A 
ATOM     17  C   UNL     1       1.602   8.066  20.978  0.00  0.00    +0.000 A 
ENDBRANCH   3  12
BRANCH   1  20
ATOM     18  C   UNL     1       7.160   4.966  15.637  0.00  0.00    +0.000 C 
ATOM     19  N   UNL     1       6.116   4.879  16.630  0.00  0.00    +0.000 N 
ATOM     20  C   UNL     1       5.045   5.746  16.600  0.00  0.00    +0.000 C 
ATOM     21  O   UNL     1       4.935   6.604  15.729  0.00  0.00    +0.000 OA
ATOM     22  H   UNL     1       6.110   4.070  17.235  0.00  0.00    +0.000 HD
ENDBRANCH   1  20
TORSDOF 2
ENDMDL
