MODEL 1
REMARK VINA RESULT:      -8.2      0.000      0.000
REMARK  Name = 
REMARK  4 active torsions:
REMARK  status: ('A' for Active; 'I' for Inactive)
REMARK    1  A    between atoms: C_1  and  C_2
REMARK    2  A    between atoms: C_8  and  C_9
REMARK    3  A    between atoms: C_14  and  C_15
REMARK    4  A    between atoms: C_20  and  C_21
REMARK                            x       y       z     vdW  Elec       q    Type
REMARK                         _______ _______ _______ _____ _____    ______ ____
ROOT
ATOM      1  C   UNL     1       2.409   5.510  19.938  0.00  0.00    +0.000 C 
ATOM      2  O   UNL     1       2.343   5.028  21.074  0.00  0.00    +0.000 OA
ATOM      3  N   UNL     1       1.966   6.821  19.685  0.00  0.00    +0.000 N 
ATOM      4  C   UNL     1       1.961   7.418  18.346  0.00  0.00    +0.000 C 
ATOM      5  C   UNL     1       2.237   8.912  18.354  0.00  0.00    +0.000 C 
ATOM      6  C   UNL     1       1.448   9.702  19.401  0.00  0.00    +0.000 C 
ATOM      7  C   UNL     1       1.499   9.006  20.769  0.00  0.00    +0.000 C 
ATOM      8  C   UNL     1       1.210   7.509  20.730  0.00  0.00    +0.000 C 
ENDROOT
BRANCH   1  16
ATOM      9  C   UNL     1       7.914   5.814  19.177  0.00  0.00    +0.000 C 
ATOM     10  C   UNL     1       6.665   5.295  18.534  0.00  0.00    +0.000 A 
ATOM     11  C   UNL     1       6.744   4.689  17.206  0.00  0.00    +0.000 A 
ATOM     12  C   UNL     1       5.662   4.155  16.605  0.00  0.00    +0.000 A 
ATOM     13  C   UNL     1       4.410   4.167  17.277  0.00  0.00    +0.000 A 
ATOM     14  N   UNL     1       3.230   3.680  16.969  0.00  0.00    +0.000 NA
ATOM     15  N   UNL     1       2.368   4.021  17.983  0.00  0.00    +0.000 NA
ATOM     16  C   UNL     1       3.020   4.778  18.852  0.00  0.00    +0.000 A 
ATOM     17  N   UNL     1       4.350   4.806  18.508  0.00  0.00    +0.000 N 
ATOM     18  C   UNL     1       5.464   5.360  19.139  0.00  0.00    +0.000 A 
ENDBRANCH   1  16
BRANCH   6  19
ATOM     19  C   UNL     1       0.056  10.118  18.932  0.00  0.00    +0.000 A 
ATOM     20  C   UNL     1      -0.470   9.550  17.749  0.00  0.00    +0.000 A 
ATOM     21  C   UNL     1      -1.711   9.911  17.225  0.00  0.00    +0.000 A 
ATOM     22  C   UNL     1      -2.482  10.853  17.878  0.00  0.00    +0.000 A 
ATOM     23  C   UNL     1      -2.004  11.424  19.052  0.00  0.00    +0.000 A 
ATOM     24  C   UNL     1      -0.741  11.081  19.603  0.00  0.00    +0.000 A 
BRANCH  24  25
ATOM     25  C   UNL     1      -0.398  11.834  20.880  0.00  0.00    +0.000 C 
ATOM     26  F   UNL     1       0.870  12.300  21.010  0.00  0.00    +0.000 F 
ATOM     27  F   UNL     1      -1.198  12.927  21.049  0.00  0.00    +0.000 F 
ATOM     28  F   UNL     1      -0.605  11.063  21.988  0.00  0.00    +0.000 F 
ENDBRANCH  24  25
ENDBRANCH   6  19
TORSDOF 3
ENDMDL
MODEL 2
REMARK VINA RESULT:      -8.1      3.987      8.108
REMARK  Name = 
REMARK  4 active torsions:
REMARK  status: ('A' for Active; 'I' for Inactive)
REMARK    1  A    between atoms: C_1  and  C_2
REMARK    2  A    between atoms: C_8  and  C_9
REMARK    3  A    between atoms: C_14  and  C_15
REMARK    4  A    between atoms: C_20  and  C_21
REMARK                            x       y       z     vdW  Elec       q    Type
REMARK                         _______ _______ _______ _____ _____    ______ ____
ROOT
ATOM      1  C   UNL     1       1.130   9.072  21.002  0.00  0.00    +0.000 C 
ATOM      2  O   UNL     1       0.887   8.687  22.150  0.00  0.00    +0.000 OA
ATOM      3  N   UNL     1       1.653   8.188  20.041  0.00  0.00    +0.000 N 
ATOM      4  C   UNL     1       2.020   8.607  18.685  0.00  0.00    +0.000 C 
ATOM      5  C   UNL     1       1.785   7.530  17.639  0.00  0.00    +0.000 C 
ATOM      6  C   UNL     1       2.292   6.139  18.030  0.00  0.00    +0.000 C 
ATOM      7  C   UNL     1       1.871   5.783  19.463  0.00  0.00    +0.000 C 
ATOM      8  C   UNL     1       2.127   6.879  20.490  0.00  0.00    +0.000 C 
ENDROOT
BRANCH   1  16
ATOM      9  C   UNL     1      -3.122   9.909  17.510  0.00  0.00    +0.000 C 
ATOM     10  C   UNL     1      -1.978  10.623  18.161  0.00  0.00    +0.000 A 
ATOM     11  C   UNL     1      -1.709  12.015  17.806  0.00  0.00    +0.000 A 
ATOM     12  C   UNL     1      -0.729  12.721  18.403  0.00  0.00    +0.000 A 
ATOM     13  C   UNL     1       0.063  12.109  19.411  0.00  0.00    +0.000 A 
ATOM     14  N   UNL     1       1.023  12.559  20.186  0.00  0.00    +0.000 NA
ATOM     15  N   UNL     1       1.456  11.507  20.957  0.00  0.00    +0.000 NA
ATOM     16  C   UNL     1       0.806  10.417  20.582  0.00  0.00    +0.000 A 
ATOM     17  N   UNL     1      -0.171  10.768  19.682  0.00  0.00    +0.000 N 
ATOM     18  C   UNL     1      -1.184  10.028  19.072  0.00  0.00    +0.000 A 
ENDBRANCH   1  16
BRANCH   6  19
ATOM     19  C   UNL     1       3.768   5.913  17.707  0.00  0.00    +0.000 A 
ATOM     20  C   UNL     1       4.611   7.034  17.523  0.00  0.00    +0.000 A 
ATOM     21  C   UNL     1       5.957   6.916  17.178  0.00  0.00    +0.000 A 
ATOM     22  C   UNL     1       6.516   5.662  17.016  0.00  0.00    +0.000 A 
ATOM     23  C   UNL     1       5.721   4.537  17.203  0.00  0.00    +0.000 A 
ATOM     24  C   UNL     1       4.346   4.628  17.546  0.00  0.00    +0.000 A 
BRANCH  24  25
ATOM     25  C   UNL     1       3.653   3.280  17.684  0.00  0.00    +0.000 C 
ATOM     26  F   UNL     1       2.445   3.134  17.082  0.00  0.00    +0.000 F 
ATOM     27  F   UNL     1       4.423   2.267  17.191  0.00  0.00    +0.000 F 
ATOM     28  F   UNL     1       3.434   2.961  18.994  0.00  0.00    +0.000 F 
ENDBRANCH  24  25
ENDBRANCH   6  19
TORSDOF 3
ENDMDL
MODEL 3
REMARK VINA RESULT:      -7.9      4.111      8.311
REMARK  Name = 
REMARK  4 active torsions:
REMARK  status: ('A' for Active; 'I' for Inactive)
REMARK    1  A    between atoms: C_1  and  C_2
REMARK    2  A    between atoms: C_8  and  C_9
REMARK    3  A    between atoms: C_14  and  C_15
REMARK    4  A    between atoms: C_20  and  C_21
REMARK                            x       y       z     vdW  Elec       q    Type
REMARK                         _______ _______ _______ _____ _____    ______ ____
ROOT
ATOM      1  C   UNL     1       1.614   9.667  18.446  0.00  0.00    +0.000 C 
ATOM      2  O   UNL     1       2.101  10.201  17.444  0.00  0.00    +0.000 OA
ATOM      3  N   UNL     1       1.970   8.355  18.808  0.00  0.00    +0.000 N 
ATOM      4  C   UNL     1       1.374   7.651  19.947  0.00  0.00    +0.000 C 
ATOM      5  C   UNL     1       2.341   6.706  20.641  0.00  0.00    +0.000 C 
ATOM      6  C   UNL     1       3.148   5.811  19.697  0.00  0.00    +0.000 C 
ATOM      7  C   UNL     1       3.728   6.624  18.531  0.00  0.00    +0.000 C 
ATOM      8  C   UNL     1       2.733   7.556  17.850  0.00  0.00    +0.000 C 
ENDROOT
BRANCH   1  16
ATOM      9  C   UNL     1      -3.706  10.417  16.994  0.00  0.00    +0.000 C 
ATOM     10  C   UNL     1      -2.696  10.838  18.015  0.00  0.00    +0.000 A 
ATOM     11  C   UNL     1      -3.061  11.847  19.008  0.00  0.00    +0.000 A 
ATOM     12  C   UNL     1      -2.211  12.222  19.984  0.00  0.00    +0.000 A 
ATOM     13  C   UNL     1      -0.928  11.618  20.065  0.00  0.00    +0.000 A 
ATOM     14  N   UNL     1       0.061  11.739  20.922  0.00  0.00    +0.000 NA
ATOM     15  N   UNL     1       1.084  10.933  20.485  0.00  0.00    +0.000 NA
ATOM     16  C   UNL     1       0.731  10.398  19.327  0.00  0.00    +0.000 A 
ATOM     17  N   UNL     1      -0.583  10.711  19.073  0.00  0.00    +0.000 N 
ATOM     18  C   UNL     1      -1.455  10.315  18.059  0.00  0.00    +0.000 A 
ENDBRANCH   1  16
BRANCH   6  19
ATOM     19  C   UNL     1       2.420   4.528  19.300  0.00  0.00    +0.000 A 
ATOM     20  C   UNL     1       1.182   4.222  19.910  0.00  0.00    +0.000 A 
ATOM     21  C   UNL     1       0.478   3.048  19.641  0.00  0.00    +0.000 A 
ATOM     22  C   UNL     1       0.986   2.137  18.735  0.00  0.00    +0.000 A 
ATOM     23  C   UNL     1       2.195   2.411  18.104  0.00  0.00    +0.000 A 
ATOM     24  C   UNL     1       2.936   3.593  18.366  0.00  0.00    +0.000 A 
BRANCH  24  25
ATOM     25  C   UNL     1       4.240   3.690  17.587  0.00  0.00    +0.000 C 
ATOM     26  F   UNL     1       5.359   4.018  18.281  0.00  0.00    +0.000 F 
ATOM     27  F   UNL     1       4.540   2.515  16.961  0.00  0.00    +0.000 F 
ATOM     28  F   UNL     1       4.159   4.619  16.588  0.00  0.00    +0.000 F 
ENDBRANCH  24  25
ENDBRANCH   6  19
TORSDOF 3
ENDMDL
MODEL 4
REMARK VINA RESULT:      -7.8      3.794      8.125
REMARK  Name = 
REMARK  4 active torsions:
REMARK  status: ('A' for Active; 'I' for Inactive)
REMARK    1  A    between atoms: C_1  and  C_2
REMARK    2  A    between atoms: C_8  and  C_9
REMARK    3  A    between atoms: C_14  and  C_15
REMARK    4  A    between atoms: C_20  and  C_21
REMARK                            x       y       z     vdW  Elec       q    Type
REMARK                         _______ _______ _______ _____ _____    ______ ____
ROOT
ATOM      1  C   UNL     1       1.024   8.190  20.728  0.00  0.00    +0.000 C 
ATOM      2  O   UNL     1       0.387   7.553  21.574  0.00  0.00    +0.000 OA
ATOM      3  N   UNL     1       1.892   7.535  19.836  0.00  0.00    +0.000 N 
ATOM      4  C   UNL     1       2.720   8.248  18.859  0.00  0.00    +0.000 C 
ATOM      5  C   UNL     1       2.922   7.476  17.566  0.00  0.00    +0.000 C 
ATOM      6  C   UNL     1       3.292   6.002  17.752  0.00  0.00    +0.000 C 
ATOM      7  C   UNL     1       2.383   5.335  18.794  0.00  0.00    +0.000 C 
ATOM      8  C   UNL     1       2.207   6.129  20.084  0.00  0.00    +0.000 C 
ENDROOT
BRANCH   1  16
ATOM      9  C   UNL     1      -2.684  10.079  17.034  0.00  0.00    +0.000 C 
ATOM     10  C   UNL     1      -1.594  10.545  17.948  0.00  0.00    +0.000 A 
ATOM     11  C   UNL     1      -1.200  11.953  17.932  0.00  0.00    +0.000 A 
ATOM     12  C   UNL     1      -0.266  12.437  18.773  0.00  0.00    +0.000 A 
ATOM     13  C   UNL     1       0.351  11.567  19.711  0.00  0.00    +0.000 A 
ATOM     14  N   UNL     1       1.229  11.766  20.668  0.00  0.00    +0.000 NA
ATOM     15  N   UNL     1       1.496  10.547  21.242  0.00  0.00    +0.000 NA
ATOM     16  C   UNL     1       0.837   9.615  20.571  0.00  0.00    +0.000 A 
ATOM     17  N   UNL     1       0.006  10.223  19.661  0.00  0.00    +0.000 N 
ATOM     18  C   UNL     1      -0.961   9.712  18.796  0.00  0.00    +0.000 A 
ENDBRANCH   1  16
BRANCH   6  19
ATOM     19  C   UNL     1       4.788   5.767  17.945  0.00  0.00    +0.000 A 
ATOM     20  C   UNL     1       5.305   5.662  19.257  0.00  0.00    +0.000 A 
ATOM     21  C   UNL     1       6.665   5.497  19.521  0.00  0.00    +0.000 A 
ATOM     22  C   UNL     1       7.562   5.418  18.473  0.00  0.00    +0.000 A 
ATOM     23  C   UNL     1       7.088   5.505  17.168  0.00  0.00    +0.000 A 
ATOM     24  C   UNL     1       5.712   5.681  16.871  0.00  0.00    +0.000 A 
BRANCH  24  25
ATOM     25  C   UNL     1       5.407   5.770  15.382  0.00  0.00    +0.000 C 
ATOM     26  F   UNL     1       4.844   6.919  14.928  0.00  0.00    +0.000 F 
ATOM     27  F   UNL     1       6.533   5.603  14.629  0.00  0.00    +0.000 F 
ATOM     28  F   UNL     1       4.556   4.779  14.984  0.00  0.00    +0.000 F 
ENDBRANCH  24  25
ENDBRANCH   6  19
TORSDOF 3
ENDMDL
MODEL 5
REMARK VINA RESULT:      -7.8      3.698      7.984
REMARK  Name = 
REMARK  4 active torsions:
REMARK  status: ('A' for Active; 'I' for Inactive)
REMARK    1  A    between atoms: C_1  and  C_2
REMARK    2  A    between atoms: C_8  and  C_9
REMARK    3  A    between atoms: C_14  and  C_15
REMARK    4  A    between atoms: C_20  and  C_21
REMARK                            x       y       z     vdW  Elec       q    Type
REMARK                         _______ _______ _______ _____ _____    ______ ____
ROOT
ATOM      1  C   UNL     1       1.748   9.442  18.277  0.00  0.00    +0.000 C 
ATOM      2  O   UNL     1       2.424  10.078  17.462  0.00  0.00    +0.000 OA
ATOM      3  N   UNL     1       2.130   8.150  18.678  0.00  0.00    +0.000 N 
ATOM      4  C   UNL     1       1.330   7.327  19.591  0.00  0.00    +0.000 C 
ATOM      5  C   UNL     1       2.171   6.436  20.489  0.00  0.00    +0.000 C 
ATOM      6  C   UNL     1       3.289   5.677  19.771  0.00  0.00    +0.000 C 
ATOM      7  C   UNL     1       4.071   6.608  18.832  0.00  0.00    +0.000 C 
ATOM      8  C   UNL     1       3.200   7.483  17.938  0.00  0.00    +0.000 C 
ENDROOT
BRANCH   1  16
ATOM      9  C   UNL     1      -3.063   9.716  15.492  0.00  0.00    +0.000 C 
ATOM     10  C   UNL     1      -2.406  10.188  16.752  0.00  0.00    +0.000 A 
ATOM     11  C   UNL     1      -3.127  11.104  17.634  0.00  0.00    +0.000 A 
ATOM     12  C   UNL     1      -2.606  11.515  18.807  0.00  0.00    +0.000 A 
ATOM     13  C   UNL     1      -1.328  11.041  19.211  0.00  0.00    +0.000 A 
ATOM     14  N   UNL     1      -0.615  11.220  20.300  0.00  0.00    +0.000 NA
ATOM     15  N   UNL     1       0.569  10.546  20.130  0.00  0.00    +0.000 NA
ATOM     16  C   UNL     1       0.591  10.035  18.909  0.00  0.00    +0.000 A 
ATOM     17  N   UNL     1      -0.639  10.225  18.325  0.00  0.00    +0.000 N 
ATOM     18  C   UNL     1      -1.169   9.792  17.110  0.00  0.00    +0.000 A 
ENDBRANCH   1  16
BRANCH   6  19
ATOM     19  C   UNL     1       2.833   4.358  19.150  0.00  0.00    +0.000 A 
ATOM     20  C   UNL     1       2.835   4.223  17.743  0.00  0.00    +0.000 A 
ATOM     21  C   UNL     1       2.387   3.072  17.095  0.00  0.00    +0.000 A 
ATOM     22  C   UNL     1       1.929   2.002  17.839  0.00  0.00    +0.000 A 
ATOM     23  C   UNL     1       1.924   2.093  19.226  0.00  0.00    +0.000 A 
ATOM     24  C   UNL     1       2.366   3.255  19.911  0.00  0.00    +0.000 A 
BRANCH  24  25
ATOM     25  C   UNL     1       2.261   3.158  21.426  0.00  0.00    +0.000 C 
ATOM     26  F   UNL     1       2.496   4.287  22.143  0.00  0.00    +0.000 F 
ATOM     27  F   UNL     1       1.023   2.737  21.818  0.00  0.00    +0.000 F 
ATOM     28  F   UNL     1       3.132   2.233  21.930  0.00  0.00    +0.000 F 
ENDBRANCH  24  25
ENDBRANCH   6  19
TORSDOF 3
ENDMDL
MODEL 6
REMARK VINA RESULT:      -7.5      1.903      2.820
REMARK  Name = 
REMARK  4 active torsions:
REMARK  status: ('A' for Active; 'I' for Inactive)
REMARK    1  A    between atoms: C_1  and  C_2
REMARK    2  A    between atoms: C_8  and  C_9
REMARK    3  A    between atoms: C_14  and  C_15
REMARK    4  A    between atoms: C_20  and  C_21
REMARK                            x       y       z     vdW  Elec       q    Type
REMARK                         _______ _______ _______ _____ _____    ______ ____
ROOT
ATOM      1  C   UNL     1       2.199   7.358  19.798  0.00  0.00    +0.000 C 
ATOM      2  O   UNL     1       2.373   7.040  20.979  0.00  0.00    +0.000 OA
ATOM      3  N   UNL     1       1.413   8.474  19.461  0.00  0.00    +0.000 N 
ATOM      4  C   UNL     1       1.120   8.856  18.076  0.00  0.00    +0.000 C 
ATOM      5  C   UNL     1       1.005  10.358  17.879  0.00  0.00    +0.000 C 
ATOM      6  C   UNL     1       0.150  11.076  18.927  0.00  0.00    +0.000 C 
ATOM      7  C   UNL     1       0.515  10.614  20.345  0.00  0.00    +0.000 C 
ATOM      8  C   UNL     1       0.615   9.102  20.513  0.00  0.00    +0.000 C 
ENDROOT
BRANCH   1  16
ATOM      9  C   UNL     1       0.744   2.105  18.673  0.00  0.00    +0.000 C 
ATOM     10  C   UNL     1       1.766   3.142  18.325  0.00  0.00    +0.000 A 
ATOM     11  C   UNL     1       2.876   2.783  17.444  0.00  0.00    +0.000 A 
ATOM     12  C   UNL     1       3.792   3.691  17.052  0.00  0.00    +0.000 A 
ATOM     13  C   UNL     1       3.678   5.037  17.493  0.00  0.00    +0.000 A 
ATOM     14  N   UNL     1       4.371   6.121  17.232  0.00  0.00    +0.000 NA
ATOM     15  N   UNL     1       3.828   7.144  17.970  0.00  0.00    +0.000 NA
ATOM     16  C   UNL     1       2.864   6.647  18.729  0.00  0.00    +0.000 A 
ATOM     17  N   UNL     1       2.653   5.335  18.380  0.00  0.00    +0.000 N 
ATOM     18  C   UNL     1       1.699   4.404  18.790  0.00  0.00    +0.000 A 
ENDBRANCH   1  16
BRANCH   6  19
ATOM     19  C   UNL     1      -1.343  11.075  18.604  0.00  0.00    +0.000 A 
ATOM     20  C   UNL     1      -1.838  10.164  17.643  0.00  0.00    +0.000 A 
ATOM     21  C   UNL     1      -3.177  10.130  17.254  0.00  0.00    +0.000 A 
ATOM     22  C   UNL     1      -4.078  11.007  17.827  0.00  0.00    +0.000 A 
ATOM     23  C   UNL     1      -3.630  11.908  18.786  0.00  0.00    +0.000 A 
ATOM     24  C   UNL     1      -2.272  11.969  19.194  0.00  0.00    +0.000 A 
BRANCH  24  25
ATOM     25  C   UNL     1      -1.988  13.038  20.240  0.00  0.00    +0.000 C 
ATOM     26  F   UNL     1      -0.930  13.860  20.021  0.00  0.00    +0.000 F 
ATOM     27  F   UNL     1      -3.057  13.870  20.410  0.00  0.00    +0.000 F 
ATOM     28  F   UNL     1      -1.760  12.489  21.469  0.00  0.00    +0.000 F 
ENDBRANCH  24  25
ENDBRANCH   6  19
TORSDOF 3
ENDMDL
MODEL 7
REMARK VINA RESULT:      -7.2      4.250      8.501
REMARK  Name = 
REMARK  4 active torsions:
REMARK  status: ('A' for Active; 'I' for Inactive)
REMARK    1  A    between atoms: C_1  and  C_2
REMARK    2  A    between atoms: C_8  and  C_9
REMARK    3  A    between atoms: C_14  and  C_15
REMARK    4  A    between atoms: C_20  and  C_21
REMARK                            x       y       z     vdW  Elec       q    Type
REMARK                         _______ _______ _______ _____ _____    ______ ____
ROOT
ATOM      1  C   UNL     1       0.973   9.674  19.407  0.00  0.00    +0.000 C 
ATOM      2  O   UNL     1       0.821  10.514  18.513  0.00  0.00    +0.000 OA
ATOM      3  N   UNL     1       1.705   8.497  19.173  0.00  0.00    +0.000 N 
ATOM      4  C   UNL     1       1.860   7.439  20.176  0.00  0.00    +0.000 C 
ATOM      5  C   UNL     1       3.202   6.732  20.100  0.00  0.00    +0.000 C 
ATOM      6  C   UNL     1       3.635   6.331  18.688  0.00  0.00    +0.000 C 
ATOM      7  C   UNL     1       3.434   7.490  17.701  0.00  0.00    +0.000 C 
ATOM      8  C   UNL     1       2.075   8.174  17.795  0.00  0.00    +0.000 C 
ENDROOT
BRANCH   1  16
ATOM      9  C   UNL     1      -3.443  12.978  20.153  0.00  0.00    +0.000 C 
ATOM     10  C   UNL     1      -2.377  12.253  20.913  0.00  0.00    +0.000 A 
ATOM     11  C   UNL     1      -2.288  12.425  22.362  0.00  0.00    +0.000 A 
ATOM     12  C   UNL     1      -1.385  11.753  23.102  0.00  0.00    +0.000 A 
ATOM     13  C   UNL     1      -0.498  10.842  22.467  0.00  0.00    +0.000 A 
ATOM     14  N   UNL     1       0.422  10.026  22.929  0.00  0.00    +0.000 NA
ATOM     15  N   UNL     1       1.000   9.404  21.850  0.00  0.00    +0.000 NA
ATOM     16  C   UNL     1       0.477   9.911  20.744  0.00  0.00    +0.000 A 
ATOM     17  N   UNL     1      -0.560  10.746  21.084  0.00  0.00    +0.000 N 
ATOM     18  C   UNL     1      -1.492  11.436  20.309  0.00  0.00    +0.000 A 
ENDBRANCH   1  16
BRANCH   6  19
ATOM     19  C   UNL     1       3.074   4.984  18.236  0.00  0.00    +0.000 A 
ATOM     20  C   UNL     1       1.835   4.546  18.756  0.00  0.00    +0.000 A 
ATOM     21  C   UNL     1       1.276   3.309  18.433  0.00  0.00    +0.000 A 
ATOM     22  C   UNL     1       1.938   2.465  17.562  0.00  0.00    +0.000 A 
ATOM     23  C   UNL     1       3.153   2.868  17.020  0.00  0.00    +0.000 A 
ATOM     24  C   UNL     1       3.748   4.118  17.337  0.00  0.00    +0.000 A 
BRANCH  24  25
ATOM     25  C   UNL     1       5.086   4.357  16.653  0.00  0.00    +0.000 C 
ATOM     26  F   UNL     1       6.135   4.712  17.438  0.00  0.00    +0.000 F 
ATOM     27  F   UNL     1       5.507   3.251  15.973  0.00  0.00    +0.000 F 
ATOM     28  F   UNL     1       4.999   5.345  15.714  0.00  0.00    +0.000 F 
ENDBRANCH  24  25
ENDBRANCH   6  19
TORSDOF 3
ENDMDL
MODEL 8
REMARK VINA RESULT:      -7.2      4.170      8.317
REMARK  Name = 
REMARK  4 active torsions:
REMARK  status: ('A' for Active; 'I' for Inactive)
REMARK    1  A    between atoms: C_1  and  C_2
REMARK    2  A    between atoms: C_8  and  C_9
REMARK    3  A    between atoms: C_14  and  C_15
REMARK    4  A    between atoms: C_20  and  C_21
REMARK                            x       y       z     vdW  Elec       q    Type
REMARK                         _______ _______ _______ _____ _____    ______ ____
ROOT
ATOM      1  C   UNL     1       1.623   9.524  18.411  0.00  0.00    +0.000 C 
ATOM      2  O   UNL     1       2.136   9.987  17.388  0.00  0.00    +0.000 OA
ATOM      3  N   UNL     1       1.957   8.236  18.866  0.00  0.00    +0.000 N 
ATOM      4  C   UNL     1       1.329   7.614  20.036  0.00  0.00    +0.000 C 
ATOM      5  C   UNL     1       2.271   6.708  20.812  0.00  0.00    +0.000 C 
ATOM      6  C   UNL     1       3.089   5.745  19.947  0.00  0.00    +0.000 C 
ATOM      7  C   UNL     1       3.703   6.474  18.743  0.00  0.00    +0.000 C 
ATOM      8  C   UNL     1       2.732   7.368  17.980  0.00  0.00    +0.000 C 
ENDROOT
BRANCH   1  16
ATOM      9  C   UNL     1      -3.648  10.250  16.780  0.00  0.00    +0.000 C 
ATOM     10  C   UNL     1      -2.658  10.722  17.799  0.00  0.00    +0.000 A 
ATOM     11  C   UNL     1      -3.033  11.795  18.718  0.00  0.00    +0.000 A 
ATOM     12  C   UNL     1      -2.203  12.218  19.690  0.00  0.00    +0.000 A 
ATOM     13  C   UNL     1      -0.930  11.604  19.842  0.00  0.00    +0.000 A 
ATOM     14  N   UNL     1       0.038  11.765  20.714  0.00  0.00    +0.000 NA
ATOM     15  N   UNL     1       1.060  10.921  20.354  0.00  0.00    +0.000 NA
ATOM     16  C   UNL     1       0.729  10.320  19.222  0.00  0.00    +0.000 A 
ATOM     17  N   UNL     1      -0.574  10.633  18.916  0.00  0.00    +0.000 N 
ATOM     18  C   UNL     1      -1.427  10.186  17.907  0.00  0.00    +0.000 A 
ENDBRANCH   1  16
BRANCH   6  19
ATOM     19  C   UNL     1       2.357   4.446  19.619  0.00  0.00    +0.000 A 
ATOM     20  C   UNL     1       0.968   4.356  19.870  0.00  0.00    +0.000 A 
ATOM     21  C   UNL     1       0.234   3.191  19.646  0.00  0.00    +0.000 A 
ATOM     22  C   UNL     1       0.867   2.068  19.146  0.00  0.00    +0.000 A 
ATOM     23  C   UNL     1       2.230   2.124  18.874  0.00  0.00    +0.000 A 
ATOM     24  C   UNL     1       3.002   3.293  19.101  0.00  0.00    +0.000 A 
BRANCH  24  25
ATOM     25  C   UNL     1       4.476   3.137  18.756  0.00  0.00    +0.000 C 
ATOM     26  F   UNL     1       4.872   3.526  17.517  0.00  0.00    +0.000 F 
ATOM     27  F   UNL     1       5.270   3.834  19.620  0.00  0.00    +0.000 F 
ATOM     28  F   UNL     1       4.881   1.837  18.863  0.00  0.00    +0.000 F 
ENDBRANCH  24  25
ENDBRANCH   6  19
TORSDOF 3
ENDMDL
MODEL 9
REMARK VINA RESULT:      -7.0      4.173      7.977
REMARK  Name = 
REMARK  4 active torsions:
REMARK  status: ('A' for Active; 'I' for Inactive)
REMARK    1  A    between atoms: C_1  and  C_2
REMARK    2  A    between atoms: C_8  and  C_9
REMARK    3  A    between atoms: C_14  and  C_15
REMARK    4  A    between atoms: C_20  and  C_21
REMARK                            x       y       z     vdW  Elec       q    Type
REMARK                         _______ _______ _______ _____ _____    ______ ____
ROOT
ATOM      1  C   UNL     1       0.726   9.625  20.239  0.00  0.00    +0.000 C 
ATOM      2  O   UNL     1       0.424   9.559  21.435  0.00  0.00    +0.000 OA
ATOM      3  N   UNL     1       1.424   8.577  19.613  0.00  0.00    +0.000 N 
ATOM      4  C   UNL     1       1.863   8.633  18.215  0.00  0.00    +0.000 C 
ATOM      5  C   UNL     1       1.840   7.280  17.524  0.00  0.00    +0.000 C 
ATOM      6  C   UNL     1       2.456   6.137  18.335  0.00  0.00    +0.000 C 
ATOM      7  C   UNL     1       1.950   6.157  19.785  0.00  0.00    +0.000 C 
ATOM      8  C   UNL     1       1.994   7.525  20.454  0.00  0.00    +0.000 C 
ENDROOT
BRANCH   1  16
ATOM      9  C   UNL     1       3.432  14.476  20.583  0.00  0.00    +0.000 C 
ATOM     10  C   UNL     1       2.211  13.851  19.982  0.00  0.00    +0.000 A 
ATOM     11  C   UNL     1       1.260  14.693  19.259  0.00  0.00    +0.000 A 
ATOM     12  C   UNL     1       0.175  14.175  18.651  0.00  0.00    +0.000 A 
ATOM     13  C   UNL     1      -0.053  12.773  18.699  0.00  0.00    +0.000 A 
ATOM     14  N   UNL     1      -0.970  12.001  18.162  0.00  0.00    +0.000 NA
ATOM     15  N   UNL     1      -0.719  10.716  18.576  0.00  0.00    +0.000 NA
ATOM     16  C   UNL     1       0.299  10.739  19.423  0.00  0.00    +0.000 A 
ATOM     17  N   UNL     1       0.830  12.007  19.446  0.00  0.00    +0.000 N 
ATOM     18  C   UNL     1       1.957  12.532  20.078  0.00  0.00    +0.000 A 
ENDBRANCH   1  16
BRANCH   6  19
ATOM     19  C   UNL     1       3.970   6.020  18.174  0.00  0.00    +0.000 A 
ATOM     20  C   UNL     1       4.682   7.082  17.569  0.00  0.00    +0.000 A 
ATOM     21  C   UNL     1       6.057   7.035  17.340  0.00  0.00    +0.000 A 
ATOM     22  C   UNL     1       6.777   5.919  17.722  0.00  0.00    +0.000 A 
ATOM     23  C   UNL     1       6.113   4.860  18.332  0.00  0.00    +0.000 A 
ATOM     24  C   UNL     1       4.714   4.879  18.570  0.00  0.00    +0.000 A 
BRANCH  24  25
ATOM     25  C   UNL     1       4.182   3.614  19.229  0.00  0.00    +0.000 C 
ATOM     26  F   UNL     1       3.495   3.757  20.391  0.00  0.00    +0.000 F 
ATOM     27  F   UNL     1       3.342   2.930  18.400  0.00  0.00    +0.000 F 
ATOM     28  F   UNL     1       5.190   2.740  19.522  0.00  0.00    +0.000 F 
ENDBRANCH  24  25
ENDBRANCH   6  19
TORSDOF 3
ENDMDL
