MODEL 1
REMARK VINA RESULT:      -6.4      0.000      0.000
REMARK  Name = 
REMARK  9 active torsions:
REMARK  status: ('A' for Active; 'I' for Inactive)
REMARK    1  A    between atoms: C_1  and  O_2
REMARK    2  A    between atoms: O_2  and  C_3
REMARK    3  A    between atoms: C_4  and  C_5
REMARK    4  A    between atoms: C_5  and  C_6
REMARK    5  A    between atoms: C_6  and  C_7
REMARK    6  A    between atoms: C_7  and  C_8
REMARK    7  A    between atoms: C_8  and  C_9
REMARK    8  A    between atoms: C_8  and  C_10
REMARK    9  A    between atoms: C_15  and  C_16
REMARK                            x       y       z     vdW  Elec       q    Type
REMARK                         _______ _______ _______ _____ _____    ______ ____
ROOT
ATOM      1  C   UNL     1       5.546   5.293  17.220  0.00  0.00    +0.000 A 
ATOM      2  C   UNL     1       4.662   4.261  17.763  0.00  0.00    +0.000 A 
ATOM      3  C   UNL     1       4.886   3.871  19.024  0.00  0.00    +0.000 A 
ATOM      4  O   UNL     1       5.898   4.349  19.842  0.00  0.00    +0.000 OA
ATOM      5  C   UNL     1       6.758   5.288  19.369  0.00  0.00    +0.000 A 
ATOM      6  O   UNL     1       7.693   5.678  20.061  0.00  0.00    +0.000 OA
ATOM      7  C   UNL     1       6.527   5.826  17.994  0.00  0.00    +0.000 A 
ATOM      8  C   UNL     1       7.423   6.981  17.655  0.00  0.00    +0.000 C 
ENDROOT
BRANCH   1  10
ATOM      9  C   UNL     1       5.999   5.074  14.857  0.00  0.00    +0.000 C 
ATOM     10  O   UNL     1       5.234   5.628  15.921  0.00  0.00    +0.000 OA
ENDBRANCH   1  10
BRANCH   2  11
ATOM     11  C   UNL     1       3.525   3.673  16.919  0.00  0.00    +0.000 C 
BRANCH  11  12
ATOM     12  C   UNL     1       2.406   3.041  17.777  0.00  0.00    +0.000 C 
BRANCH  12  13
ATOM     13  C   UNL     1       1.292   3.967  18.264  0.00  0.00    +0.000 C 
BRANCH  13  14
ATOM     14  C   UNL     1       1.085   3.824  19.795  0.00  0.00    +0.000 C 
ATOM     15  C   UNL     1       1.677   2.526  20.356  0.00  0.00    +0.000 C 
ATOM     16  C   UNL     1       1.681   5.016  20.542  0.00  0.00    +0.000 C 
ENDBRANCH  13  14
ENDBRANCH  12  13
ENDBRANCH  11  12
ENDBRANCH   2  11
TORSDOF 5
ENDMDL
MODEL 2
REMARK VINA RESULT:      -6.2      1.240      1.353
REMARK  Name = 
REMARK  9 active torsions:
REMARK  status: ('A' for Active; 'I' for Inactive)
REMARK    1  A    between atoms: C_1  and  O_2
REMARK    2  A    between atoms: O_2  and  C_3
REMARK    3  A    between atoms: C_4  and  C_5
REMARK    4  A    between atoms: C_5  and  C_6
REMARK    5  A    between atoms: C_6  and  C_7
REMARK    6  A    between atoms: C_7  and  C_8
REMARK    7  A    between atoms: C_8  and  C_9
REMARK    8  A    between atoms: C_8  and  C_10
REMARK    9  A    between atoms: C_15  and  C_16
REMARK                            x       y       z     vdW  Elec       q    Type
REMARK                         _______ _______ _______ _____ _____    ______ ____
ROOT
ATOM      1  C   UNL     1       5.262   4.193  17.313  0.00  0.00    +0.000 A 
ATOM      2  C   UNL     1       3.938   4.458  17.876  0.00  0.00    +0.000 A 
ATOM      3  C   UNL     1       3.895   5.094  19.053  0.00  0.00    +0.000 A 
ATOM      4  O   UNL     1       4.999   5.497  19.788  0.00  0.00    +0.000 OA
ATOM      5  C   UNL     1       6.248   5.246  19.315  0.00  0.00    +0.000 A 
ATOM      6  O   UNL     1       7.235   5.544  19.981  0.00  0.00    +0.000 OA
ATOM      7  C   UNL     1       6.378   4.604  17.972  0.00  0.00    +0.000 A 
ATOM      8  C   UNL     1       7.794   4.546  17.480  0.00  0.00    +0.000 C 
ENDROOT
BRANCH   1  10
ATOM      9  C   UNL     1       5.558   4.239  14.915  0.00  0.00    +0.000 C 
ATOM     10  O   UNL     1       5.202   3.539  16.102  0.00  0.00    +0.000 OA
ENDBRANCH   1  10
BRANCH   2  11
ATOM     11  C   UNL     1       2.666   4.036  17.132  0.00  0.00    +0.000 C 
BRANCH  11  12
ATOM     12  C   UNL     1       1.495   3.706  18.084  0.00  0.00    +0.000 C 
BRANCH  12  13
ATOM     13  C   UNL     1       1.666   2.504  19.012  0.00  0.00    +0.000 C 
BRANCH  13  14
ATOM     14  C   UNL     1       1.288   2.875  20.471  0.00  0.00    +0.000 C 
ATOM     15  C   UNL     1       2.418   2.595  21.468  0.00  0.00    +0.000 C 
ATOM     16  C   UNL     1       0.875   4.342  20.573  0.00  0.00    +0.000 C 
ENDBRANCH  13  14
ENDBRANCH  12  13
ENDBRANCH  11  12
ENDBRANCH   2  11
TORSDOF 5
ENDMDL
MODEL 3
REMARK VINA RESULT:      -6.2      0.626      1.064
REMARK  Name = 
REMARK  9 active torsions:
REMARK  status: ('A' for Active; 'I' for Inactive)
REMARK    1  A    between atoms: C_1  and  O_2
REMARK    2  A    between atoms: O_2  and  C_3
REMARK    3  A    between atoms: C_4  and  C_5
REMARK    4  A    between atoms: C_5  and  C_6
REMARK    5  A    between atoms: C_6  and  C_7
REMARK    6  A    between atoms: C_7  and  C_8
REMARK    7  A    between atoms: C_8  and  C_9
REMARK    8  A    between atoms: C_8  and  C_10
REMARK    9  A    between atoms: C_15  and  C_16
REMARK                            x       y       z     vdW  Elec       q    Type
REMARK                         _______ _______ _______ _____ _____    ______ ____
ROOT
ATOM      1  C   UNL     1       5.567   5.540  17.183  0.00  0.00    +0.000 A 
ATOM      2  C   UNL     1       4.755   4.533  17.868  0.00  0.00    +0.000 A 
ATOM      3  C   UNL     1       5.146   4.171  19.096  0.00  0.00    +0.000 A 
ATOM      4  O   UNL     1       6.265   4.653  19.756  0.00  0.00    +0.000 OA
ATOM      5  C   UNL     1       7.062   5.568  19.145  0.00  0.00    +0.000 A 
ATOM      6  O   UNL     1       8.088   5.961  19.692  0.00  0.00    +0.000 OA
ATOM      7  C   UNL     1       6.651   6.077  17.801  0.00  0.00    +0.000 A 
ATOM      8  C   UNL     1       7.505   7.210  17.313  0.00  0.00    +0.000 C 
ENDROOT
BRANCH   1  10
ATOM      9  C   UNL     1       5.688   5.256  14.787  0.00  0.00    +0.000 C 
ATOM     10  O   UNL     1       5.083   5.848  15.930  0.00  0.00    +0.000 OA
ENDBRANCH   1  10
BRANCH   2  11
ATOM     11  C   UNL     1       3.507   3.942  17.204  0.00  0.00    +0.000 C 
BRANCH  11  12
ATOM     12  C   UNL     1       2.192   4.502  17.790  0.00  0.00    +0.000 C 
BRANCH  12  13
ATOM     13  C   UNL     1       1.416   3.601  18.751  0.00  0.00    +0.000 C 
BRANCH  13  14
ATOM     14  C   UNL     1       1.870   3.837  20.216  0.00  0.00    +0.000 C 
ATOM     15  C   UNL     1       1.620   5.272  20.693  0.00  0.00    +0.000 C 
ATOM     16  C   UNL     1       1.182   2.860  21.168  0.00  0.00    +0.000 C 
ENDBRANCH  13  14
ENDBRANCH  12  13
ENDBRANCH  11  12
ENDBRANCH   2  11
TORSDOF 5
ENDMDL
MODEL 4
REMARK VINA RESULT:      -6.2      2.081      3.061
REMARK  Name = 
REMARK  9 active torsions:
REMARK  status: ('A' for Active; 'I' for Inactive)
REMARK    1  A    between atoms: C_1  and  O_2
REMARK    2  A    between atoms: O_2  and  C_3
REMARK    3  A    between atoms: C_4  and  C_5
REMARK    4  A    between atoms: C_5  and  C_6
REMARK    5  A    between atoms: C_6  and  C_7
REMARK    6  A    between atoms: C_7  and  C_8
REMARK    7  A    between atoms: C_8  and  C_9
REMARK    8  A    between atoms: C_8  and  C_10
REMARK    9  A    between atoms: C_15  and  C_16
REMARK                            x       y       z     vdW  Elec       q    Type
REMARK                         _______ _______ _______ _____ _____    ______ ____
ROOT
ATOM      1  C   UNL     1       4.260   4.619  16.853  0.00  0.00    +0.000 A 
ATOM      2  C   UNL     1       3.739   5.793  17.554  0.00  0.00    +0.000 A 
ATOM      3  C   UNL     1       4.509   6.888  17.562  0.00  0.00    +0.000 A 
ATOM      4  O   UNL     1       5.765   6.988  16.983  0.00  0.00    +0.000 OA
ATOM      5  C   UNL     1       6.298   5.913  16.346  0.00  0.00    +0.000 A 
ATOM      6  O   UNL     1       7.432   5.968  15.880  0.00  0.00    +0.000 OA
ATOM      7  C   UNL     1       5.467   4.677  16.232  0.00  0.00    +0.000 A 
ATOM      8  C   UNL     1       6.086   3.628  15.355  0.00  0.00    +0.000 C 
ENDROOT
BRANCH   1  10
ATOM      9  C   UNL     1       3.701   2.442  17.739  0.00  0.00    +0.000 C 
ATOM     10  O   UNL     1       3.395   3.548  16.898  0.00  0.00    +0.000 OA
ENDBRANCH   1  10
BRANCH   2  11
ATOM     11  C   UNL     1       2.363   5.762  18.230  0.00  0.00    +0.000 C 
BRANCH  11  12
ATOM     12  C   UNL     1       2.415   6.179  19.716  0.00  0.00    +0.000 C 
BRANCH  12  13
ATOM     13  C   UNL     1       1.668   5.297  20.717  0.00  0.00    +0.000 C 
BRANCH  13  14
ATOM     14  C   UNL     1       1.906   3.794  20.411  0.00  0.00    +0.000 C 
ATOM     15  C   UNL     1       2.363   3.002  21.641  0.00  0.00    +0.000 C 
ATOM     16  C   UNL     1       0.649   3.147  19.831  0.00  0.00    +0.000 C 
ENDBRANCH  13  14
ENDBRANCH  12  13
ENDBRANCH  11  12
ENDBRANCH   2  11
TORSDOF 5
ENDMDL
MODEL 5
REMARK VINA RESULT:      -6.0      1.874      2.422
REMARK  Name = 
REMARK  9 active torsions:
REMARK  status: ('A' for Active; 'I' for Inactive)
REMARK    1  A    between atoms: C_1  and  O_2
REMARK    2  A    between atoms: O_2  and  C_3
REMARK    3  A    between atoms: C_4  and  C_5
REMARK    4  A    between atoms: C_5  and  C_6
REMARK    5  A    between atoms: C_6  and  C_7
REMARK    6  A    between atoms: C_7  and  C_8
REMARK    7  A    between atoms: C_8  and  C_9
REMARK    8  A    between atoms: C_8  and  C_10
REMARK    9  A    between atoms: C_15  and  C_16
REMARK                            x       y       z     vdW  Elec       q    Type
REMARK                         _______ _______ _______ _____ _____    ______ ____
ROOT
ATOM      1  C   UNL     1       4.641   5.629  17.462  0.00  0.00    +0.000 A 
ATOM      2  C   UNL     1       3.923   4.415  17.071  0.00  0.00    +0.000 A 
ATOM      3  C   UNL     1       4.592   3.529  16.323  0.00  0.00    +0.000 A 
ATOM      4  O   UNL     1       5.894   3.681  15.873  0.00  0.00    +0.000 OA
ATOM      5  C   UNL     1       6.587   4.805  16.189  0.00  0.00    +0.000 A 
ATOM      6  O   UNL     1       7.719   4.981  15.749  0.00  0.00    +0.000 OA
ATOM      7  C   UNL     1       5.934   5.809  17.083  0.00  0.00    +0.000 A 
ATOM      8  C   UNL     1       6.858   6.911  17.508  0.00  0.00    +0.000 C 
ENDROOT
BRANCH   1  10
ATOM      9  C   UNL     1       3.321   7.645  17.639  0.00  0.00    +0.000 C 
ATOM     10  O   UNL     1       3.872   6.474  18.231  0.00  0.00    +0.000 OA
ENDBRANCH   1  10
BRANCH   2  11
ATOM     11  C   UNL     1       2.477   4.175  17.520  0.00  0.00    +0.000 C 
BRANCH  11  12
ATOM     12  C   UNL     1       2.358   3.074  18.597  0.00  0.00    +0.000 C 
BRANCH  12  13
ATOM     13  C   UNL     1       1.035   2.981  19.358  0.00  0.00    +0.000 C 
BRANCH  13  14
ATOM     14  C   UNL     1       1.187   3.539  20.798  0.00  0.00    +0.000 C 
ATOM     15  C   UNL     1       2.188   2.743  21.642  0.00  0.00    +0.000 C 
ATOM     16  C   UNL     1       1.602   5.010  20.775  0.00  0.00    +0.000 C 
ENDBRANCH  13  14
ENDBRANCH  12  13
ENDBRANCH  11  12
ENDBRANCH   2  11
TORSDOF 5
ENDMDL
MODEL 6
REMARK VINA RESULT:      -6.0      1.194      1.483
REMARK  Name = 
REMARK  9 active torsions:
REMARK  status: ('A' for Active; 'I' for Inactive)
REMARK    1  A    between atoms: C_1  and  O_2
REMARK    2  A    between atoms: O_2  and  C_3
REMARK    3  A    between atoms: C_4  and  C_5
REMARK    4  A    between atoms: C_5  and  C_6
REMARK    5  A    between atoms: C_6  and  C_7
REMARK    6  A    between atoms: C_7  and  C_8
REMARK    7  A    between atoms: C_8  and  C_9
REMARK    8  A    between atoms: C_8  and  C_10
REMARK    9  A    between atoms: C_15  and  C_16
REMARK                            x       y       z     vdW  Elec       q    Type
REMARK                         _______ _______ _______ _____ _____    ______ ____
ROOT
ATOM      1  C   UNL     1       5.344   6.299  17.605  0.00  0.00    +0.000 A 
ATOM      2  C   UNL     1       4.338   5.501  18.306  0.00  0.00    +0.000 A 
ATOM      3  C   UNL     1       4.744   4.824  19.387  0.00  0.00    +0.000 A 
ATOM      4  O   UNL     1       6.041   4.801  19.877  0.00  0.00    +0.000 OA
ATOM      5  C   UNL     1       7.012   5.506  19.241  0.00  0.00    +0.000 A 
ATOM      6  O   UNL     1       8.175   5.449  19.628  0.00  0.00    +0.000 OA
ATOM      7  C   UNL     1       6.621   6.345  18.068  0.00  0.00    +0.000 A 
ATOM      8  C   UNL     1       7.737   7.214  17.565  0.00  0.00    +0.000 C 
ENDROOT
BRANCH   1  10
ATOM      9  C   UNL     1       5.147   6.494  15.205  0.00  0.00    +0.000 C 
ATOM     10  O   UNL     1       4.829   6.959  16.511  0.00  0.00    +0.000 OA
ENDBRANCH   1  10
BRANCH   2  11
ATOM     11  C   UNL     1       2.883   5.464  17.823  0.00  0.00    +0.000 C 
BRANCH  11  12
ATOM     12  C   UNL     1       1.947   4.711  18.794  0.00  0.00    +0.000 C 
BRANCH  12  13
ATOM     13  C   UNL     1       1.265   3.448  18.268  0.00  0.00    +0.000 C 
BRANCH  13  14
ATOM     14  C   UNL     1       1.731   2.198  19.061  0.00  0.00    +0.000 C 
ATOM     15  C   UNL     1       3.090   1.669  18.592  0.00  0.00    +0.000 C 
ATOM     16  C   UNL     1       1.791   2.491  20.559  0.00  0.00    +0.000 C 
ENDBRANCH  13  14
ENDBRANCH  12  13
ENDBRANCH  11  12
ENDBRANCH   2  11
TORSDOF 5
ENDMDL
MODEL 7
REMARK VINA RESULT:      -5.9      2.153      5.054
REMARK  Name = 
REMARK  9 active torsions:
REMARK  status: ('A' for Active; 'I' for Inactive)
REMARK    1  A    between atoms: C_1  and  O_2
REMARK    2  A    between atoms: O_2  and  C_3
REMARK    3  A    between atoms: C_4  and  C_5
REMARK    4  A    between atoms: C_5  and  C_6
REMARK    5  A    between atoms: C_6  and  C_7
REMARK    6  A    between atoms: C_7  and  C_8
REMARK    7  A    between atoms: C_8  and  C_9
REMARK    8  A    between atoms: C_8  and  C_10
REMARK    9  A    between atoms: C_15  and  C_16
REMARK                            x       y       z     vdW  Elec       q    Type
REMARK                         _______ _______ _______ _____ _____    ______ ____
ROOT
ATOM      1  C   UNL     1       3.392   3.986  18.903  0.00  0.00    +0.000 A 
ATOM      2  C   UNL     1       3.806   4.805  17.763  0.00  0.00    +0.000 A 
ATOM      3  C   UNL     1       3.467   6.099  17.790  0.00  0.00    +0.000 A 
ATOM      4  O   UNL     1       2.738   6.716  18.795  0.00  0.00    +0.000 OA
ATOM      5  C   UNL     1       2.310   5.987  19.859  0.00  0.00    +0.000 A 
ATOM      6  O   UNL     1       1.615   6.505  20.727  0.00  0.00    +0.000 OA
ATOM      7  C   UNL     1       2.712   4.550  19.936  0.00  0.00    +0.000 A 
ATOM      8  C   UNL     1       2.338   3.902  21.237  0.00  0.00    +0.000 C 
ENDROOT
BRANCH   1  10
ATOM      9  C   UNL     1       2.883   1.717  18.245  0.00  0.00    +0.000 C 
ATOM     10  O   UNL     1       3.790   2.673  18.784  0.00  0.00    +0.000 OA
ENDBRANCH   1  10
BRANCH   2  11
ATOM     11  C   UNL     1       4.606   4.197  16.605  0.00  0.00    +0.000 C 
BRANCH  11  12
ATOM     12  C   UNL     1       5.896   4.986  16.288  0.00  0.00    +0.000 C 
BRANCH  12  13
ATOM     13  C   UNL     1       7.171   4.563  17.017  0.00  0.00    +0.000 C 
BRANCH  13  14
ATOM     14  C   UNL     1       7.609   5.648  18.036  0.00  0.00    +0.000 C 
ATOM     15  C   UNL     1       7.385   7.074  17.521  0.00  0.00    +0.000 C 
ATOM     16  C   UNL     1       6.885   5.472  19.370  0.00  0.00    +0.000 C 
ENDBRANCH  13  14
ENDBRANCH  12  13
ENDBRANCH  11  12
ENDBRANCH   2  11
TORSDOF 5
ENDMDL
MODEL 8
REMARK VINA RESULT:      -5.8      1.690      3.097
REMARK  Name = 
REMARK  9 active torsions:
REMARK  status: ('A' for Active; 'I' for Inactive)
REMARK    1  A    between atoms: C_1  and  O_2
REMARK    2  A    between atoms: O_2  and  C_3
REMARK    3  A    between atoms: C_4  and  C_5
REMARK    4  A    between atoms: C_5  and  C_6
REMARK    5  A    between atoms: C_6  and  C_7
REMARK    6  A    between atoms: C_7  and  C_8
REMARK    7  A    between atoms: C_8  and  C_9
REMARK    8  A    between atoms: C_8  and  C_10
REMARK    9  A    between atoms: C_15  and  C_16
REMARK                            x       y       z     vdW  Elec       q    Type
REMARK                         _______ _______ _______ _____ _____    ______ ____
ROOT
ATOM      1  C   UNL     1       5.004   4.546  16.965  0.00  0.00    +0.000 A 
ATOM      2  C   UNL     1       5.449   5.209  18.191  0.00  0.00    +0.000 A 
ATOM      3  C   UNL     1       6.602   5.887  18.130  0.00  0.00    +0.000 A 
ATOM      4  O   UNL     1       7.413   5.990  17.010  0.00  0.00    +0.000 OA
ATOM      5  C   UNL     1       7.051   5.366  15.859  0.00  0.00    +0.000 A 
ATOM      6  O   UNL     1       7.787   5.398  14.878  0.00  0.00    +0.000 OA
ATOM      7  C   UNL     1       5.740   4.649  15.828  0.00  0.00    +0.000 A 
ATOM      8  C   UNL     1       5.367   4.160  14.459  0.00  0.00    +0.000 C 
ENDROOT
BRANCH   1  10
ATOM      9  C   UNL     1       3.825   2.494  17.456  0.00  0.00    +0.000 C 
ATOM     10  O   UNL     1       3.809   3.879  17.128  0.00  0.00    +0.000 OA
ENDBRANCH   1  10
BRANCH   2  11
ATOM     11  C   UNL     1       4.615   5.136  19.475  0.00  0.00    +0.000 C 
BRANCH  11  12
ATOM     12  C   UNL     1       3.292   5.928  19.377  0.00  0.00    +0.000 C 
BRANCH  12  13
ATOM     13  C   UNL     1       2.132   5.462  20.257  0.00  0.00    +0.000 C 
BRANCH  13  14
ATOM     14  C   UNL     1       2.073   3.912  20.316  0.00  0.00    +0.000 C 
ATOM     15  C   UNL     1       2.098   3.370  21.749  0.00  0.00    +0.000 C 
ATOM     16  C   UNL     1       0.833   3.384  19.596  0.00  0.00    +0.000 C 
ENDBRANCH  13  14
ENDBRANCH  12  13
ENDBRANCH  11  12
ENDBRANCH   2  11
TORSDOF 5
ENDMDL
MODEL 9
REMARK VINA RESULT:      -5.8      2.364      5.388
REMARK  Name = 
REMARK  9 active torsions:
REMARK  status: ('A' for Active; 'I' for Inactive)
REMARK    1  A    between atoms: C_1  and  O_2
REMARK    2  A    between atoms: O_2  and  C_3
REMARK    3  A    between atoms: C_4  and  C_5
REMARK    4  A    between atoms: C_5  and  C_6
REMARK    5  A    between atoms: C_6  and  C_7
REMARK    6  A    between atoms: C_7  and  C_8
REMARK    7  A    between atoms: C_8  and  C_9
REMARK    8  A    between atoms: C_8  and  C_10
REMARK    9  A    between atoms: C_15  and  C_16
REMARK                            x       y       z     vdW  Elec       q    Type
REMARK                         _______ _______ _______ _____ _____    ______ ____
ROOT
ATOM      1  C   UNL     1       5.127   4.465  17.321  0.00  0.00    +0.000 A 
ATOM      2  C   UNL     1       5.956   4.967  16.225  0.00  0.00    +0.000 A 
ATOM      3  C   UNL     1       7.110   5.558  16.556  0.00  0.00    +0.000 A 
ATOM      4  O   UNL     1       7.568   5.752  17.850  0.00  0.00    +0.000 OA
ATOM      5  C   UNL     1       6.817   5.327  18.900  0.00  0.00    +0.000 A 
ATOM      6  O   UNL     1       7.180   5.544  20.051  0.00  0.00    +0.000 OA
ATOM      7  C   UNL     1       5.549   4.593  18.607  0.00  0.00    +0.000 A 
ATOM      8  C   UNL     1       4.904   4.016  19.834  0.00  0.00    +0.000 C 
ENDROOT
BRANCH   1  10
ATOM      9  C   UNL     1       2.726   4.239  17.476  0.00  0.00    +0.000 C 
ATOM     10  O   UNL     1       3.965   3.873  16.879  0.00  0.00    +0.000 OA
ENDBRANCH   1  10
BRANCH   2  11
ATOM     11  C   UNL     1       5.517   4.801  14.765  0.00  0.00    +0.000 C 
BRANCH  11  12
ATOM     12  C   UNL     1       6.386   3.787  13.989  0.00  0.00    +0.000 C 
BRANCH  12  13
ATOM     13  C   UNL     1       6.272   3.791  12.464  0.00  0.00    +0.000 C 
BRANCH  13  14
ATOM     14  C   UNL     1       5.313   2.671  11.979  0.00  0.00    +0.000 C 
ATOM     15  C   UNL     1       4.143   3.208  11.148  0.00  0.00    +0.000 C 
ATOM     16  C   UNL     1       6.067   1.617  11.170  0.00  0.00    +0.000 C 
ENDBRANCH  13  14
ENDBRANCH  12  13
ENDBRANCH  11  12
ENDBRANCH   2  11
TORSDOF 5
ENDMDL
