MODEL 1
REMARK VINA RESULT:      -8.8      0.000      0.000
REMARK  Name = 
REMARK  9 active torsions:
REMARK  status: ('A' for Active; 'I' for Inactive)
REMARK    1  A    between atoms: C_1  and  C_2
REMARK    2  A    between atoms: C_8  and  C_9
REMARK    3  A    between atoms: C_9  and  N_10
REMARK    4  A    between atoms: C_11  and  C_13
REMARK    5  A    between atoms: C_13  and  N_14
REMARK    6  A    between atoms: C_15  and  C_16
REMARK    7  A    between atoms: N_20  and  C_21
REMARK    8  A    between atoms: C_21  and  C_22
REMARK    9  A    between atoms: C_22  and  C_25
REMARK                            x       y       z     vdW  Elec       q    Type
REMARK                         _______ _______ _______ _____ _____    ______ ____
ROOT
ATOM      1  N   UNL     1       1.091   9.898  19.558  0.00  0.00    +0.000 N 
ATOM      2  C   UNL     1       0.989   9.299  20.811  0.00  0.00    +0.000 A 
ATOM      3  C   UNL     1       0.436  10.025  22.009  0.00  0.00    +0.000 C 
ATOM      4  C   UNL     1       1.450   8.045  20.979  0.00  0.00    +0.000 A 
ATOM      5  N   UNL     1       1.983   7.242  20.009  0.00  0.00    +0.000 NA
ATOM      6  C   UNL     1       2.140   7.756  18.822  0.00  0.00    +0.000 A 
ATOM      7  N   UNL     1       2.621   7.015  17.759  0.00  0.00    +0.000 N 
ATOM      8  C   UNL     1       1.774   9.233  18.537  0.00  0.00    +0.000 A 
ATOM      9  O   UNL     1       2.079   9.703  17.447  0.00  0.00    +0.000 OA
ATOM     10  H   UNL     1       2.861   7.560  16.932  0.00  0.00    +0.000 HD
ENDROOT
BRANCH   1  11
ATOM     11  C   UNL     1       0.605  11.247  19.265  0.00  0.00    +0.000 C 
BRANCH  11  13
ATOM     12  N   UNL     1      -1.467  12.458  19.924  0.00  0.00    +0.000 N 
ATOM     13  C   UNL     1      -0.928  11.402  19.217  0.00  0.00    +0.000 C 
ATOM     14  O   UNL     1      -1.629  10.538  18.696  0.00  0.00    +0.000 OA
ATOM     15  H   UNL     1      -0.847  13.191  20.245  0.00  0.00    +0.000 HD
BRANCH  12  16
ATOM     16  C   UNL     1      -2.899  12.682  19.993  0.00  0.00    +0.000 C 
BRANCH  16  24
ATOM     17  C   UNL     1      -5.871  12.943  20.671  0.00  0.00    +0.000 C 
ATOM     18  C   UNL     1      -4.806  12.726  21.706  0.00  0.00    +0.000 A 
ATOM     19  N   UNL     1      -5.251  12.689  22.986  0.00  0.00    +0.000 NA
ATOM     20  C   UNL     1      -4.352  12.509  23.955  0.00  0.00    +0.000 A 
ATOM     21  N   UNL     1      -4.811  12.494  25.255  0.00  0.00    +0.000 N 
ATOM     22  N   UNL     1      -3.040  12.401  23.756  0.00  0.00    +0.000 NA
ATOM     23  C   UNL     1      -2.629  12.436  22.471  0.00  0.00    +0.000 A 
ATOM     24  C   UNL     1      -3.465  12.585  21.379  0.00  0.00    +0.000 A 
ATOM     25  H   UNL     1      -5.693  12.983  25.306  0.00  0.00    +0.000 HD
ATOM     26  H   UNL     1      -4.076  12.795  25.880  0.00  0.00    +0.000 HD
ENDBRANCH  16  24
ENDBRANCH  12  16
ENDBRANCH  11  13
ENDBRANCH   1  11
BRANCH   7  27
ATOM     27  C   UNL     1       3.385   5.782  17.961  0.00  0.00    +0.000 C 
BRANCH  27  28
ATOM     28  C   UNL     1       2.519   4.507  17.826  0.00  0.00    +0.000 C 
ATOM     29  F   UNL     1       1.301   4.858  17.316  0.00  0.00    +0.000 F 
ATOM     30  F   UNL     1       3.090   3.712  16.866  0.00  0.00    +0.000 F 
BRANCH  28  31
ATOM     31  C   UNL     1       2.391   3.789  19.155  0.00  0.00    +0.000 A 
ATOM     32  C   UNL     1       1.145   3.696  19.797  0.00  0.00    +0.000 A 
ATOM     33  C   UNL     1       1.028   3.048  21.028  0.00  0.00    +0.000 A 
ATOM     34  C   UNL     1       2.150   2.484  21.630  0.00  0.00    +0.000 A 
ATOM     35  C   UNL     1       3.391   2.567  21.003  0.00  0.00    +0.000 A 
ATOM     36  C   UNL     1       3.513   3.217  19.773  0.00  0.00    +0.000 A 
ENDBRANCH  28  31
ENDBRANCH  27  28
ENDBRANCH   7  27
TORSDOF 7
ENDMDL
MODEL 2
REMARK VINA RESULT:      -8.5      0.933      1.323
REMARK  Name = 
REMARK  9 active torsions:
REMARK  status: ('A' for Active; 'I' for Inactive)
REMARK    1  A    between atoms: C_1  and  C_2
REMARK    2  A    between atoms: C_8  and  C_9
REMARK    3  A    between atoms: C_9  and  N_10
REMARK    4  A    between atoms: C_11  and  C_13
REMARK    5  A    between atoms: C_13  and  N_14
REMARK    6  A    between atoms: C_15  and  C_16
REMARK    7  A    between atoms: N_20  and  C_21
REMARK    8  A    between atoms: C_21  and  C_22
REMARK    9  A    between atoms: C_22  and  C_25
REMARK                            x       y       z     vdW  Elec       q    Type
REMARK                         _______ _______ _______ _____ _____    ______ ____
ROOT
ATOM      1  N   UNL     1       0.578  10.245  19.939  0.00  0.00    +0.000 N 
ATOM      2  C   UNL     1       0.502   9.622  21.181  0.00  0.00    +0.000 A 
ATOM      3  C   UNL     1      -0.159  10.270  22.369  0.00  0.00    +0.000 C 
ATOM      4  C   UNL     1       1.085   8.420  21.349  0.00  0.00    +0.000 A 
ATOM      5  N   UNL     1       1.728   7.690  20.388  0.00  0.00    +0.000 NA
ATOM      6  C   UNL     1       1.866   8.234  19.212  0.00  0.00    +0.000 A 
ATOM      7  N   UNL     1       2.453   7.561  18.156  0.00  0.00    +0.000 N 
ATOM      8  C   UNL     1       1.357   9.670  18.932  0.00  0.00    +0.000 A 
ATOM      9  O   UNL     1       1.644  10.184  17.857  0.00  0.00    +0.000 OA
ATOM     10  H   UNL     1       2.659   8.140  17.343  0.00  0.00    +0.000 HD
ENDROOT
BRANCH   1  11
ATOM     11  C   UNL     1      -0.036  11.541  19.645  0.00  0.00    +0.000 C 
BRANCH  11  13
ATOM     12  N   UNL     1      -2.354  12.395  19.948  0.00  0.00    +0.000 N 
ATOM     13  C   UNL     1      -1.535  11.497  19.293  0.00  0.00    +0.000 C 
ATOM     14  O   UNL     1      -1.985  10.607  18.576  0.00  0.00    +0.000 OA
ATOM     15  H   UNL     1      -1.925  13.167  20.443  0.00  0.00    +0.000 HD
BRANCH  12  16
ATOM     16  C   UNL     1      -3.789  12.421  19.736  0.00  0.00    +0.000 C 
BRANCH  16  24
ATOM     17  C   UNL     1      -6.722  11.603  20.031  0.00  0.00    +0.000 C 
ATOM     18  C   UNL     1      -5.926  12.228  21.139  0.00  0.00    +0.000 A 
ATOM     19  N   UNL     1      -6.614  12.444  22.288  0.00  0.00    +0.000 NA
ATOM     20  C   UNL     1      -5.965  13.006  23.308  0.00  0.00    +0.000 A 
ATOM     21  N   UNL     1      -6.678  13.240  24.465  0.00  0.00    +0.000 N 
ATOM     22  N   UNL     1      -4.696  13.407  23.266  0.00  0.00    +0.000 NA
ATOM     23  C   UNL     1      -4.037  13.174  22.112  0.00  0.00    +0.000 A 
ATOM     24  C   UNL     1      -4.589  12.570  20.996  0.00  0.00    +0.000 A 
ATOM     25  H   UNL     1      -7.663  13.291  24.247  0.00  0.00    +0.000 HD
ATOM     26  H   UNL     1      -6.271  14.019  24.965  0.00  0.00    +0.000 HD
ENDBRANCH  16  24
ENDBRANCH  12  16
ENDBRANCH  11  13
ENDBRANCH   1  11
BRANCH   7  27
ATOM     27  C   UNL     1       3.334   6.412  18.369  0.00  0.00    +0.000 C 
BRANCH  27  28
ATOM     28  C   UNL     1       2.660   5.063  18.021  0.00  0.00    +0.000 C 
ATOM     29  F   UNL     1       1.451   5.317  17.437  0.00  0.00    +0.000 F 
ATOM     30  F   UNL     1       3.407   4.462  17.041  0.00  0.00    +0.000 F 
BRANCH  28  31
ATOM     31  C   UNL     1       2.523   4.186  19.250  0.00  0.00    +0.000 A 
ATOM     32  C   UNL     1       3.601   3.398  19.686  0.00  0.00    +0.000 A 
ATOM     33  C   UNL     1       3.472   2.579  20.809  0.00  0.00    +0.000 A 
ATOM     34  C   UNL     1       2.268   2.540  21.510  0.00  0.00    +0.000 A 
ATOM     35  C   UNL     1       1.193   3.319  21.089  0.00  0.00    +0.000 A 
ATOM     36  C   UNL     1       1.317   4.136  19.964  0.00  0.00    +0.000 A 
ENDBRANCH  28  31
ENDBRANCH  27  28
ENDBRANCH   7  27
TORSDOF 7
ENDMDL
MODEL 3
REMARK VINA RESULT:      -8.4      6.580      9.357
REMARK  Name = 
REMARK  9 active torsions:
REMARK  status: ('A' for Active; 'I' for Inactive)
REMARK    1  A    between atoms: C_1  and  C_2
REMARK    2  A    between atoms: C_8  and  C_9
REMARK    3  A    between atoms: C_9  and  N_10
REMARK    4  A    between atoms: C_11  and  C_13
REMARK    5  A    between atoms: C_13  and  N_14
REMARK    6  A    between atoms: C_15  and  C_16
REMARK    7  A    between atoms: N_20  and  C_21
REMARK    8  A    between atoms: C_21  and  C_22
REMARK    9  A    between atoms: C_22  and  C_25
REMARK                            x       y       z     vdW  Elec       q    Type
REMARK                         _______ _______ _______ _____ _____    ______ ____
ROOT
ATOM      1  N   UNL     1       6.576   5.026  17.677  0.00  0.00    +0.000 N 
ATOM      2  C   UNL     1       6.385   4.420  16.438  0.00  0.00    +0.000 A 
ATOM      3  C   UNL     1       7.186   4.803  15.221  0.00  0.00    +0.000 C 
ATOM      4  C   UNL     1       5.414   3.498  16.300  0.00  0.00    +0.000 A 
ATOM      5  N   UNL     1       4.593   3.033  17.290  0.00  0.00    +0.000 NA
ATOM      6  C   UNL     1       4.696   3.585  18.466  0.00  0.00    +0.000 A 
ATOM      7  N   UNL     1       3.951   3.154  19.548  0.00  0.00    +0.000 N 
ATOM      8  C   UNL     1       5.682   4.752  18.715  0.00  0.00    +0.000 A 
ATOM      9  O   UNL     1       5.633   5.329  19.795  0.00  0.00    +0.000 OA
ATOM     10  H   UNL     1       3.988   3.765  20.363  0.00  0.00    +0.000 HD
ENDROOT
BRANCH   1  11
ATOM     11  C   UNL     1       7.612   6.025  17.937  0.00  0.00    +0.000 C 
BRANCH  11  13
ATOM     12  N   UNL     1       8.106   8.464  17.944  0.00  0.00    +0.000 N 
ATOM     13  C   UNL     1       7.274   7.461  17.491  0.00  0.00    +0.000 C 
ATOM     14  O   UNL     1       6.230   7.701  16.888  0.00  0.00    +0.000 OA
ATOM     15  H   UNL     1       9.000   8.206  18.345  0.00  0.00    +0.000 HD
BRANCH  12  16
ATOM     16  C   UNL     1       7.866   9.860  17.630  0.00  0.00    +0.000 C 
BRANCH  16  24
ATOM     17  C   UNL     1       7.937  12.880  17.140  0.00  0.00    +0.000 C 
ATOM     18  C   UNL     1       8.872  12.175  18.079  0.00  0.00    +0.000 A 
ATOM     19  N   UNL     1       9.790  12.973  18.678  0.00  0.00    +0.000 NA
ATOM     20  C   UNL     1      10.658  12.407  19.517  0.00  0.00    +0.000 A 
ATOM     21  N   UNL     1      11.601  13.223  20.106  0.00  0.00    +0.000 N 
ATOM     22  N   UNL     1      10.711  11.103  19.780  0.00  0.00    +0.000 NA
ATOM     23  C   UNL     1       9.782  10.336  19.173  0.00  0.00    +0.000 A 
ATOM     24  C   UNL     1       8.810  10.809  18.309  0.00  0.00    +0.000 A 
ATOM     25  H   UNL     1      11.729  14.050  19.540  0.00  0.00    +0.000 HD
ATOM     26  H   UNL     1      12.425  12.684  20.334  0.00  0.00    +0.000 HD
ENDBRANCH  16  24
ENDBRANCH  12  16
ENDBRANCH  11  13
ENDBRANCH   1  11
BRANCH   7  27
ATOM     27  C   UNL     1       2.717   2.385  19.377  0.00  0.00    +0.000 C 
BRANCH  27  28
ATOM     28  C   UNL     1       1.442   3.233  19.605  0.00  0.00    +0.000 C 
ATOM     29  F   UNL     1       0.468   2.795  18.752  0.00  0.00    +0.000 F 
ATOM     30  F   UNL     1       0.969   2.948  20.859  0.00  0.00    +0.000 F 
BRANCH  28  31
ATOM     31  C   UNL     1       1.728   4.710  19.428  0.00  0.00    +0.000 A 
ATOM     32  C   UNL     1       1.943   5.246  18.147  0.00  0.00    +0.000 A 
ATOM     33  C   UNL     1       2.221   6.604  17.983  0.00  0.00    +0.000 A 
ATOM     34  C   UNL     1       2.285   7.443  19.094  0.00  0.00    +0.000 A 
ATOM     35  C   UNL     1       2.071   6.925  20.369  0.00  0.00    +0.000 A 
ATOM     36  C   UNL     1       1.796   5.567  20.537  0.00  0.00    +0.000 A 
ENDBRANCH  28  31
ENDBRANCH  27  28
ENDBRANCH   7  27
TORSDOF 7
ENDMDL
MODEL 4
REMARK VINA RESULT:      -8.4      1.315      1.627
REMARK  Name = 
REMARK  9 active torsions:
REMARK  status: ('A' for Active; 'I' for Inactive)
REMARK    1  A    between atoms: C_1  and  C_2
REMARK    2  A    between atoms: C_8  and  C_9
REMARK    3  A    between atoms: C_9  and  N_10
REMARK    4  A    between atoms: C_11  and  C_13
REMARK    5  A    between atoms: C_13  and  N_14
REMARK    6  A    between atoms: C_15  and  C_16
REMARK    7  A    between atoms: N_20  and  C_21
REMARK    8  A    between atoms: C_21  and  C_22
REMARK    9  A    between atoms: C_22  and  C_25
REMARK                            x       y       z     vdW  Elec       q    Type
REMARK                         _______ _______ _______ _____ _____    ______ ____
ROOT
ATOM      1  N   UNL     1       0.846   9.736  19.372  0.00  0.00    +0.000 N 
ATOM      2  C   UNL     1       0.718   9.247  20.669  0.00  0.00    +0.000 A 
ATOM      3  C   UNL     1      -0.042   9.987  21.740  0.00  0.00    +0.000 C 
ATOM      4  C   UNL     1       1.338   8.099  21.002  0.00  0.00    +0.000 A 
ATOM      5  N   UNL     1       2.068   7.301  20.165  0.00  0.00    +0.000 NA
ATOM      6  C   UNL     1       2.257   7.721  18.946  0.00  0.00    +0.000 A 
ATOM      7  N   UNL     1       2.934   6.967  18.006  0.00  0.00    +0.000 N 
ATOM      8  C   UNL     1       1.708   9.093  18.482  0.00  0.00    +0.000 A 
ATOM      9  O   UNL     1       2.039   9.501  17.375  0.00  0.00    +0.000 OA
ATOM     10  H   UNL     1       3.167   7.464  17.148  0.00  0.00    +0.000 HD
ENDROOT
BRANCH   1  11
ATOM     11  C   UNL     1       0.199  10.962  18.904  0.00  0.00    +0.000 C 
BRANCH  11  13
ATOM     12  N   UNL     1      -2.113  11.844  18.640  0.00  0.00    +0.000 N 
ATOM     13  C   UNL     1      -1.248  10.795  18.401  0.00  0.00    +0.000 C 
ATOM     14  O   UNL     1      -1.634   9.721  17.945  0.00  0.00    +0.000 OA
ATOM     15  H   UNL     1      -1.725  12.737  18.920  0.00  0.00    +0.000 HD
BRANCH  12  16
ATOM     16  C   UNL     1      -3.511  11.788  18.255  0.00  0.00    +0.000 C 
BRANCH  16  24
ATOM     17  C   UNL     1      -6.450  10.936  18.243  0.00  0.00    +0.000 C 
ATOM     18  C   UNL     1      -5.806  11.657  19.391  0.00  0.00    +0.000 A 
ATOM     19  N   UNL     1      -6.635  11.944  20.425  0.00  0.00    +0.000 NA
ATOM     20  C   UNL     1      -6.127  12.593  21.472  0.00  0.00    +0.000 A 
ATOM     21  N   UNL     1      -6.982  12.899  22.510  0.00  0.00    +0.000 N 
ATOM     22  N   UNL     1      -4.867  13.015  21.558  0.00  0.00    +0.000 NA
ATOM     23  C   UNL     1      -4.065  12.711  20.518  0.00  0.00    +0.000 A 
ATOM     24  C   UNL     1      -4.465  12.015  19.390  0.00  0.00    +0.000 A 
ATOM     25  H   UNL     1      -7.933  12.914  22.167  0.00  0.00    +0.000 HD
ATOM     26  H   UNL     1      -6.650  13.721  22.996  0.00  0.00    +0.000 HD
ENDBRANCH  16  24
ENDBRANCH  12  16
ENDBRANCH  11  13
ENDBRANCH   1  11
BRANCH   7  27
ATOM     27  C   UNL     1       3.847   5.890  18.394  0.00  0.00    +0.000 C 
BRANCH  27  28
ATOM     28  C   UNL     1       3.302   4.484  18.046  0.00  0.00    +0.000 C 
ATOM     29  F   UNL     1       2.417   4.602  17.011  0.00  0.00    +0.000 F 
ATOM     30  F   UNL     1       4.341   3.746  17.541  0.00  0.00    +0.000 F 
BRANCH  28  31
ATOM     31  C   UNL     1       2.673   3.825  19.257  0.00  0.00    +0.000 A 
ATOM     32  C   UNL     1       1.280   3.850  19.438  0.00  0.00    +0.000 A 
ATOM     33  C   UNL     1       0.700   3.256  20.561  0.00  0.00    +0.000 A 
ATOM     34  C   UNL     1       1.501   2.629  21.511  0.00  0.00    +0.000 A 
ATOM     35  C   UNL     1       2.884   2.594  21.342  0.00  0.00    +0.000 A 
ATOM     36  C   UNL     1       3.468   3.190  20.223  0.00  0.00    +0.000 A 
ENDBRANCH  28  31
ENDBRANCH  27  28
ENDBRANCH   7  27
TORSDOF 7
ENDMDL
MODEL 5
REMARK VINA RESULT:      -8.3      1.850      2.997
REMARK  Name = 
REMARK  9 active torsions:
REMARK  status: ('A' for Active; 'I' for Inactive)
REMARK    1  A    between atoms: C_1  and  C_2
REMARK    2  A    between atoms: C_8  and  C_9
REMARK    3  A    between atoms: C_9  and  N_10
REMARK    4  A    between atoms: C_11  and  C_13
REMARK    5  A    between atoms: C_13  and  N_14
REMARK    6  A    between atoms: C_15  and  C_16
REMARK    7  A    between atoms: N_20  and  C_21
REMARK    8  A    between atoms: C_21  and  C_22
REMARK    9  A    between atoms: C_22  and  C_25
REMARK                            x       y       z     vdW  Elec       q    Type
REMARK                         _______ _______ _______ _____ _____    ______ ____
ROOT
ATOM      1  N   UNL     1       1.229   9.501  19.442  0.00  0.00    +0.000 N 
ATOM      2  C   UNL     1       1.046   9.010  20.731  0.00  0.00    +0.000 A 
ATOM      3  C   UNL     1       0.457   9.846  21.837  0.00  0.00    +0.000 C 
ATOM      4  C   UNL     1       1.458   7.762  21.023  0.00  0.00    +0.000 A 
ATOM      5  N   UNL     1       2.013   6.867  20.151  0.00  0.00    +0.000 NA
ATOM      6  C   UNL     1       2.245   7.277  18.936  0.00  0.00    +0.000 A 
ATOM      7  N   UNL     1       2.754   6.438  17.962  0.00  0.00    +0.000 N 
ATOM      8  C   UNL     1       1.941   8.736  18.515  0.00  0.00    +0.000 A 
ATOM      9  O   UNL     1       2.314   9.107  17.408  0.00  0.00    +0.000 OA
ATOM     10  H   UNL     1       3.053   6.907  17.108  0.00  0.00    +0.000 HD
ENDROOT
BRANCH   1  11
ATOM     11  C   UNL     1       0.802  10.834  19.016  0.00  0.00    +0.000 C 
BRANCH  11  13
ATOM     12  N   UNL     1      -1.199  12.159  19.675  0.00  0.00    +0.000 N 
ATOM     13  C   UNL     1      -0.722  11.062  18.987  0.00  0.00    +0.000 C 
ATOM     14  O   UNL     1      -1.473  10.221  18.498  0.00  0.00    +0.000 OA
ATOM     15  H   UNL     1      -0.540  12.869  19.969  0.00  0.00    +0.000 HD
BRANCH  12  16
ATOM     16  C   UNL     1      -2.617  12.454  19.760  0.00  0.00    +0.000 C 
BRANCH  16  24
ATOM     17  C   UNL     1      -5.591  12.575  20.472  0.00  0.00    +0.000 C 
ATOM     18  C   UNL     1      -4.498  12.547  21.500  0.00  0.00    +0.000 A 
ATOM     19  N   UNL     1      -4.920  12.617  22.787  0.00  0.00    +0.000 NA
ATOM     20  C   UNL     1      -3.997  12.607  23.749  0.00  0.00    +0.000 A 
ATOM     21  N   UNL     1      -4.434  12.700  25.053  0.00  0.00    +0.000 N 
ATOM     22  N   UNL     1      -2.684  12.571  23.533  0.00  0.00    +0.000 NA
ATOM     23  C   UNL     1      -2.294  12.496  22.244  0.00  0.00    +0.000 A 
ATOM     24  C   UNL     1      -3.155  12.467  21.160  0.00  0.00    +0.000 A 
ATOM     25  H   UNL     1      -5.349  13.128  25.071  0.00  0.00    +0.000 HD
ATOM     26  H   UNL     1      -3.715  13.118  25.626  0.00  0.00    +0.000 HD
ENDBRANCH  16  24
ENDBRANCH  12  16
ENDBRANCH  11  13
ENDBRANCH   1  11
BRANCH   7  27
ATOM     27  C   UNL     1       3.468   5.206  18.302  0.00  0.00    +0.000 C 
BRANCH  27  28
ATOM     28  C   UNL     1       4.655   4.916  17.352  0.00  0.00    +0.000 C 
ATOM     29  F   UNL     1       4.884   3.568  17.338  0.00  0.00    +0.000 F 
ATOM     30  F   UNL     1       4.256   5.221  16.078  0.00  0.00    +0.000 F 
BRANCH  28  31
ATOM     31  C   UNL     1       5.889   5.694  17.763  0.00  0.00    +0.000 A 
ATOM     32  C   UNL     1       6.680   5.260  18.839  0.00  0.00    +0.000 A 
ATOM     33  C   UNL     1       7.809   5.984  19.228  0.00  0.00    +0.000 A 
ATOM     34  C   UNL     1       8.161   7.147  18.547  0.00  0.00    +0.000 A 
ATOM     35  C   UNL     1       7.387   7.587  17.476  0.00  0.00    +0.000 A 
ATOM     36  C   UNL     1       6.256   6.867  17.087  0.00  0.00    +0.000 A 
ENDBRANCH  28  31
ENDBRANCH  27  28
ENDBRANCH   7  27
TORSDOF 7
ENDMDL
MODEL 6
REMARK VINA RESULT:      -8.2      1.582      1.992
REMARK  Name = 
REMARK  9 active torsions:
REMARK  status: ('A' for Active; 'I' for Inactive)
REMARK    1  A    between atoms: C_1  and  C_2
REMARK    2  A    between atoms: C_8  and  C_9
REMARK    3  A    between atoms: C_9  and  N_10
REMARK    4  A    between atoms: C_11  and  C_13
REMARK    5  A    between atoms: C_13  and  N_14
REMARK    6  A    between atoms: C_15  and  C_16
REMARK    7  A    between atoms: N_20  and  C_21
REMARK    8  A    between atoms: C_21  and  C_22
REMARK    9  A    between atoms: C_22  and  C_25
REMARK                            x       y       z     vdW  Elec       q    Type
REMARK                         _______ _______ _______ _____ _____    ______ ____
ROOT
ATOM      1  N   UNL     1       0.332  10.324  19.442  0.00  0.00    +0.000 N 
ATOM      2  C   UNL     1       0.181  10.016  20.791  0.00  0.00    +0.000 A 
ATOM      3  C   UNL     1      -0.669  10.844  21.718  0.00  0.00    +0.000 C 
ATOM      4  C   UNL     1       0.860   8.973  21.306  0.00  0.00    +0.000 A 
ATOM      5  N   UNL     1       1.676   8.118  20.617  0.00  0.00    +0.000 NA
ATOM      6  C   UNL     1       1.888   8.374  19.357  0.00  0.00    +0.000 A 
ATOM      7  N   UNL     1       2.653   7.544  18.558  0.00  0.00    +0.000 N 
ATOM      8  C   UNL     1       1.271   9.624  18.682  0.00  0.00    +0.000 A 
ATOM      9  O   UNL     1       1.622   9.894  17.539  0.00  0.00    +0.000 OA
ATOM     10  H   UNL     1       2.889   7.930  17.645  0.00  0.00    +0.000 HD
ENDROOT
BRANCH   1  11
ATOM     11  C   UNL     1      -0.373  11.422  18.780  0.00  0.00    +0.000 C 
BRANCH  11  13
ATOM     12  N   UNL     1      -2.745  12.170  18.682  0.00  0.00    +0.000 N 
ATOM     13  C   UNL     1      -1.850  11.148  18.436  0.00  0.00    +0.000 C 
ATOM     14  O   UNL     1      -2.218  10.025  18.102  0.00  0.00    +0.000 OA
ATOM     15  H   UNL     1      -2.381  13.099  18.856  0.00  0.00    +0.000 HD
BRANCH  12  16
ATOM     16  C   UNL     1      -4.168  12.018  18.442  0.00  0.00    +0.000 C 
BRANCH  16  24
ATOM     17  C   UNL     1      -6.886  10.630  18.668  0.00  0.00    +0.000 C 
ATOM     18  C   UNL     1      -6.239  11.366  19.805  0.00  0.00    +0.000 A 
ATOM     19  N   UNL     1      -6.968  11.408  20.948  0.00  0.00    +0.000 NA
ATOM     20  C   UNL     1      -6.454  12.056  21.994  0.00  0.00    +0.000 A 
ATOM     21  N   UNL     1      -7.211  12.111  23.144  0.00  0.00    +0.000 N 
ATOM     22  N   UNL     1      -5.289  12.700  21.983  0.00  0.00    +0.000 NA
ATOM     23  C   UNL     1      -4.584  12.636  20.834  0.00  0.00    +0.000 A 
ATOM     24  C   UNL     1      -4.995  11.969  19.693  0.00  0.00    +0.000 A 
ATOM     25  H   UNL     1      -8.185  11.974  22.913  0.00  0.00    +0.000 HD
ATOM     26  H   UNL     1      -6.971  12.939  23.672  0.00  0.00    +0.000 HD
ENDBRANCH  16  24
ENDBRANCH  12  16
ENDBRANCH  11  13
ENDBRANCH   1  11
BRANCH   7  27
ATOM     27  C   UNL     1       3.617   6.601  19.127  0.00  0.00    +0.000 C 
BRANCH  27  28
ATOM     28  C   UNL     1       3.650   5.248  18.376  0.00  0.00    +0.000 C 
ATOM     29  F   UNL     1       3.524   5.488  17.036  0.00  0.00    +0.000 F 
ATOM     30  F   UNL     1       4.904   4.716  18.525  0.00  0.00    +0.000 F 
BRANCH  28  31
ATOM     31  C   UNL     1       2.572   4.312  18.886  0.00  0.00    +0.000 A 
ATOM     32  C   UNL     1       2.062   4.455  20.187  0.00  0.00    +0.000 A 
ATOM     33  C   UNL     1       1.080   3.584  20.663  0.00  0.00    +0.000 A 
ATOM     34  C   UNL     1       0.594   2.565  19.847  0.00  0.00    +0.000 A 
ATOM     35  C   UNL     1       1.090   2.414  18.554  0.00  0.00    +0.000 A 
ATOM     36  C   UNL     1       2.075   3.280  18.075  0.00  0.00    +0.000 A 
ENDBRANCH  28  31
ENDBRANCH  27  28
ENDBRANCH   7  27
TORSDOF 7
ENDMDL
MODEL 7
REMARK VINA RESULT:      -8.2      2.086      3.176
REMARK  Name = 
REMARK  9 active torsions:
REMARK  status: ('A' for Active; 'I' for Inactive)
REMARK    1  A    between atoms: C_1  and  C_2
REMARK    2  A    between atoms: C_8  and  C_9
REMARK    3  A    between atoms: C_9  and  N_10
REMARK    4  A    between atoms: C_11  and  C_13
REMARK    5  A    between atoms: C_13  and  N_14
REMARK    6  A    between atoms: C_15  and  C_16
REMARK    7  A    between atoms: N_20  and  C_21
REMARK    8  A    between atoms: C_21  and  C_22
REMARK    9  A    between atoms: C_22  and  C_25
REMARK                            x       y       z     vdW  Elec       q    Type
REMARK                         _______ _______ _______ _____ _____    ______ ____
ROOT
ATOM      1  N   UNL     1       0.666   9.784  19.296  0.00  0.00    +0.000 N 
ATOM      2  C   UNL     1       0.427   9.554  20.648  0.00  0.00    +0.000 A 
ATOM      3  C   UNL     1      -0.377  10.502  21.499  0.00  0.00    +0.000 C 
ATOM      4  C   UNL     1       0.976   8.474  21.236  0.00  0.00    +0.000 A 
ATOM      5  N   UNL     1       1.731   7.514  20.623  0.00  0.00    +0.000 NA
ATOM      6  C   UNL     1       2.023   7.690  19.365  0.00  0.00    +0.000 A 
ATOM      7  N   UNL     1       2.735   6.755  18.637  0.00  0.00    +0.000 N 
ATOM      8  C   UNL     1       1.563   8.962  18.611  0.00  0.00    +0.000 A 
ATOM      9  O   UNL     1       1.988   9.145  17.476  0.00  0.00    +0.000 OA
ATOM     10  H   UNL     1       3.047   7.074  17.722  0.00  0.00    +0.000 HD
ENDROOT
BRANCH   1  11
ATOM     11  C   UNL     1       0.103  10.915  18.558  0.00  0.00    +0.000 C 
BRANCH  11  13
ATOM     12  N   UNL     1      -2.268  11.673  18.525  0.00  0.00    +0.000 N 
ATOM     13  C   UNL     1      -1.354  10.738  18.085  0.00  0.00    +0.000 C 
ATOM     14  O   UNL     1      -1.695   9.730  17.471  0.00  0.00    +0.000 OA
ATOM     15  H   UNL     1      -1.922  12.531  18.937  0.00  0.00    +0.000 HD
BRANCH  12  16
ATOM     16  C   UNL     1      -3.676  11.588  18.186  0.00  0.00    +0.000 C 
BRANCH  16  24
ATOM     17  C   UNL     1      -6.685  11.035  18.259  0.00  0.00    +0.000 C 
ATOM     18  C   UNL     1      -5.965  11.817  19.318  0.00  0.00    +0.000 A 
ATOM     19  N   UNL     1      -6.755  12.303  20.307  0.00  0.00    +0.000 NA
ATOM     20  C   UNL     1      -6.178  13.016  21.275  0.00  0.00    +0.000 A 
ATOM     21  N   UNL     1      -6.992  13.524  22.265  0.00  0.00    +0.000 N 
ATOM     22  N   UNL     1      -4.882  13.319  21.317  0.00  0.00    +0.000 NA
ATOM     23  C   UNL     1      -4.121  12.817  20.323  0.00  0.00    +0.000 A 
ATOM     24  C   UNL     1      -4.596  12.038  19.283  0.00  0.00    +0.000 A 
ATOM     25  H   UNL     1      -7.939  13.593  21.919  0.00  0.00    +0.000 HD
ATOM     26  H   UNL     1      -6.577  14.359  22.654  0.00  0.00    +0.000 HD
ENDBRANCH  16  24
ENDBRANCH  12  16
ENDBRANCH  11  13
ENDBRANCH   1  11
BRANCH   7  27
ATOM     27  C   UNL     1       3.575   5.748  19.289  0.00  0.00    +0.000 C 
BRANCH  27  28
ATOM     28  C   UNL     1       3.684   4.436  18.475  0.00  0.00    +0.000 C 
ATOM     29  F   UNL     1       3.680   3.381  19.344  0.00  0.00    +0.000 F 
ATOM     30  F   UNL     1       2.532   4.299  17.745  0.00  0.00    +0.000 F 
BRANCH  28  31
ATOM     31  C   UNL     1       4.918   4.440  17.595  0.00  0.00    +0.000 A 
ATOM     32  C   UNL     1       6.184   4.703  18.143  0.00  0.00    +0.000 A 
ATOM     33  C   UNL     1       7.319   4.721  17.331  0.00  0.00    +0.000 A 
ATOM     34  C   UNL     1       7.204   4.473  15.965  0.00  0.00    +0.000 A 
ATOM     35  C   UNL     1       5.955   4.208  15.408  0.00  0.00    +0.000 A 
ATOM     36  C   UNL     1       4.817   4.193  16.217  0.00  0.00    +0.000 A 
ENDBRANCH  28  31
ENDBRANCH  27  28
ENDBRANCH   7  27
TORSDOF 7
ENDMDL
MODEL 8
REMARK VINA RESULT:      -8.2      1.391      1.639
REMARK  Name = 
REMARK  9 active torsions:
REMARK  status: ('A' for Active; 'I' for Inactive)
REMARK    1  A    between atoms: C_1  and  C_2
REMARK    2  A    between atoms: C_8  and  C_9
REMARK    3  A    between atoms: C_9  and  N_10
REMARK    4  A    between atoms: C_11  and  C_13
REMARK    5  A    between atoms: C_13  and  N_14
REMARK    6  A    between atoms: C_15  and  C_16
REMARK    7  A    between atoms: N_20  and  C_21
REMARK    8  A    between atoms: C_21  and  C_22
REMARK    9  A    between atoms: C_22  and  C_25
REMARK                            x       y       z     vdW  Elec       q    Type
REMARK                         _______ _______ _______ _____ _____    ______ ____
ROOT
ATOM      1  N   UNL     1       0.175  10.748  20.407  0.00  0.00    +0.000 N 
ATOM      2  C   UNL     1       0.050  10.076  21.620  0.00  0.00    +0.000 A 
ATOM      3  C   UNL     1      -0.656  10.678  22.806  0.00  0.00    +0.000 C 
ATOM      4  C   UNL     1       0.626   8.868  21.763  0.00  0.00    +0.000 A 
ATOM      5  N   UNL     1       1.305   8.174  20.800  0.00  0.00    +0.000 NA
ATOM      6  C   UNL     1       1.489   8.763  19.652  0.00  0.00    +0.000 A 
ATOM      7  N   UNL     1       2.115   8.131  18.594  0.00  0.00    +0.000 N 
ATOM      8  C   UNL     1       0.992  10.210  19.410  0.00  0.00    +0.000 A 
ATOM      9  O   UNL     1       1.320  10.765  18.367  0.00  0.00    +0.000 OA
ATOM     10  H   UNL     1       2.353   8.741  17.813  0.00  0.00    +0.000 HD
ENDROOT
BRANCH   1  11
ATOM     11  C   UNL     1      -0.426  12.055  20.141  0.00  0.00    +0.000 C 
BRANCH  11  13
ATOM     12  N   UNL     1      -2.805  12.737  20.409  0.00  0.00    +0.000 N 
ATOM     13  C   UNL     1      -1.890  12.024  19.660  0.00  0.00    +0.000 C 
ATOM     14  O   UNL     1      -2.234  11.280  18.745  0.00  0.00    +0.000 OA
ATOM     15  H   UNL     1      -2.459  13.409  21.083  0.00  0.00    +0.000 HD
BRANCH  12  16
ATOM     16  C   UNL     1      -4.219  12.749  20.084  0.00  0.00    +0.000 C 
BRANCH  16  24
ATOM     17  C   UNL     1      -7.024  13.965  19.963  0.00  0.00    +0.000 C 
ATOM     18  C   UNL     1      -6.379  13.508  21.238  0.00  0.00    +0.000 A 
ATOM     19  N   UNL     1      -7.118  13.707  22.357  0.00  0.00    +0.000 NA
ATOM     20  C   UNL     1      -6.597  13.332  23.526  0.00  0.00    +0.000 A 
ATOM     21  N   UNL     1      -7.348  13.557  24.660  0.00  0.00    +0.000 N 
ATOM     22  N   UNL     1      -5.382  12.810  23.676  0.00  0.00    +0.000 NA
ATOM     23  C   UNL     1      -4.672  12.618  22.545  0.00  0.00    +0.000 A 
ATOM     24  C   UNL     1      -5.115  12.936  21.273  0.00  0.00    +0.000 A 
ATOM     25  H   UNL     1      -8.012  14.298  24.482  0.00  0.00    +0.000 HD
ATOM     26  H   UNL     1      -6.737  13.663  25.459  0.00  0.00    +0.000 HD
ENDBRANCH  16  24
ENDBRANCH  12  16
ENDBRANCH  11  13
ENDBRANCH   1  11
BRANCH   7  27
ATOM     27  C   UNL     1       2.987   6.973  18.795  0.00  0.00    +0.000 C 
BRANCH  27  28
ATOM     28  C   UNL     1       2.425   5.678  18.160  0.00  0.00    +0.000 C 
ATOM     29  F   UNL     1       1.350   6.004  17.382  0.00  0.00    +0.000 F 
ATOM     30  F   UNL     1       3.364   5.199  17.285  0.00  0.00    +0.000 F 
BRANCH  28  31
ATOM     31  C   UNL     1       2.066   4.658  19.222  0.00  0.00    +0.000 A 
ATOM     32  C   UNL     1       1.314   3.519  18.891  0.00  0.00    +0.000 A 
ATOM     33  C   UNL     1       0.970   2.586  19.872  0.00  0.00    +0.000 A 
ATOM     34  C   UNL     1       1.374   2.779  21.191  0.00  0.00    +0.000 A 
ATOM     35  C   UNL     1       2.122   3.903  21.532  0.00  0.00    +0.000 A 
ATOM     36  C   UNL     1       2.465   4.839  20.555  0.00  0.00    +0.000 A 
ENDBRANCH  28  31
ENDBRANCH  27  28
ENDBRANCH   7  27
TORSDOF 7
ENDMDL
MODEL 9
REMARK VINA RESULT:      -8.1      0.694      1.052
REMARK  Name = 
REMARK  9 active torsions:
REMARK  status: ('A' for Active; 'I' for Inactive)
REMARK    1  A    between atoms: C_1  and  C_2
REMARK    2  A    between atoms: C_8  and  C_9
REMARK    3  A    between atoms: C_9  and  N_10
REMARK    4  A    between atoms: C_11  and  C_13
REMARK    5  A    between atoms: C_13  and  N_14
REMARK    6  A    between atoms: C_15  and  C_16
REMARK    7  A    between atoms: N_20  and  C_21
REMARK    8  A    between atoms: C_21  and  C_22
REMARK    9  A    between atoms: C_22  and  C_25
REMARK                            x       y       z     vdW  Elec       q    Type
REMARK                         _______ _______ _______ _____ _____    ______ ____
ROOT
ATOM      1  N   UNL     1       0.921   9.787  19.266  0.00  0.00    +0.000 N 
ATOM      2  C   UNL     1       0.750   9.301  20.558  0.00  0.00    +0.000 A 
ATOM      3  C   UNL     1      -0.030  10.051  21.607  0.00  0.00    +0.000 C 
ATOM      4  C   UNL     1       1.345   8.145  20.909  0.00  0.00    +0.000 A 
ATOM      5  N   UNL     1       2.088   7.337  20.093  0.00  0.00    +0.000 NA
ATOM      6  C   UNL     1       2.317   7.754  18.880  0.00  0.00    +0.000 A 
ATOM      7  N   UNL     1       3.011   6.991  17.959  0.00  0.00    +0.000 N 
ATOM      8  C   UNL     1       1.800   9.133  18.400  0.00  0.00    +0.000 A 
ATOM      9  O   UNL     1       2.167   9.537  17.303  0.00  0.00    +0.000 OA
ATOM     10  H   UNL     1       3.275   7.485  17.108  0.00  0.00    +0.000 HD
ENDROOT
BRANCH   1  11
ATOM     11  C   UNL     1       0.304  11.022  18.779  0.00  0.00    +0.000 C 
BRANCH  11  13
ATOM     12  N   UNL     1      -1.848  12.144  19.331  0.00  0.00    +0.000 N 
ATOM     13  C   UNL     1      -1.237  11.035  18.780  0.00  0.00    +0.000 C 
ATOM     14  O   UNL     1      -1.874  10.041  18.440  0.00  0.00    +0.000 OA
ATOM     15  H   UNL     1      -1.288  12.971  19.498  0.00  0.00    +0.000 HD
BRANCH  12  16
ATOM     16  C   UNL     1      -3.291  12.254  19.431  0.00  0.00    +0.000 C 
BRANCH  16  24
ATOM     17  C   UNL     1      -6.249  12.310  20.214  0.00  0.00    +0.000 C 
ATOM     18  C   UNL     1      -5.132  12.461  21.204  0.00  0.00    +0.000 A 
ATOM     19  N   UNL     1      -5.526  12.665  22.485  0.00  0.00    +0.000 NA
ATOM     20  C   UNL     1      -4.580  12.817  23.414  0.00  0.00    +0.000 A 
ATOM     21  N   UNL     1      -4.991  13.044  24.710  0.00  0.00    +0.000 N 
ATOM     22  N   UNL     1      -3.273  12.822  23.164  0.00  0.00    +0.000 NA
ATOM     23  C   UNL     1      -2.911  12.611  21.881  0.00  0.00    +0.000 A 
ATOM     24  C   UNL     1      -3.795  12.409  20.836  0.00  0.00    +0.000 A 
ATOM     25  H   UNL     1      -5.927  13.425  24.704  0.00  0.00    +0.000 HD
ATOM     26  H   UNL     1      -4.281  13.564  25.207  0.00  0.00    +0.000 HD
ENDBRANCH  16  24
ENDBRANCH  12  16
ENDBRANCH  11  13
ENDBRANCH   1  11
BRANCH   7  27
ATOM     27  C   UNL     1       3.898   5.903  18.373  0.00  0.00    +0.000 C 
BRANCH  27  28
ATOM     28  C   UNL     1       3.338   4.503  18.023  0.00  0.00    +0.000 C 
ATOM     29  F   UNL     1       2.546   4.614  16.915  0.00  0.00    +0.000 F 
ATOM     30  F   UNL     1       4.390   3.717  17.630  0.00  0.00    +0.000 F 
BRANCH  28  31
ATOM     31  C   UNL     1       2.588   3.904  19.197  0.00  0.00    +0.000 A 
ATOM     32  C   UNL     1       3.216   3.763  20.445  0.00  0.00    +0.000 A 
ATOM     33  C   UNL     1       2.532   3.198  21.523  0.00  0.00    +0.000 A 
ATOM     34  C   UNL     1       1.214   2.772  21.368  0.00  0.00    +0.000 A 
ATOM     35  C   UNL     1       0.579   2.909  20.136  0.00  0.00    +0.000 A 
ATOM     36  C   UNL     1       1.262   3.470  19.055  0.00  0.00    +0.000 A 
ENDBRANCH  28  31
ENDBRANCH  27  28
ENDBRANCH   7  27
TORSDOF 7
ENDMDL
