MODEL 1
REMARK VINA RESULT:      -7.4      0.000      0.000
REMARK  Name = 
REMARK  3 active torsions:
REMARK  status: ('A' for Active; 'I' for Inactive)
REMARK    1  A    between atoms: C_1  and  O_2
REMARK    2  A    between atoms: O_2  and  C_3
REMARK    3  A    between atoms: C_8  and  N_9
REMARK                            x       y       z     vdW  Elec       q    Type
REMARK                         _______ _______ _______ _____ _____    ______ ____
ROOT
ATOM      1  N   UNL     1       4.751   6.512  17.009  0.00  0.00    +0.000 N 
ATOM      2  C   UNL     1       3.866   5.856  17.903  0.00  0.00    +0.000 A 
ATOM      3  C   UNL     1       2.909   6.636  18.545  0.00  0.00    +0.000 A 
ATOM      4  C   UNL     1       2.116   6.074  19.546  0.00  0.00    +0.000 A 
ATOM      5  C   UNL     1       2.298   4.762  19.942  0.00  0.00    +0.000 A 
ATOM      6  N   UNL     1       1.574   4.284  20.965  0.00  0.00    +0.000 NA
ATOM      7  C   UNL     1       1.844   3.040  21.358  0.00  0.00    +0.000 A 
ATOM      8  N   UNL     1       1.178   2.561  22.467  0.00  0.00    +0.000 N 
ATOM      9  N   UNL     1       2.716   2.227  20.769  0.00  0.00    +0.000 NA
ATOM     10  C   UNL     1       3.417   2.738  19.737  0.00  0.00    +0.000 A 
ATOM     11  N   UNL     1       4.298   1.845  19.101  0.00  0.00    +0.000 N 
ATOM     12  C   UNL     1       3.274   4.038  19.254  0.00  0.00    +0.000 A 
ATOM     13  N   UNL     1       4.050   4.569  18.259  0.00  0.00    +0.000 NA
ATOM     14  H   UNL     1       4.237   7.243  16.526  0.00  0.00    +0.000 HD
ATOM     15  H   UNL     1       0.302   3.048  22.592  0.00  0.00    +0.000 HD
ATOM     16  H   UNL     1       1.163   1.552  22.464  0.00  0.00    +0.000 HD
ATOM     17  H   UNL     1       4.413   1.018  19.675  0.00  0.00    +0.000 HD
ATOM     18  H   UNL     1       5.157   2.320  18.838  0.00  0.00    +0.000 HD
ENDROOT
BRANCH   1  24
ATOM     19  C   UNL     1       6.954   5.672  16.178  0.00  0.00    +0.000 A 
ATOM     20  C   UNL     1       7.641   4.898  15.230  0.00  0.00    +0.000 A 
ATOM     21  C   UNL     1       6.958   4.288  14.174  0.00  0.00    +0.000 A 
ATOM     22  C   UNL     1       5.584   4.446  14.052  0.00  0.00    +0.000 A 
ATOM     23  C   UNL     1       4.894   5.232  14.974  0.00  0.00    +0.000 A 
ATOM     24  C   UNL     1       5.566   5.883  16.023  0.00  0.00    +0.000 A 
BRANCH  19  26
ATOM     25  C   UNL     1       7.670   5.386  18.435  0.00  0.00    +0.000 C 
ATOM     26  O   UNL     1       7.546   6.219  17.289  0.00  0.00    +0.000 OA
ENDBRANCH  19  26
ENDBRANCH   1  24
TORSDOF 2
ENDMDL
MODEL 2
REMARK VINA RESULT:      -7.3      2.252      3.602
REMARK  Name = 
REMARK  3 active torsions:
REMARK  status: ('A' for Active; 'I' for Inactive)
REMARK    1  A    between atoms: C_1  and  O_2
REMARK    2  A    between atoms: O_2  and  C_3
REMARK    3  A    between atoms: C_8  and  N_9
REMARK                            x       y       z     vdW  Elec       q    Type
REMARK                         _______ _______ _______ _____ _____    ______ ____
ROOT
ATOM      1  N   UNL     1       4.286   4.006  18.089  0.00  0.00    +0.000 N 
ATOM      2  C   UNL     1       3.592   4.918  18.925  0.00  0.00    +0.000 A 
ATOM      3  C   UNL     1       3.035   4.417  20.098  0.00  0.00    +0.000 A 
ATOM      4  C   UNL     1       2.215   5.232  20.878  0.00  0.00    +0.000 A 
ATOM      5  C   UNL     1       1.908   6.520  20.479  0.00  0.00    +0.000 A 
ATOM      6  N   UNL     1       1.048   7.242  21.213  0.00  0.00    +0.000 NA
ATOM      7  C   UNL     1       0.725   8.445  20.743  0.00  0.00    +0.000 A 
ATOM      8  N   UNL     1      -0.228   9.167  21.430  0.00  0.00    +0.000 N 
ATOM      9  N   UNL     1       1.246   9.002  19.652  0.00  0.00    +0.000 NA
ATOM     10  C   UNL     1       2.115   8.250  18.947  0.00  0.00    +0.000 A 
ATOM     11  N   UNL     1       2.686   8.877  17.825  0.00  0.00    +0.000 N 
ATOM     12  C   UNL     1       2.503   6.957  19.294  0.00  0.00    +0.000 A 
ATOM     13  N   UNL     1       3.323   6.177  18.524  0.00  0.00    +0.000 NA
ATOM     14  H   UNL     1       4.777   3.339  18.678  0.00  0.00    +0.000 HD
ATOM     15  H   UNL     1      -0.262   8.877  22.397  0.00  0.00    +0.000 HD
ATOM     16  H   UNL     1      -0.137  10.152  21.234  0.00  0.00    +0.000 HD
ATOM     17  H   UNL     1       2.173   9.726  17.614  0.00  0.00    +0.000 HD
ATOM     18  H   UNL     1       2.778   8.218  17.057  0.00  0.00    +0.000 HD
ENDROOT
BRANCH   1  24
ATOM     19  C   UNL     1       6.576   4.536  17.238  0.00  0.00    +0.000 A 
ATOM     20  C   UNL     1       7.411   4.706  16.124  0.00  0.00    +0.000 A 
ATOM     21  C   UNL     1       6.897   4.631  14.827  0.00  0.00    +0.000 A 
ATOM     22  C   UNL     1       5.544   4.389  14.628  0.00  0.00    +0.000 A 
ATOM     23  C   UNL     1       4.700   4.242  15.729  0.00  0.00    +0.000 A 
ATOM     24  C   UNL     1       5.190   4.349  17.042  0.00  0.00    +0.000 A 
BRANCH  19  26
ATOM     25  C   UNL     1       7.491   5.724  19.092  0.00  0.00    +0.000 C 
ATOM     26  O   UNL     1       7.030   4.502  18.534  0.00  0.00    +0.000 OA
ENDBRANCH  19  26
ENDBRANCH   1  24
TORSDOF 2
ENDMDL
MODEL 3
REMARK VINA RESULT:      -7.2      3.305      6.249
REMARK  Name = 
REMARK  3 active torsions:
REMARK  status: ('A' for Active; 'I' for Inactive)
REMARK    1  A    between atoms: C_1  and  O_2
REMARK    2  A    between atoms: O_2  and  C_3
REMARK    3  A    between atoms: C_8  and  N_9
REMARK                            x       y       z     vdW  Elec       q    Type
REMARK                         _______ _______ _______ _____ _____    ______ ____
ROOT
ATOM      1  N   UNL     1       2.176   8.329  18.548  0.00  0.00    +0.000 N 
ATOM      2  C   UNL     1       2.743   7.029  18.541  0.00  0.00    +0.000 A 
ATOM      3  C   UNL     1       3.743   6.771  17.608  0.00  0.00    +0.000 A 
ATOM      4  C   UNL     1       4.226   5.471  17.454  0.00  0.00    +0.000 A 
ATOM      5  C   UNL     1       3.694   4.425  18.183  0.00  0.00    +0.000 A 
ATOM      6  N   UNL     1       4.126   3.177  17.945  0.00  0.00    +0.000 NA
ATOM      7  C   UNL     1       3.525   2.198  18.617  0.00  0.00    +0.000 A 
ATOM      8  N   UNL     1       3.888   0.901  18.320  0.00  0.00    +0.000 N 
ATOM      9  N   UNL     1       2.591   2.374  19.549  0.00  0.00    +0.000 NA
ATOM     10  C   UNL     1       2.190   3.642  19.769  0.00  0.00    +0.000 A 
ATOM     11  N   UNL     1       1.236   3.807  20.789  0.00  0.00    +0.000 N 
ATOM     12  C   UNL     1       2.696   4.757  19.101  0.00  0.00    +0.000 A 
ATOM     13  N   UNL     1       2.220   6.028  19.277  0.00  0.00    +0.000 NA
ATOM     14  H   UNL     1       2.910   9.002  18.343  0.00  0.00    +0.000 HD
ATOM     15  H   UNL     1       4.822   0.874  17.937  0.00  0.00    +0.000 HD
ATOM     16  H   UNL     1       3.674   0.287  19.092  0.00  0.00    +0.000 HD
ATOM     17  H   UNL     1       0.850   2.904  21.041  0.00  0.00    +0.000 HD
ATOM     18  H   UNL     1       0.558   4.518  20.531  0.00  0.00    +0.000 HD
ENDROOT
BRANCH   1  24
ATOM     19  C   UNL     1       0.278   9.729  19.376  0.00  0.00    +0.000 A 
ATOM     20  C   UNL     1      -0.522  10.108  20.464  0.00  0.00    +0.000 A 
ATOM     21  C   UNL     1      -0.257   9.628  21.749  0.00  0.00    +0.000 A 
ATOM     22  C   UNL     1       0.811   8.766  21.962  0.00  0.00    +0.000 A 
ATOM     23  C   UNL     1       1.628   8.401  20.892  0.00  0.00    +0.000 A 
ATOM     24  C   UNL     1       1.400   8.901  19.598  0.00  0.00    +0.000 A 
BRANCH  19  26
ATOM     25  C   UNL     1      -1.347  10.166  17.686  0.00  0.00    +0.000 C 
ATOM     26  O   UNL     1       0.017  10.087  18.076  0.00  0.00    +0.000 OA
ENDBRANCH  19  26
ENDBRANCH   1  24
TORSDOF 2
ENDMDL
MODEL 4
REMARK VINA RESULT:      -6.9      4.250      7.254
REMARK  Name = 
REMARK  3 active torsions:
REMARK  status: ('A' for Active; 'I' for Inactive)
REMARK    1  A    between atoms: C_1  and  O_2
REMARK    2  A    between atoms: O_2  and  C_3
REMARK    3  A    between atoms: C_8  and  N_9
REMARK                            x       y       z     vdW  Elec       q    Type
REMARK                         _______ _______ _______ _____ _____    ______ ____
ROOT
ATOM      1  N   UNL     1       0.998   9.548  19.339  0.00  0.00    +0.000 N 
ATOM      2  C   UNL     1       1.904   8.506  19.015  0.00  0.00    +0.000 A 
ATOM      3  C   UNL     1       2.533   8.567  17.775  0.00  0.00    +0.000 A 
ATOM      4  C   UNL     1       3.314   7.495  17.342  0.00  0.00    +0.000 A 
ATOM      5  C   UNL     1       3.434   6.350  18.108  0.00  0.00    +0.000 A 
ATOM      6  N   UNL     1       4.123   5.308  17.618  0.00  0.00    +0.000 NA
ATOM      7  C   UNL     1       4.142   4.203  18.360  0.00  0.00    +0.000 A 
ATOM      8  N   UNL     1       4.765   3.090  17.835  0.00  0.00    +0.000 N 
ATOM      9  N   UNL     1       3.596   4.086  19.568  0.00  0.00    +0.000 NA
ATOM     10  C   UNL     1       2.922   5.157  20.032  0.00  0.00    +0.000 A 
ATOM     11  N   UNL     1       2.393   5.026  21.329  0.00  0.00    +0.000 N 
ATOM     12  C   UNL     1       2.778   6.359  19.340  0.00  0.00    +0.000 A 
ATOM     13  N   UNL     1       2.021   7.408  19.788  0.00  0.00    +0.000 NA
ATOM     14  H   UNL     1       1.358  10.419  18.959  0.00  0.00    +0.000 HD
ATOM     15  H   UNL     1       5.459   3.361  17.154  0.00  0.00    +0.000 HD
ATOM     16  H   UNL     1       5.045   2.459  18.572  0.00  0.00    +0.000 HD
ATOM     17  H   UNL     1       2.428   4.053  21.611  0.00  0.00    +0.000 HD
ATOM     18  H   UNL     1       1.480   5.468  21.387  0.00  0.00    +0.000 HD
ENDROOT
BRANCH   1  24
ATOM     19  C   UNL     1       0.176  11.168  21.057  0.00  0.00    +0.000 A 
ATOM     20  C   UNL     1      -0.455  11.355  22.296  0.00  0.00    +0.000 A 
ATOM     21  C   UNL     1      -0.811  10.263  23.090  0.00  0.00    +0.000 A 
ATOM     22  C   UNL     1      -0.538   8.971  22.658  0.00  0.00    +0.000 A 
ATOM     23  C   UNL     1       0.110   8.773  21.439  0.00  0.00    +0.000 A 
ATOM     24  C   UNL     1       0.508   9.860  20.641  0.00  0.00    +0.000 A 
BRANCH  19  26
ATOM     25  C   UNL     1      -0.634  12.845  19.567  0.00  0.00    +0.000 C 
ATOM     26  O   UNL     1       0.465  12.189  20.186  0.00  0.00    +0.000 OA
ENDBRANCH  19  26
ENDBRANCH   1  24
TORSDOF 2
ENDMDL
MODEL 5
REMARK VINA RESULT:      -6.8      4.119      6.864
REMARK  Name = 
REMARK  3 active torsions:
REMARK  status: ('A' for Active; 'I' for Inactive)
REMARK    1  A    between atoms: C_1  and  O_2
REMARK    2  A    between atoms: O_2  and  C_3
REMARK    3  A    between atoms: C_8  and  N_9
REMARK                            x       y       z     vdW  Elec       q    Type
REMARK                         _______ _______ _______ _____ _____    ______ ____
ROOT
ATOM      1  N   UNL     1       2.674   6.046  18.899  0.00  0.00    +0.000 N 
ATOM      2  C   UNL     1       2.127   7.355  18.897  0.00  0.00    +0.000 A 
ATOM      3  C   UNL     1       2.555   8.227  17.901  0.00  0.00    +0.000 A 
ATOM      4  C   UNL     1       2.169   9.567  17.941  0.00  0.00    +0.000 A 
ATOM      5  C   UNL     1       1.403  10.054  18.984  0.00  0.00    +0.000 A 
ATOM      6  N   UNL     1       1.124  11.365  19.031  0.00  0.00    +0.000 NA
ATOM      7  C   UNL     1       0.451  11.795  20.097  0.00  0.00    +0.000 A 
ATOM      8  N   UNL     1       0.235  13.152  20.213  0.00  0.00    +0.000 N 
ATOM      9  N   UNL     1      -0.020  11.014  21.066  0.00  0.00    +0.000 NA
ATOM     10  C   UNL     1       0.270   9.701  20.979  0.00  0.00    +0.000 A 
ATOM     11  N   UNL     1      -0.278   8.891  21.990  0.00  0.00    +0.000 N 
ATOM     12  C   UNL     1       1.008   9.123  19.947  0.00  0.00    +0.000 A 
ATOM     13  N   UNL     1       1.364   7.802  19.915  0.00  0.00    +0.000 NA
ATOM     14  H   UNL     1       2.797   5.747  17.936  0.00  0.00    +0.000 HD
ATOM     15  H   UNL     1       0.255  13.592  19.305  0.00  0.00    +0.000 HD
ATOM     16  H   UNL     1      -0.557  13.335  20.811  0.00  0.00    +0.000 HD
ATOM     17  H   UNL     1      -0.625   9.476  22.742  0.00  0.00    +0.000 HD
ATOM     18  H   UNL     1       0.382   8.168  22.264  0.00  0.00    +0.000 HD
ENDROOT
BRANCH   1  24
ATOM     19  C   UNL     1       1.630   3.776  18.956  0.00  0.00    +0.000 A 
ATOM     20  C   UNL     1       1.293   2.650  19.723  0.00  0.00    +0.000 A 
ATOM     21  C   UNL     1       1.527   2.627  21.100  0.00  0.00    +0.000 A 
ATOM     22  C   UNL     1       2.095   3.728  21.727  0.00  0.00    +0.000 A 
ATOM     23  C   UNL     1       2.411   4.862  20.980  0.00  0.00    +0.000 A 
ATOM     24  C   UNL     1       2.152   4.919  19.599  0.00  0.00    +0.000 A 
BRANCH  19  26
ATOM     25  C   UNL     1       2.594   3.301  16.827  0.00  0.00    +0.000 C 
ATOM     26  O   UNL     1       1.516   3.829  17.589  0.00  0.00    +0.000 OA
ENDBRANCH  19  26
ENDBRANCH   1  24
TORSDOF 2
ENDMDL
MODEL 6
REMARK VINA RESULT:      -6.8      5.198      7.304
REMARK  Name = 
REMARK  3 active torsions:
REMARK  status: ('A' for Active; 'I' for Inactive)
REMARK    1  A    between atoms: C_1  and  O_2
REMARK    2  A    between atoms: O_2  and  C_3
REMARK    3  A    between atoms: C_8  and  N_9
REMARK                            x       y       z     vdW  Elec       q    Type
REMARK                         _______ _______ _______ _____ _____    ______ ____
ROOT
ATOM      1  N   UNL     1       1.617   7.162  21.144  0.00  0.00    +0.000 N 
ATOM      2  C   UNL     1       1.030   8.450  21.052  0.00  0.00    +0.000 A 
ATOM      3  C   UNL     1       0.848   9.157  22.237  0.00  0.00    +0.000 A 
ATOM      4  C   UNL     1       0.139  10.358  22.224  0.00  0.00    +0.000 A 
ATOM      5  C   UNL     1      -0.428  10.835  21.056  0.00  0.00    +0.000 A 
ATOM      6  N   UNL     1      -1.175  11.949  21.101  0.00  0.00    +0.000 NA
ATOM      7  C   UNL     1      -1.762  12.320  19.966  0.00  0.00    +0.000 A 
ATOM      8  N   UNL     1      -2.609  13.408  20.009  0.00  0.00    +0.000 N 
ATOM      9  N   UNL     1      -1.603  11.715  18.791  0.00  0.00    +0.000 NA
ATOM     10  C   UNL     1      -0.837  10.606  18.783  0.00  0.00    +0.000 A 
ATOM     11  N   UNL     1      -0.646  10.011  17.522  0.00  0.00    +0.000 N 
ATOM     12  C   UNL     1      -0.204  10.075  19.906  0.00  0.00    +0.000 A 
ATOM     13  N   UNL     1       0.503   8.903  19.897  0.00  0.00    +0.000 NA
ATOM     14  H   UNL     1       2.323   7.181  21.875  0.00  0.00    +0.000 HD
ATOM     15  H   UNL     1      -2.368  14.014  20.781  0.00  0.00    +0.000 HD
ATOM     16  H   UNL     1      -2.704  13.821  19.094  0.00  0.00    +0.000 HD
ATOM     17  H   UNL     1      -1.306  10.404  16.860  0.00  0.00    +0.000 HD
ATOM     18  H   UNL     1      -0.655   8.998  17.602  0.00  0.00    +0.000 HD
ENDROOT
BRANCH   1  24
ATOM     19  C   UNL     1       1.858   5.074  19.790  0.00  0.00    +0.000 A 
ATOM     20  C   UNL     1       2.338   4.478  18.614  0.00  0.00    +0.000 A 
ATOM     21  C   UNL     1       3.081   5.217  17.690  0.00  0.00    +0.000 A 
ATOM     22  C   UNL     1       3.355   6.556  17.931  0.00  0.00    +0.000 A 
ATOM     23  C   UNL     1       2.904   7.154  19.108  0.00  0.00    +0.000 A 
ATOM     24  C   UNL     1       2.185   6.419  20.067  0.00  0.00    +0.000 A 
BRANCH  19  26
ATOM     25  C   UNL     1       1.374   3.094  21.029  0.00  0.00    +0.000 C 
ATOM     26  O   UNL     1       1.043   4.434  20.692  0.00  0.00    +0.000 OA
ENDBRANCH  19  26
ENDBRANCH   1  24
TORSDOF 2
ENDMDL
MODEL 7
REMARK VINA RESULT:      -6.6      3.903      6.035
REMARK  Name = 
REMARK  3 active torsions:
REMARK  status: ('A' for Active; 'I' for Inactive)
REMARK    1  A    between atoms: C_1  and  O_2
REMARK    2  A    between atoms: O_2  and  C_3
REMARK    3  A    between atoms: C_8  and  N_9
REMARK                            x       y       z     vdW  Elec       q    Type
REMARK                         _______ _______ _______ _____ _____    ______ ____
ROOT
ATOM      1  N   UNL     1       2.847   6.388  17.946  0.00  0.00    +0.000 N 
ATOM      2  C   UNL     1       2.232   7.593  18.373  0.00  0.00    +0.000 A 
ATOM      3  C   UNL     1       2.164   8.638  17.456  0.00  0.00    +0.000 A 
ATOM      4  C   UNL     1       1.710   9.891  17.867  0.00  0.00    +0.000 A 
ATOM      5  C   UNL     1       1.369  10.124  19.187  0.00  0.00    +0.000 A 
ATOM      6  N   UNL     1       1.019  11.365  19.560  0.00  0.00    +0.000 NA
ATOM      7  C   UNL     1       0.778  11.552  20.855  0.00  0.00    +0.000 A 
ATOM      8  N   UNL     1       0.508  12.838  21.277  0.00  0.00    +0.000 N 
ATOM      9  N   UNL     1       0.787  10.595  21.780  0.00  0.00    +0.000 NA
ATOM     10  C   UNL     1       1.133   9.360  21.365  0.00  0.00    +0.000 A 
ATOM     11  N   UNL     1       1.090   8.356  22.350  0.00  0.00    +0.000 N 
ATOM     12  C   UNL     1       1.460   9.031  20.050  0.00  0.00    +0.000 A 
ATOM     13  N   UNL     1       1.888   7.791  19.661  0.00  0.00    +0.000 NA
ATOM     14  H   UNL     1       2.613   6.235  16.969  0.00  0.00    +0.000 HD
ATOM     15  H   UNL     1       0.137  13.389  20.516  0.00  0.00    +0.000 HD
ATOM     16  H   UNL     1      -0.003  12.827  22.147  0.00  0.00    +0.000 HD
ATOM     17  H   UNL     1       1.014   8.784  23.266  0.00  0.00    +0.000 HD
ATOM     18  H   UNL     1       1.864   7.709  22.232  0.00  0.00    +0.000 HD
ENDROOT
BRANCH   1  24
ATOM     19  C   UNL     1       3.642   4.655  19.563  0.00  0.00    +0.000 A 
ATOM     20  C   UNL     1       3.359   3.466  20.253  0.00  0.00    +0.000 A 
ATOM     21  C   UNL     1       2.168   2.773  20.025  0.00  0.00    +0.000 A 
ATOM     22  C   UNL     1       1.248   3.256  19.104  0.00  0.00    +0.000 A 
ATOM     23  C   UNL     1       1.528   4.424  18.394  0.00  0.00    +0.000 A 
ATOM     24  C   UNL     1       2.736   5.117  18.583  0.00  0.00    +0.000 A 
BRANCH  19  26
ATOM     25  C   UNL     1       5.948   5.087  19.135  0.00  0.00    +0.000 C 
ATOM     26  O   UNL     1       4.745   5.435  19.807  0.00  0.00    +0.000 OA
ENDBRANCH  19  26
ENDBRANCH   1  24
TORSDOF 2
ENDMDL
MODEL 8
REMARK VINA RESULT:      -6.6      3.880      6.634
REMARK  Name = 
REMARK  3 active torsions:
REMARK  status: ('A' for Active; 'I' for Inactive)
REMARK    1  A    between atoms: C_1  and  O_2
REMARK    2  A    between atoms: O_2  and  C_3
REMARK    3  A    between atoms: C_8  and  N_9
REMARK                            x       y       z     vdW  Elec       q    Type
REMARK                         _______ _______ _______ _____ _____    ______ ____
ROOT
ATOM      1  N   UNL     1       1.790   9.261  17.721  0.00  0.00    +0.000 N 
ATOM      2  C   UNL     1       2.603   8.141  18.030  0.00  0.00    +0.000 A 
ATOM      3  C   UNL     1       3.638   7.837  17.151  0.00  0.00    +0.000 A 
ATOM      4  C   UNL     1       4.370   6.662  17.322  0.00  0.00    +0.000 A 
ATOM      5  C   UNL     1       4.052   5.769  18.329  0.00  0.00    +0.000 A 
ATOM      6  N   UNL     1       4.724   4.610  18.408  0.00  0.00    +0.000 NA
ATOM      7  C   UNL     1       4.326   3.752  19.345  0.00  0.00    +0.000 A 
ATOM      8  N   UNL     1       4.940   2.517  19.384  0.00  0.00    +0.000 N 
ATOM      9  N   UNL     1       3.372   3.990  20.241  0.00  0.00    +0.000 NA
ATOM     10  C   UNL     1       2.727   5.169  20.137  0.00  0.00    +0.000 A 
ATOM     11  N   UNL     1       1.755   5.417  21.124  0.00  0.00    +0.000 N 
ATOM     12  C   UNL     1       3.004   6.138  19.174  0.00  0.00    +0.000 A 
ATOM     13  N   UNL     1       2.286   7.295  19.031  0.00  0.00    +0.000 NA
ATOM     14  H   UNL     1       2.377   9.981  17.309  0.00  0.00    +0.000 HD
ATOM     15  H   UNL     1       5.862   2.568  18.976  0.00  0.00    +0.000 HD
ATOM     16  H   UNL     1       4.849   2.105  20.300  0.00  0.00    +0.000 HD
ATOM     17  H   UNL     1       1.555   4.559  21.625  0.00  0.00    +0.000 HD
ATOM     18  H   UNL     1       0.950   5.888  20.720  0.00  0.00    +0.000 HD
ENDROOT
BRANCH   1  24
ATOM     19  C   UNL     1      -0.473  10.087  18.388  0.00  0.00    +0.000 A 
ATOM     20  C   UNL     1      -1.285  10.615  19.403  0.00  0.00    +0.000 A 
ATOM     21  C   UNL     1      -0.750  10.933  20.654  0.00  0.00    +0.000 A 
ATOM     22  C   UNL     1       0.601  10.730  20.904  0.00  0.00    +0.000 A 
ATOM     23  C   UNL     1       1.423  10.228  19.896  0.00  0.00    +0.000 A 
ATOM     24  C   UNL     1       0.912   9.935  18.619  0.00  0.00    +0.000 A 
BRANCH  19  26
ATOM     25  C   UNL     1      -2.290  10.008  16.845  0.00  0.00    +0.000 C 
ATOM     26  O   UNL     1      -0.950   9.664  17.172  0.00  0.00    +0.000 OA
ENDBRANCH  19  26
ENDBRANCH   1  24
TORSDOF 2
ENDMDL
MODEL 9
REMARK VINA RESULT:      -6.6      2.435      6.499
REMARK  Name = 
REMARK  3 active torsions:
REMARK  status: ('A' for Active; 'I' for Inactive)
REMARK    1  A    between atoms: C_1  and  O_2
REMARK    2  A    between atoms: O_2  and  C_3
REMARK    3  A    between atoms: C_8  and  N_9
REMARK                            x       y       z     vdW  Elec       q    Type
REMARK                         _______ _______ _______ _____ _____    ______ ____
ROOT
ATOM      1  N   UNL     1       4.458   5.317  19.624  0.00  0.00    +0.000 N 
ATOM      2  C   UNL     1       5.342   5.261  18.516  0.00  0.00    +0.000 A 
ATOM      3  C   UNL     1       6.542   5.958  18.619  0.00  0.00    +0.000 A 
ATOM      4  C   UNL     1       7.378   6.065  17.507  0.00  0.00    +0.000 A 
ATOM      5  C   UNL     1       7.010   5.525  16.289  0.00  0.00    +0.000 A 
ATOM      6  N   UNL     1       7.801   5.722  15.223  0.00  0.00    +0.000 NA
ATOM      7  C   UNL     1       7.362   5.250  14.058  0.00  0.00    +0.000 A 
ATOM      8  N   UNL     1       8.113   5.522  12.933  0.00  0.00    +0.000 N 
ATOM      9  N   UNL     1       6.246   4.544  13.893  0.00  0.00    +0.000 NA
ATOM     10  C   UNL     1       5.483   4.357  14.988  0.00  0.00    +0.000 A 
ATOM     11  N   UNL     1       4.334   3.568  14.798  0.00  0.00    +0.000 N 
ATOM     12  C   UNL     1       5.795   4.838  16.259  0.00  0.00    +0.000 A 
ATOM     13  N   UNL     1       4.970   4.710  17.344  0.00  0.00    +0.000 NA
ATOM     14  H   UNL     1       5.009   5.320  20.477  0.00  0.00    +0.000 HD
ATOM     15  H   UNL     1       9.077   5.687  13.183  0.00  0.00    +0.000 HD
ATOM     16  H   UNL     1       7.920   4.849  12.207  0.00  0.00    +0.000 HD
ATOM     17  H   UNL     1       4.162   3.454  13.806  0.00  0.00    +0.000 HD
ATOM     18  H   UNL     1       3.556   3.937  15.339  0.00  0.00    +0.000 HD
ENDROOT
BRANCH   1  24
ATOM     19  C   UNL     1       3.508   3.062  20.138  0.00  0.00    +0.000 A 
ATOM     20  C   UNL     1       2.387   2.315  20.528  0.00  0.00    +0.000 A 
ATOM     21  C   UNL     1       1.145   2.929  20.709  0.00  0.00    +0.000 A 
ATOM     22  C   UNL     1       1.008   4.295  20.499  0.00  0.00    +0.000 A 
ATOM     23  C   UNL     1       2.110   5.044  20.087  0.00  0.00    +0.000 A 
ATOM     24  C   UNL     1       3.360   4.440  19.866  0.00  0.00    +0.000 A 
BRANCH  19  26
ATOM     25  C   UNL     1       5.092   1.438  20.874  0.00  0.00    +0.000 C 
ATOM     26  O   UNL     1       4.774   2.541  20.036  0.00  0.00    +0.000 OA
ENDBRANCH  19  26
ENDBRANCH   1  24
TORSDOF 2
ENDMDL
