MODEL 1
REMARK VINA RESULT:      -7.2      0.000      0.000
REMARK  Name = 
REMARK  7 active torsions:
REMARK  status: ('A' for Active; 'I' for Inactive)
REMARK    1  A    between atoms: C_1  and  C_2
REMARK    2  A    between atoms: C_2  and  C_3
REMARK    3  A    between atoms: C_2  and  N_4
REMARK    4  A    between atoms: N_4  and  C_5
REMARK    5  A    between atoms: N_4  and  S_12
REMARK    6  A    between atoms: C_5  and  C_6
REMARK    7  A    between atoms: S_12  and  C_15
REMARK                            x       y       z     vdW  Elec       q    Type
REMARK                         _______ _______ _______ _____ _____    ______ ____
ROOT
ATOM      1  N   UNL     1       3.153   4.561  19.168  0.00  0.00    +0.000 NA
ENDROOT
BRANCH   1   3
ATOM      2  C   UNL     1       1.104   3.352  20.129  0.00  0.00    +0.000 C 
ATOM      3  C   UNL     1       2.390   3.239  19.302  0.00  0.00    +0.000 C 
ATOM      4  C   UNL     1       1.980   2.669  17.938  0.00  0.00    +0.000 C 
ENDBRANCH   1   3
BRANCH   1   5
ATOM      5  S   UNL     1       4.893   4.337  19.137  0.00  0.00    +0.000 S 
ATOM      6  O   UNL     1       5.616   5.432  19.742  0.00  0.00    +0.000 OA
ATOM      7  O   UNL     1       5.172   2.978  19.553  0.00  0.00    +0.000 OA
BRANCH   5   8
ATOM      8  C   UNL     1       5.426   4.415  17.434  0.00  0.00    +0.000 A 
ATOM      9  C   UNL     1       4.749   4.244  16.242  0.00  0.00    +0.000 A 
ATOM     10  C   UNL     1       5.613   4.315  15.113  0.00  0.00    +0.000 A 
ATOM     11  C   UNL     1       6.921   4.541  15.480  0.00  0.00    +0.000 A 
ATOM     12  S   UNL     1       7.095   4.700  17.176  0.00  0.00    +0.000 S 
ENDBRANCH   5   8
ENDBRANCH   1   5
BRANCH   1  13
ATOM     13  C   UNL     1       2.701   5.598  20.164  0.00  0.00    +0.000 C 
BRANCH  13  14
ATOM     14  C   UNL     1       2.407   6.969  19.591  0.00  0.00    +0.000 A 
ATOM     15  C   UNL     1       1.692   7.921  20.331  0.00  0.00    +0.000 A 
ATOM     16  C   UNL     1       1.226   9.085  19.716  0.00  0.00    +0.000 A 
ATOM     17  C   UNL     1       1.477   9.310  18.363  0.00  0.00    +0.000 A 
ATOM     18  C   UNL     1       2.248   8.406  17.637  0.00  0.00    +0.000 A 
ATOM     19  C   UNL     1       2.736   7.254  18.255  0.00  0.00    +0.000 A 
ENDBRANCH  13  14
ENDBRANCH   1  13
TORSDOF 5
ENDMDL
MODEL 2
REMARK VINA RESULT:      -7.2      0.404      1.176
REMARK  Name = 
REMARK  7 active torsions:
REMARK  status: ('A' for Active; 'I' for Inactive)
REMARK    1  A    between atoms: C_1  and  C_2
REMARK    2  A    between atoms: C_2  and  C_3
REMARK    3  A    between atoms: C_2  and  N_4
REMARK    4  A    between atoms: N_4  and  C_5
REMARK    5  A    between atoms: N_4  and  S_12
REMARK    6  A    between atoms: C_5  and  C_6
REMARK    7  A    between atoms: S_12  and  C_15
REMARK                            x       y       z     vdW  Elec       q    Type
REMARK                         _______ _______ _______ _____ _____    ______ ____
ROOT
ATOM      1  N   UNL     1       3.276   4.882  19.116  0.00  0.00    +0.000 NA
ENDROOT
BRANCH   1   3
ATOM      2  C   UNL     1       1.467   3.709  20.508  0.00  0.00    +0.000 C 
ATOM      3  C   UNL     1       2.348   3.670  19.253  0.00  0.00    +0.000 C 
ATOM      4  C   UNL     1       1.396   3.536  18.058  0.00  0.00    +0.000 C 
ENDBRANCH   1   3
BRANCH   1   5
ATOM      5  S   UNL     1       4.972   4.433  19.081  0.00  0.00    +0.000 S 
ATOM      6  O   UNL     1       5.834   5.427  19.679  0.00  0.00    +0.000 OA
ATOM      7  O   UNL     1       5.074   3.052  19.501  0.00  0.00    +0.000 OA
BRANCH   5   8
ATOM      8  C   UNL     1       5.505   4.436  17.376  0.00  0.00    +0.000 A 
ATOM      9  C   UNL     1       4.828   4.213  16.193  0.00  0.00    +0.000 A 
ATOM     10  C   UNL     1       5.692   4.233  15.062  0.00  0.00    +0.000 A 
ATOM     11  C   UNL     1       7.001   4.472  15.418  0.00  0.00    +0.000 A 
ATOM     12  S   UNL     1       7.175   4.705  17.106  0.00  0.00    +0.000 S 
ENDBRANCH   5   8
ENDBRANCH   1   5
BRANCH   1  13
ATOM     13  C   UNL     1       2.966   5.970  20.112  0.00  0.00    +0.000 C 
BRANCH  13  14
ATOM     14  C   UNL     1       2.257   7.185  19.552  0.00  0.00    +0.000 A 
ATOM     15  C   UNL     1       2.428   7.564  18.213  0.00  0.00    +0.000 A 
ATOM     16  C   UNL     1       1.964   8.805  17.769  0.00  0.00    +0.000 A 
ATOM     17  C   UNL     1       1.320   9.668  18.654  0.00  0.00    +0.000 A 
ATOM     18  C   UNL     1       1.080   9.270  19.966  0.00  0.00    +0.000 A 
ATOM     19  C   UNL     1       1.520   8.022  20.407  0.00  0.00    +0.000 A 
ENDBRANCH  13  14
ENDBRANCH   1  13
TORSDOF 5
ENDMDL
MODEL 3
REMARK VINA RESULT:      -6.8      1.724      2.309
REMARK  Name = 
REMARK  7 active torsions:
REMARK  status: ('A' for Active; 'I' for Inactive)
REMARK    1  A    between atoms: C_1  and  C_2
REMARK    2  A    between atoms: C_2  and  C_3
REMARK    3  A    between atoms: C_2  and  N_4
REMARK    4  A    between atoms: N_4  and  C_5
REMARK    5  A    between atoms: N_4  and  S_12
REMARK    6  A    between atoms: C_5  and  C_6
REMARK    7  A    between atoms: S_12  and  C_15
REMARK                            x       y       z     vdW  Elec       q    Type
REMARK                         _______ _______ _______ _____ _____    ______ ____
ROOT
ATOM      1  N   UNL     1       3.431   4.900  18.504  0.00  0.00    +0.000 NA
ENDROOT
BRANCH   1   3
ATOM      2  C   UNL     1       1.576   3.902  19.970  0.00  0.00    +0.000 C 
ATOM      3  C   UNL     1       2.287   3.887  18.610  0.00  0.00    +0.000 C 
ATOM      4  C   UNL     1       1.203   4.126  17.551  0.00  0.00    +0.000 C 
ENDBRANCH   1   3
BRANCH   1   5
ATOM      5  S   UNL     1       5.000   4.133  18.344  0.00  0.00    +0.000 S 
ATOM      6  O   UNL     1       5.410   3.427  19.537  0.00  0.00    +0.000 OA
ATOM      7  O   UNL     1       5.035   3.456  17.065  0.00  0.00    +0.000 OA
BRANCH   5   8
ATOM      8  C   UNL     1       6.231   5.422  18.217  0.00  0.00    +0.000 A 
ATOM      9  C   UNL     1       7.336   5.727  18.987  0.00  0.00    +0.000 A 
ATOM     10  C   UNL     1       7.989   6.915  18.551  0.00  0.00    +0.000 A 
ATOM     11  C   UNL     1       7.361   7.477  17.461  0.00  0.00    +0.000 A 
ATOM     12  S   UNL     1       6.013   6.553  16.949  0.00  0.00    +0.000 S 
ENDBRANCH   5   8
ENDBRANCH   1   5
BRANCH   1  13
ATOM     13  C   UNL     1       3.384   5.949  19.586  0.00  0.00    +0.000 C 
BRANCH  13  14
ATOM     14  C   UNL     1       2.493   7.140  19.303  0.00  0.00    +0.000 A 
ATOM     15  C   UNL     1       2.483   7.748  18.039  0.00  0.00    +0.000 A 
ATOM     16  C   UNL     1       1.843   8.975  17.854  0.00  0.00    +0.000 A 
ATOM     17  C   UNL     1       1.204   9.599  18.925  0.00  0.00    +0.000 A 
ATOM     18  C   UNL     1       1.145   8.969  20.165  0.00  0.00    +0.000 A 
ATOM     19  C   UNL     1       1.762   7.731  20.347  0.00  0.00    +0.000 A 
ENDBRANCH  13  14
ENDBRANCH   1  13
TORSDOF 5
ENDMDL
MODEL 4
REMARK VINA RESULT:      -6.8      1.597      2.109
REMARK  Name = 
REMARK  7 active torsions:
REMARK  status: ('A' for Active; 'I' for Inactive)
REMARK    1  A    between atoms: C_1  and  C_2
REMARK    2  A    between atoms: C_2  and  C_3
REMARK    3  A    between atoms: C_2  and  N_4
REMARK    4  A    between atoms: N_4  and  C_5
REMARK    5  A    between atoms: N_4  and  S_12
REMARK    6  A    between atoms: C_5  and  C_6
REMARK    7  A    between atoms: S_12  and  C_15
REMARK                            x       y       z     vdW  Elec       q    Type
REMARK                         _______ _______ _______ _____ _____    ______ ____
ROOT
ATOM      1  N   UNL     1       3.259   4.712  18.934  0.00  0.00    +0.000 NA
ENDROOT
BRANCH   1   3
ATOM      2  C   UNL     1       1.902   4.017  20.998  0.00  0.00    +0.000 C 
ATOM      3  C   UNL     1       2.379   3.643  19.589  0.00  0.00    +0.000 C 
ATOM      4  C   UNL     1       1.118   3.351  18.767  0.00  0.00    +0.000 C 
ENDBRANCH   1   3
BRANCH   1   5
ATOM      5  S   UNL     1       4.801   4.078  18.387  0.00  0.00    +0.000 S 
ATOM      6  O   UNL     1       5.496   3.323  19.405  0.00  0.00    +0.000 OA
ATOM      7  O   UNL     1       4.600   3.496  17.077  0.00  0.00    +0.000 OA
BRANCH   5   8
ATOM      8  C   UNL     1       5.898   5.460  18.114  0.00  0.00    +0.000 A 
ATOM      9  C   UNL     1       5.911   6.458  17.158  0.00  0.00    +0.000 A 
ATOM     10  C   UNL     1       7.043   7.311  17.282  0.00  0.00    +0.000 A 
ATOM     11  C   UNL     1       7.857   6.939  18.328  0.00  0.00    +0.000 A 
ATOM     12  S   UNL     1       7.235   5.587  19.176  0.00  0.00    +0.000 S 
ENDBRANCH   5   8
ENDBRANCH   1   5
BRANCH   1  13
ATOM     13  C   UNL     1       3.389   5.957  19.775  0.00  0.00    +0.000 C 
BRANCH  13  14
ATOM     14  C   UNL     1       2.513   7.120  19.360  0.00  0.00    +0.000 A 
ATOM     15  C   UNL     1       2.581   7.645  18.062  0.00  0.00    +0.000 A 
ATOM     16  C   UNL     1       1.949   8.853  17.758  0.00  0.00    +0.000 A 
ATOM     17  C   UNL     1       1.240   9.539  18.743  0.00  0.00    +0.000 A 
ATOM     18  C   UNL     1       1.105   8.989  20.015  0.00  0.00    +0.000 A 
ATOM     19  C   UNL     1       1.714   7.770  20.315  0.00  0.00    +0.000 A 
ENDBRANCH  13  14
ENDBRANCH   1  13
TORSDOF 5
ENDMDL
MODEL 5
REMARK VINA RESULT:      -6.7      2.098      4.270
REMARK  Name = 
REMARK  7 active torsions:
REMARK  status: ('A' for Active; 'I' for Inactive)
REMARK    1  A    between atoms: C_1  and  C_2
REMARK    2  A    between atoms: C_2  and  C_3
REMARK    3  A    between atoms: C_2  and  N_4
REMARK    4  A    between atoms: N_4  and  C_5
REMARK    5  A    between atoms: N_4  and  S_12
REMARK    6  A    between atoms: C_5  and  C_6
REMARK    7  A    between atoms: S_12  and  C_15
REMARK                            x       y       z     vdW  Elec       q    Type
REMARK                         _______ _______ _______ _____ _____    ______ ____
ROOT
ATOM      1  N   UNL     1       3.550   5.623  18.064  0.00  0.00    +0.000 NA
ENDROOT
BRANCH   1   3
ATOM      2  C   UNL     1       5.448   6.501  16.576  0.00  0.00    +0.000 C 
ATOM      3  C   UNL     1       4.987   5.427  17.570  0.00  0.00    +0.000 C 
ATOM      4  C   UNL     1       5.999   5.438  18.722  0.00  0.00    +0.000 C 
ENDBRANCH   1   3
BRANCH   1   5
ATOM      5  S   UNL     1       2.555   4.198  17.831  0.00  0.00    +0.000 S 
ATOM      6  O   UNL     1       1.236   4.504  17.326  0.00  0.00    +0.000 OA
ATOM      7  O   UNL     1       3.362   3.199  17.163  0.00  0.00    +0.000 OA
BRANCH   5   8
ATOM      8  C   UNL     1       2.202   3.505  19.439  0.00  0.00    +0.000 A 
ATOM      9  C   UNL     1       1.063   3.511  20.220  0.00  0.00    +0.000 A 
ATOM     10  C   UNL     1       1.273   2.897  21.487  0.00  0.00    +0.000 A 
ATOM     11  C   UNL     1       2.565   2.441  21.631  0.00  0.00    +0.000 A 
ATOM     12  S   UNL     1       3.505   2.723  20.228  0.00  0.00    +0.000 S 
ENDBRANCH   5   8
ENDBRANCH   1   5
BRANCH   1  13
ATOM     13  C   UNL     1       2.919   6.887  17.536  0.00  0.00    +0.000 C 
BRANCH  13  14
ATOM     14  C   UNL     1       2.310   7.798  18.581  0.00  0.00    +0.000 A 
ATOM     15  C   UNL     1       2.158   7.372  19.908  0.00  0.00    +0.000 A 
ATOM     16  C   UNL     1       1.391   8.120  20.804  0.00  0.00    +0.000 A 
ATOM     17  C   UNL     1       0.779   9.300  20.384  0.00  0.00    +0.000 A 
ATOM     18  C   UNL     1       0.984   9.770  19.089  0.00  0.00    +0.000 A 
ATOM     19  C   UNL     1       1.771   9.038  18.199  0.00  0.00    +0.000 A 
ENDBRANCH  13  14
ENDBRANCH   1  13
TORSDOF 5
ENDMDL
MODEL 6
REMARK VINA RESULT:      -6.7      1.012      1.149
REMARK  Name = 
REMARK  7 active torsions:
REMARK  status: ('A' for Active; 'I' for Inactive)
REMARK    1  A    between atoms: C_1  and  C_2
REMARK    2  A    between atoms: C_2  and  C_3
REMARK    3  A    between atoms: C_2  and  N_4
REMARK    4  A    between atoms: N_4  and  C_5
REMARK    5  A    between atoms: N_4  and  S_12
REMARK    6  A    between atoms: C_5  and  C_6
REMARK    7  A    between atoms: S_12  and  C_15
REMARK                            x       y       z     vdW  Elec       q    Type
REMARK                         _______ _______ _______ _____ _____    ______ ____
ROOT
ATOM      1  N   UNL     1       2.812   3.908  19.163  0.00  0.00    +0.000 NA
ENDROOT
BRANCH   1   3
ATOM      2  C   UNL     1       1.200   3.266  21.053  0.00  0.00    +0.000 C 
ATOM      3  C   UNL     1       1.743   2.929  19.659  0.00  0.00    +0.000 C 
ATOM      4  C   UNL     1       0.531   2.876  18.722  0.00  0.00    +0.000 C 
ENDBRANCH   1   3
BRANCH   1   5
ATOM      5  S   UNL     1       4.287   3.102  18.661  0.00  0.00    +0.000 S 
ATOM      6  O   UNL     1       5.280   3.034  19.709  0.00  0.00    +0.000 OA
ATOM      7  O   UNL     1       3.913   1.897  17.951  0.00  0.00    +0.000 OA
BRANCH   5   8
ATOM      8  C   UNL     1       5.085   4.129  17.438  0.00  0.00    +0.000 A 
ATOM      9  C   UNL     1       4.832   4.338  16.096  0.00  0.00    +0.000 A 
ATOM     10  C   UNL     1       5.797   5.191  15.489  0.00  0.00    +0.000 A 
ATOM     11  C   UNL     1       6.754   5.607  16.388  0.00  0.00    +0.000 A 
ATOM     12  S   UNL     1       6.466   4.997  17.962  0.00  0.00    +0.000 S 
ENDBRANCH   5   8
ENDBRANCH   1   5
BRANCH   1  13
ATOM     13  C   UNL     1       3.049   5.048  20.122  0.00  0.00    +0.000 C 
BRANCH  13  14
ATOM     14  C   UNL     1       2.729   6.428  19.587  0.00  0.00    +0.000 A 
ATOM     15  C   UNL     1       1.963   7.331  20.338  0.00  0.00    +0.000 A 
ATOM     16  C   UNL     1       1.478   8.501  19.750  0.00  0.00    +0.000 A 
ATOM     17  C   UNL     1       1.761   8.781  18.414  0.00  0.00    +0.000 A 
ATOM     18  C   UNL     1       2.582   7.928  17.681  0.00  0.00    +0.000 A 
ATOM     19  C   UNL     1       3.089   6.770  18.273  0.00  0.00    +0.000 A 
ENDBRANCH  13  14
ENDBRANCH   1  13
TORSDOF 5
ENDMDL
MODEL 7
REMARK VINA RESULT:      -6.6      1.538      4.184
REMARK  Name = 
REMARK  7 active torsions:
REMARK  status: ('A' for Active; 'I' for Inactive)
REMARK    1  A    between atoms: C_1  and  C_2
REMARK    2  A    between atoms: C_2  and  C_3
REMARK    3  A    between atoms: C_2  and  N_4
REMARK    4  A    between atoms: N_4  and  C_5
REMARK    5  A    between atoms: N_4  and  S_12
REMARK    6  A    between atoms: C_5  and  C_6
REMARK    7  A    between atoms: S_12  and  C_15
REMARK                            x       y       z     vdW  Elec       q    Type
REMARK                         _______ _______ _______ _____ _____    ______ ____
ROOT
ATOM      1  N   UNL     1       4.473   5.481  18.154  0.00  0.00    +0.000 NA
ENDROOT
BRANCH   1   3
ATOM      2  C   UNL     1       5.184   6.391  15.862  0.00  0.00    +0.000 C 
ATOM      3  C   UNL     1       5.634   5.815  17.211  0.00  0.00    +0.000 C 
ATOM      4  C   UNL     1       6.596   6.841  17.822  0.00  0.00    +0.000 C 
ENDBRANCH   1   3
BRANCH   1   5
ATOM      5  S   UNL     1       4.415   3.780  18.578  0.00  0.00    +0.000 S 
ATOM      6  O   UNL     1       4.236   2.916  17.433  0.00  0.00    +0.000 OA
ATOM      7  O   UNL     1       5.493   3.519  19.510  0.00  0.00    +0.000 OA
BRANCH   5   8
ATOM      8  C   UNL     1       2.920   3.498  19.513  0.00  0.00    +0.000 A 
ATOM      9  C   UNL     1       2.644   3.572  20.864  0.00  0.00    +0.000 A 
ATOM     10  C   UNL     1       1.312   3.172  21.168  0.00  0.00    +0.000 A 
ATOM     11  C   UNL     1       0.614   2.807  20.039  0.00  0.00    +0.000 A 
ATOM     12  S   UNL     1       1.554   2.981  18.618  0.00  0.00    +0.000 S 
ENDBRANCH   5   8
ENDBRANCH   1   5
BRANCH   1  13
ATOM     13  C   UNL     1       3.152   6.022  17.668  0.00  0.00    +0.000 C 
BRANCH  13  14
ATOM     14  C   UNL     1       2.620   7.220  18.425  0.00  0.00    +0.000 A 
ATOM     15  C   UNL     1       2.293   7.126  19.786  0.00  0.00    +0.000 A 
ATOM     16  C   UNL     1       1.590   8.156  20.413  0.00  0.00    +0.000 A 
ATOM     17  C   UNL     1       1.216   9.289  19.691  0.00  0.00    +0.000 A 
ATOM     18  C   UNL     1       1.599   9.425  18.360  0.00  0.00    +0.000 A 
ATOM     19  C   UNL     1       2.324   8.409  17.736  0.00  0.00    +0.000 A 
ENDBRANCH  13  14
ENDBRANCH   1  13
TORSDOF 5
ENDMDL
MODEL 8
REMARK VINA RESULT:      -6.6      2.045      4.277
REMARK  Name = 
REMARK  7 active torsions:
REMARK  status: ('A' for Active; 'I' for Inactive)
REMARK    1  A    between atoms: C_1  and  C_2
REMARK    2  A    between atoms: C_2  and  C_3
REMARK    3  A    between atoms: C_2  and  N_4
REMARK    4  A    between atoms: N_4  and  C_5
REMARK    5  A    between atoms: N_4  and  S_12
REMARK    6  A    between atoms: C_5  and  C_6
REMARK    7  A    between atoms: S_12  and  C_15
REMARK                            x       y       z     vdW  Elec       q    Type
REMARK                         _______ _______ _______ _____ _____    ______ ____
ROOT
ATOM      1  N   UNL     1       3.963   5.724  18.273  0.00  0.00    +0.000 NA
ENDROOT
BRANCH   1   3
ATOM      2  C   UNL     1       6.103   6.736  17.282  0.00  0.00    +0.000 C 
ATOM      3  C   UNL     1       5.457   5.538  17.991  0.00  0.00    +0.000 C 
ATOM      4  C   UNL     1       6.262   5.308  19.275  0.00  0.00    +0.000 C 
ENDBRANCH   1   3
BRANCH   1   5
ATOM      5  S   UNL     1       3.026   4.281  17.926  0.00  0.00    +0.000 S 
ATOM      6  O   UNL     1       1.780   4.564  17.250  0.00  0.00    +0.000 OA
ATOM      7  O   UNL     1       3.927   3.289  17.379  0.00  0.00    +0.000 OA
BRANCH   5   8
ATOM      8  C   UNL     1       2.475   3.597  19.481  0.00  0.00    +0.000 A 
ATOM      9  C   UNL     1       1.287   3.714  20.176  0.00  0.00    +0.000 A 
ATOM     10  C   UNL     1       1.329   3.053  21.435  0.00  0.00    +0.000 A 
ATOM     11  C   UNL     1       2.547   2.450  21.660  0.00  0.00    +0.000 A 
ATOM     12  S   UNL     1       3.618   2.655  20.341  0.00  0.00    +0.000 S 
ENDBRANCH   5   8
ENDBRANCH   1   5
BRANCH   1  13
ATOM     13  C   UNL     1       3.399   6.970  17.638  0.00  0.00    +0.000 C 
BRANCH  13  14
ATOM     14  C   UNL     1       2.389   7.728  18.473  0.00  0.00    +0.000 A 
ATOM     15  C   UNL     1       1.741   8.863  17.965  0.00  0.00    +0.000 A 
ATOM     16  C   UNL     1       0.994   9.684  18.812  0.00  0.00    +0.000 A 
ATOM     17  C   UNL     1       0.883   9.375  20.167  0.00  0.00    +0.000 A 
ATOM     18  C   UNL     1       1.461   8.211  20.667  0.00  0.00    +0.000 A 
ATOM     19  C   UNL     1       2.187   7.374  19.818  0.00  0.00    +0.000 A 
ENDBRANCH  13  14
ENDBRANCH   1  13
TORSDOF 5
ENDMDL
MODEL 9
REMARK VINA RESULT:      -6.6      1.674      4.154
REMARK  Name = 
REMARK  7 active torsions:
REMARK  status: ('A' for Active; 'I' for Inactive)
REMARK    1  A    between atoms: C_1  and  C_2
REMARK    2  A    between atoms: C_2  and  C_3
REMARK    3  A    between atoms: C_2  and  N_4
REMARK    4  A    between atoms: N_4  and  C_5
REMARK    5  A    between atoms: N_4  and  S_12
REMARK    6  A    between atoms: C_5  and  C_6
REMARK    7  A    between atoms: S_12  and  C_15
REMARK                            x       y       z     vdW  Elec       q    Type
REMARK                         _______ _______ _______ _____ _____    ______ ____
ROOT
ATOM      1  N   UNL     1       4.688   5.283  18.484  0.00  0.00    +0.000 NA
ENDROOT
BRANCH   1   3
ATOM      2  C   UNL     1       6.216   6.904  17.210  0.00  0.00    +0.000 C 
ATOM      3  C   UNL     1       6.111   5.600  18.012  0.00  0.00    +0.000 C 
ATOM      4  C   UNL     1       7.092   5.730  19.184  0.00  0.00    +0.000 C 
ENDBRANCH   1   3
BRANCH   1   5
ATOM      5  S   UNL     1       4.389   3.559  18.616  0.00  0.00    +0.000 S 
ATOM      6  O   UNL     1       4.169   2.923  17.337  0.00  0.00    +0.000 OA
ATOM      7  O   UNL     1       5.367   3.009  19.530  0.00  0.00    +0.000 OA
BRANCH   5   8
ATOM      8  C   UNL     1       2.817   3.336  19.434  0.00  0.00    +0.000 A 
ATOM      9  C   UNL     1       1.516   3.509  19.004  0.00  0.00    +0.000 A 
ATOM     10  C   UNL     1       0.568   3.291  20.044  0.00  0.00    +0.000 A 
ATOM     11  C   UNL     1       1.177   2.957  21.233  0.00  0.00    +0.000 A 
ATOM     12  S   UNL     1       2.881   2.874  21.082  0.00  0.00    +0.000 S 
ENDBRANCH   5   8
ENDBRANCH   1   5
BRANCH   1  13
ATOM     13  C   UNL     1       3.634   6.014  17.692  0.00  0.00    +0.000 C 
BRANCH  13  14
ATOM     14  C   UNL     1       2.913   7.122  18.432  0.00  0.00    +0.000 A 
ATOM     15  C   UNL     1       2.504   6.952  19.762  0.00  0.00    +0.000 A 
ATOM     16  C   UNL     1       1.643   7.877  20.357  0.00  0.00    +0.000 A 
ATOM     17  C   UNL     1       1.193   8.979  19.632  0.00  0.00    +0.000 A 
ATOM     18  C   UNL     1       1.651   9.196  18.335  0.00  0.00    +0.000 A 
ATOM     19  C   UNL     1       2.531   8.287  17.747  0.00  0.00    +0.000 A 
ENDBRANCH  13  14
ENDBRANCH   1  13
TORSDOF 5
ENDMDL
