MODEL 1
REMARK VINA RESULT:      -6.6      0.000      0.000
REMARK  Name = 
REMARK  4 active torsions:
REMARK  status: ('A' for Active; 'I' for Inactive)
REMARK    1  A    between atoms: C_1  and  C_2
REMARK    2  A    between atoms: C_8  and  C_10
REMARK    3  A    between atoms: C_10  and  O_11
REMARK    4  A    between atoms: C_10  and  C_12
REMARK                            x       y       z     vdW  Elec       q    Type
REMARK                         _______ _______ _______ _____ _____    ______ ____
ROOT
ATOM      1  C   UNL     1       3.563  17.189  21.914  0.00  0.00    +0.000 C 
ATOM      2  C   UNL     1       2.850  17.236  20.577  0.00  0.00    +0.000 C 
ATOM      3  O   UNL     1       2.967  18.245  19.883  0.00  0.00    +0.000 OA
ATOM      4  N   UNL     1       2.091  16.120  20.209  0.00  0.00    +0.000 N 
ATOM      5  C   UNL     1       1.824  15.059  21.223  0.00  0.00    +0.000 C 
ATOM      6  C   UNL     1       2.641  13.786  20.998  0.00  0.00    +0.000 C 
ATOM      7  N   UNL     1       2.024  12.967  19.962  0.00  0.00    +0.000 N 
ATOM      8  C   UNL     1       1.072  12.019  20.351  0.00  0.00    +0.000 C 
ATOM      9  O   UNL     1       0.750  11.920  21.539  0.00  0.00    +0.000 OA
ATOM     10  C   UNL     1       2.405  13.235  18.593  0.00  0.00    +0.000 C 
ATOM     11  C   UNL     1       2.586  14.698  18.210  0.00  0.00    +0.000 C 
ATOM     12  C   UNL     1       1.664  15.848  18.759  0.00  0.00    +0.000 C 
ATOM     13  C   UNL     1       1.938  16.990  17.701  0.00  0.00    +0.000 C 
ATOM     14  C   UNL     1       0.899  18.090  17.513  0.00  0.00    +0.000 C 
ATOM     15  O   UNL     1      -0.440  17.631  17.641  0.00  0.00    +0.000 OA
ATOM     16  C   UNL     1      -0.637  16.874  18.829  0.00  0.00    +0.000 C 
ATOM     17  C   UNL     1       0.142  15.564  18.706  0.00  0.00    +0.000 C 
ENDROOT
BRANCH   8  18
ATOM     18  C   UNL     1       0.447  11.114  19.243  0.00  0.00    +0.000 C 
BRANCH  18  19
ATOM     19  C   UNL     1       1.158   9.785  19.088  0.00  0.00    +0.000 A 
ATOM     20  C   UNL     1       1.224   8.886  20.166  0.00  0.00    +0.000 A 
ATOM     21  C   UNL     1       1.896   7.665  20.033  0.00  0.00    +0.000 A 
ATOM     22  C   UNL     1       2.516   7.340  18.827  0.00  0.00    +0.000 A 
ATOM     23  C   UNL     1       2.455   8.221  17.751  0.00  0.00    +0.000 A 
ATOM     24  C   UNL     1       1.776   9.434  17.882  0.00  0.00    +0.000 A 
ENDBRANCH  18  19
BRANCH  18  25
ATOM     25  O   UNL     1      -0.938  10.847  19.461  0.00  0.00    +0.000 OA
ATOM     26  H   UNL     1      -1.296  10.478  18.637  0.00  0.00    +0.000 HD
ENDBRANCH  18  25
ENDBRANCH   8  18
TORSDOF 3
ENDMDL
MODEL 2
REMARK VINA RESULT:      -6.6      7.526     10.985
REMARK  Name = 
REMARK  4 active torsions:
REMARK  status: ('A' for Active; 'I' for Inactive)
REMARK    1  A    between atoms: C_1  and  C_2
REMARK    2  A    between atoms: C_8  and  C_10
REMARK    3  A    between atoms: C_10  and  O_11
REMARK    4  A    between atoms: C_10  and  C_12
REMARK                            x       y       z     vdW  Elec       q    Type
REMARK                         _______ _______ _______ _____ _____    ______ ____
ROOT
ATOM      1  C   UNL     1       1.603   7.704  20.075  0.00  0.00    +0.000 C 
ATOM      2  C   UNL     1       1.652   6.189  20.087  0.00  0.00    +0.000 C 
ATOM      3  O   UNL     1       0.716   5.574  20.597  0.00  0.00    +0.000 OA
ATOM      4  N   UNL     1       2.771   5.572  19.516  0.00  0.00    +0.000 N 
ATOM      5  C   UNL     1       3.948   6.409  19.145  0.00  0.00    +0.000 C 
ATOM      6  C   UNL     1       4.088   6.627  17.638  0.00  0.00    +0.000 C 
ATOM      7  N   UNL     1       4.705   5.462  17.015  0.00  0.00    +0.000 N 
ATOM      8  C   UNL     1       6.100   5.431  16.913  0.00  0.00    +0.000 C 
ATOM      9  O   UNL     1       6.773   6.356  17.377  0.00  0.00    +0.000 OA
ATOM     10  C   UNL     1       3.826   4.394  16.595  0.00  0.00    +0.000 C 
ATOM     11  C   UNL     1       2.661   4.066  17.520  0.00  0.00    +0.000 C 
ATOM     12  C   UNL     1       2.778   4.097  19.088  0.00  0.00    +0.000 C 
ATOM     13  C   UNL     1       1.530   3.221  19.504  0.00  0.00    +0.000 C 
ATOM     14  C   UNL     1       1.524   2.542  20.870  0.00  0.00    +0.000 C 
ATOM     15  O   UNL     1       2.805   2.084  21.280  0.00  0.00    +0.000 OA
ATOM     16  C   UNL     1       3.799   3.093  21.162  0.00  0.00    +0.000 C 
ATOM     17  C   UNL     1       4.022   3.388  19.678  0.00  0.00    +0.000 C 
ENDROOT
BRANCH   8  18
ATOM     18  C   UNL     1       6.753   4.202  16.205  0.00  0.00    +0.000 C 
BRANCH  18  19
ATOM     19  C   UNL     1       6.877   4.377  14.705  0.00  0.00    +0.000 A 
ATOM     20  C   UNL     1       6.097   3.598  13.833  0.00  0.00    +0.000 A 
ATOM     21  C   UNL     1       6.223   3.743  12.446  0.00  0.00    +0.000 A 
ATOM     22  C   UNL     1       7.135   4.658  11.923  0.00  0.00    +0.000 A 
ATOM     23  C   UNL     1       7.911   5.438  12.776  0.00  0.00    +0.000 A 
ATOM     24  C   UNL     1       7.778   5.300  14.159  0.00  0.00    +0.000 A 
ENDBRANCH  18  19
BRANCH  18  25
ATOM     25  O   UNL     1       8.048   3.890  16.718  0.00  0.00    +0.000 OA
ATOM     26  H   UNL     1       8.678   4.505  16.311  0.00  0.00    +0.000 HD
ENDBRANCH  18  25
ENDBRANCH   8  18
TORSDOF 3
ENDMDL
MODEL 3
REMARK VINA RESULT:      -6.4      0.332      1.020
REMARK  Name = 
REMARK  4 active torsions:
REMARK  status: ('A' for Active; 'I' for Inactive)
REMARK    1  A    between atoms: C_1  and  C_2
REMARK    2  A    between atoms: C_8  and  C_10
REMARK    3  A    between atoms: C_10  and  O_11
REMARK    4  A    between atoms: C_10  and  C_12
REMARK                            x       y       z     vdW  Elec       q    Type
REMARK                         _______ _______ _______ _____ _____    ______ ____
ROOT
ATOM      1  C   UNL     1       3.078  17.484  22.085  0.00  0.00    +0.000 C 
ATOM      2  C   UNL     1       2.496  17.498  20.686  0.00  0.00    +0.000 C 
ATOM      3  O   UNL     1       2.657  18.501  19.991  0.00  0.00    +0.000 OA
ATOM      4  N   UNL     1       1.799  16.360  20.263  0.00  0.00    +0.000 N 
ATOM      5  C   UNL     1       1.460  15.306  21.263  0.00  0.00    +0.000 C 
ATOM      6  C   UNL     1       2.322  14.050  21.136  0.00  0.00    +0.000 C 
ATOM      7  N   UNL     1       1.825  13.203  20.058  0.00  0.00    +0.000 N 
ATOM      8  C   UNL     1       0.860  12.239  20.369  0.00  0.00    +0.000 C 
ATOM      9  O   UNL     1       0.428  12.148  21.521  0.00  0.00    +0.000 OA
ATOM     10  C   UNL     1       2.330  13.463  18.729  0.00  0.00    +0.000 C 
ATOM     11  C   UNL     1       2.515  14.925  18.343  0.00  0.00    +0.000 C 
ATOM     12  C   UNL     1       1.520  16.060  18.783  0.00  0.00    +0.000 C 
ATOM     13  C   UNL     1       1.870  17.194  17.740  0.00  0.00    +0.000 C 
ATOM     14  C   UNL     1       0.830  18.267  17.436  0.00  0.00    +0.000 C 
ATOM     15  O   UNL     1      -0.505  17.780  17.442  0.00  0.00    +0.000 OA
ATOM     16  C   UNL     1      -0.799  17.034  18.617  0.00  0.00    +0.000 C 
ATOM     17  C   UNL     1       0.017  15.740  18.589  0.00  0.00    +0.000 C 
ENDROOT
BRANCH   8  18
ATOM     18  C   UNL     1       0.364  11.306  19.219  0.00  0.00    +0.000 C 
BRANCH  18  19
ATOM     19  C   UNL     1       1.083   9.972  19.184  0.00  0.00    +0.000 A 
ATOM     20  C   UNL     1       1.758   9.561  18.022  0.00  0.00    +0.000 A 
ATOM     21  C   UNL     1       2.407   8.321  17.979  0.00  0.00    +0.000 A 
ATOM     22  C   UNL     1       2.377   7.481  19.092  0.00  0.00    +0.000 A 
ATOM     23  C   UNL     1       1.715   7.879  20.249  0.00  0.00    +0.000 A 
ATOM     24  C   UNL     1       1.076   9.119  20.294  0.00  0.00    +0.000 A 
ENDBRANCH  18  19
BRANCH  18  25
ATOM     25  O   UNL     1      -1.038  11.046  19.281  0.00  0.00    +0.000 OA
ATOM     26  H   UNL     1      -1.202  10.218  18.802  0.00  0.00    +0.000 HD
ENDBRANCH  18  25
ENDBRANCH   8  18
TORSDOF 3
ENDMDL
MODEL 4
REMARK VINA RESULT:      -6.3      3.619      5.068
REMARK  Name = 
REMARK  4 active torsions:
REMARK  status: ('A' for Active; 'I' for Inactive)
REMARK    1  A    between atoms: C_1  and  C_2
REMARK    2  A    between atoms: C_8  and  C_10
REMARK    3  A    between atoms: C_10  and  O_11
REMARK    4  A    between atoms: C_10  and  C_12
REMARK                            x       y       z     vdW  Elec       q    Type
REMARK                         _______ _______ _______ _____ _____    ______ ____
ROOT
ATOM      1  C   UNL     1      -1.779  16.719  20.907  0.00  0.00    +0.000 C 
ATOM      2  C   UNL     1      -2.789  15.652  21.279  0.00  0.00    +0.000 C 
ATOM      3  O   UNL     1      -3.968  15.979  21.414  0.00  0.00    +0.000 OA
ATOM      4  N   UNL     1      -2.317  14.346  21.452  0.00  0.00    +0.000 N 
ATOM      5  C   UNL     1      -0.845  14.108  21.499  0.00  0.00    +0.000 C 
ATOM      6  C   UNL     1      -0.293  13.463  20.228  0.00  0.00    +0.000 C 
ATOM      7  N   UNL     1      -0.538  12.026  20.244  0.00  0.00    +0.000 N 
ATOM      8  C   UNL     1       0.434  11.199  20.816  0.00  0.00    +0.000 C 
ATOM      9  O   UNL     1       1.445  11.694  21.322  0.00  0.00    +0.000 OA
ATOM     10  C   UNL     1      -1.800  11.565  19.711  0.00  0.00    +0.000 C 
ATOM     11  C   UNL     1      -3.025  12.412  20.030  0.00  0.00    +0.000 C 
ATOM     12  C   UNL     1      -3.240  13.119  21.418  0.00  0.00    +0.000 C 
ATOM     13  C   UNL     1      -4.797  13.389  21.385  0.00  0.00    +0.000 C 
ATOM     14  C   UNL     1      -5.544  13.576  22.701  0.00  0.00    +0.000 C 
ATOM     15  O   UNL     1      -5.049  12.759  23.754  0.00  0.00    +0.000 OA
ATOM     16  C   UNL     1      -3.638  12.861  23.894  0.00  0.00    +0.000 C 
ATOM     17  C   UNL     1      -2.979  12.235  22.663  0.00  0.00    +0.000 C 
ENDROOT
BRANCH   8  18
ATOM     18  C   UNL     1       0.187   9.657  20.791  0.00  0.00    +0.000 C 
BRANCH  18  19
ATOM     19  C   UNL     1       1.129   8.919  19.859  0.00  0.00    +0.000 A 
ATOM     20  C   UNL     1       1.376   9.411  18.567  0.00  0.00    +0.000 A 
ATOM     21  C   UNL     1       2.230   8.722  17.697  0.00  0.00    +0.000 A 
ATOM     22  C   UNL     1       2.832   7.534  18.110  0.00  0.00    +0.000 A 
ATOM     23  C   UNL     1       2.598   7.039  19.389  0.00  0.00    +0.000 A 
ATOM     24  C   UNL     1       1.753   7.731  20.259  0.00  0.00    +0.000 A 
ENDBRANCH  18  19
BRANCH  18  25
ATOM     25  O   UNL     1       0.290   9.057  22.082  0.00  0.00    +0.000 OA
ATOM     26  H   UNL     1       1.160   9.293  22.444  0.00  0.00    +0.000 HD
ENDBRANCH  18  25
ENDBRANCH   8  18
TORSDOF 3
ENDMDL
MODEL 5
REMARK VINA RESULT:      -6.3      4.360      5.800
REMARK  Name = 
REMARK  4 active torsions:
REMARK  status: ('A' for Active; 'I' for Inactive)
REMARK    1  A    between atoms: C_1  and  C_2
REMARK    2  A    between atoms: C_8  and  C_10
REMARK    3  A    between atoms: C_10  and  O_11
REMARK    4  A    between atoms: C_10  and  C_12
REMARK                            x       y       z     vdW  Elec       q    Type
REMARK                         _______ _______ _______ _____ _____    ______ ____
ROOT
ATOM      1  C   UNL     1      -0.775  11.138  22.736  0.00  0.00    +0.000 C 
ATOM      2  C   UNL     1      -0.919  11.311  21.237  0.00  0.00    +0.000 C 
ATOM      3  O   UNL     1      -1.419  12.351  20.810  0.00  0.00    +0.000 OA
ATOM      4  N   UNL     1      -0.475  10.266  20.419  0.00  0.00    +0.000 N 
ATOM      5  C   UNL     1      -0.111   8.962  21.045  0.00  0.00    +0.000 C 
ATOM      6  C   UNL     1       1.397   8.715  21.100  0.00  0.00    +0.000 C 
ATOM      7  N   UNL     1       1.879   8.243  19.807  0.00  0.00    +0.000 N 
ATOM      8  C   UNL     1       1.888   6.864  19.571  0.00  0.00    +0.000 C 
ATOM      9  O   UNL     1       1.462   6.088  20.431  0.00  0.00    +0.000 OA
ATOM     10  C   UNL     1       2.263   9.245  18.839  0.00  0.00    +0.000 C 
ATOM     11  C   UNL     1       1.389  10.491  18.765  0.00  0.00    +0.000 C 
ATOM     12  C   UNL     1      -0.175  10.452  18.925  0.00  0.00    +0.000 C 
ATOM     13  C   UNL     1      -0.583  11.834  18.275  0.00  0.00    +0.000 C 
ATOM     14  C   UNL     1      -1.997  12.008  17.734  0.00  0.00    +0.000 C 
ATOM     15  O   UNL     1      -2.526  10.830  17.139  0.00  0.00    +0.000 OA
ATOM     16  C   UNL     1      -2.387   9.695  17.984  0.00  0.00    +0.000 C 
ATOM     17  C   UNL     1      -0.901   9.356  18.106  0.00  0.00    +0.000 C 
ENDROOT
BRANCH   8  18
ATOM     18  C   UNL     1       2.446   6.362  18.203  0.00  0.00    +0.000 C 
BRANCH  18  19
ATOM     19  C   UNL     1       3.953   6.196  18.199  0.00  0.00    +0.000 A 
ATOM     20  C   UNL     1       4.581   5.400  19.171  0.00  0.00    +0.000 A 
ATOM     21  C   UNL     1       5.974   5.259  19.182  0.00  0.00    +0.000 A 
ATOM     22  C   UNL     1       6.748   5.921  18.229  0.00  0.00    +0.000 A 
ATOM     23  C   UNL     1       6.137   6.709  17.259  0.00  0.00    +0.000 A 
ATOM     24  C   UNL     1       4.747   6.841  17.243  0.00  0.00    +0.000 A 
ENDBRANCH  18  19
BRANCH  18  25
ATOM     25  O   UNL     1       1.869   5.124  17.788  0.00  0.00    +0.000 OA
ATOM     26  H   UNL     1       1.086   5.332  17.253  0.00  0.00    +0.000 HD
ENDBRANCH  18  25
ENDBRANCH   8  18
TORSDOF 3
ENDMDL
MODEL 6
REMARK VINA RESULT:      -6.2      3.505      4.823
REMARK  Name = 
REMARK  4 active torsions:
REMARK  status: ('A' for Active; 'I' for Inactive)
REMARK    1  A    between atoms: C_1  and  C_2
REMARK    2  A    between atoms: C_8  and  C_10
REMARK    3  A    between atoms: C_10  and  O_11
REMARK    4  A    between atoms: C_10  and  C_12
REMARK                            x       y       z     vdW  Elec       q    Type
REMARK                         _______ _______ _______ _____ _____    ______ ____
ROOT
ATOM      1  C   UNL     1      -1.638  16.987  20.532  0.00  0.00    +0.000 C 
ATOM      2  C   UNL     1      -2.644  15.976  21.046  0.00  0.00    +0.000 C 
ATOM      3  O   UNL     1      -3.808  16.337  21.215  0.00  0.00    +0.000 OA
ATOM      4  N   UNL     1      -2.184  14.679  21.304  0.00  0.00    +0.000 N 
ATOM      5  C   UNL     1      -0.716  14.417  21.294  0.00  0.00    +0.000 C 
ATOM      6  C   UNL     1      -0.244  13.656  20.054  0.00  0.00    +0.000 C 
ATOM      7  N   UNL     1      -0.510  12.230  20.206  0.00  0.00    +0.000 N 
ATOM      8  C   UNL     1       0.478  11.434  20.794  0.00  0.00    +0.000 C 
ATOM      9  O   UNL     1       1.523  11.950  21.201  0.00  0.00    +0.000 OA
ATOM     10  C   UNL     1      -1.807  11.752  19.782  0.00  0.00    +0.000 C 
ATOM     11  C   UNL     1      -2.999  12.648  20.092  0.00  0.00    +0.000 C 
ATOM     12  C   UNL     1      -3.127  13.473  21.425  0.00  0.00    +0.000 C 
ATOM     13  C   UNL     1      -4.679  13.772  21.451  0.00  0.00    +0.000 C 
ATOM     14  C   UNL     1      -5.350  14.084  22.785  0.00  0.00    +0.000 C 
ATOM     15  O   UNL     1      -4.811  13.348  23.875  0.00  0.00    +0.000 OA
ATOM     16  C   UNL     1      -3.393  13.433  23.931  0.00  0.00    +0.000 C 
ATOM     17  C   UNL     1      -2.812  12.692  22.725  0.00  0.00    +0.000 C 
ENDROOT
BRANCH   8  18
ATOM     18  C   UNL     1       0.206   9.902  20.914  0.00  0.00    +0.000 C 
BRANCH  18  19
ATOM     19  C   UNL     1       1.051   9.072  19.968  0.00  0.00    +0.000 A 
ATOM     20  C   UNL     1       1.630   7.869  20.404  0.00  0.00    +0.000 A 
ATOM     21  C   UNL     1       2.427   7.110  19.538  0.00  0.00    +0.000 A 
ATOM     22  C   UNL     1       2.657   7.552  18.237  0.00  0.00    +0.000 A 
ATOM     23  C   UNL     1       2.086   8.741  17.791  0.00  0.00    +0.000 A 
ATOM     24  C   UNL     1       1.284   9.493  18.652  0.00  0.00    +0.000 A 
ENDBRANCH  18  19
BRANCH  18  25
ATOM     25  O   UNL     1       0.411   9.403  22.235  0.00  0.00    +0.000 OA
ATOM     26  H   UNL     1       0.104   8.482  22.249  0.00  0.00    +0.000 HD
ENDBRANCH  18  25
ENDBRANCH   8  18
TORSDOF 3
ENDMDL
MODEL 7
REMARK VINA RESULT:      -6.0      2.418      3.835
REMARK  Name = 
REMARK  4 active torsions:
REMARK  status: ('A' for Active; 'I' for Inactive)
REMARK    1  A    between atoms: C_1  and  C_2
REMARK    2  A    between atoms: C_8  and  C_10
REMARK    3  A    between atoms: C_10  and  O_11
REMARK    4  A    between atoms: C_10  and  C_12
REMARK                            x       y       z     vdW  Elec       q    Type
REMARK                         _______ _______ _______ _____ _____    ______ ____
ROOT
ATOM      1  C   UNL     1      -3.942  14.007  20.835  0.00  0.00    +0.000 C 
ATOM      2  C   UNL     1      -2.530  14.552  20.915  0.00  0.00    +0.000 C 
ATOM      3  O   UNL     1      -2.339  15.605  21.522  0.00  0.00    +0.000 OA
ATOM      4  N   UNL     1      -1.517  13.821  20.283  0.00  0.00    +0.000 N 
ATOM      5  C   UNL     1      -1.892  12.696  19.379  0.00  0.00    +0.000 C 
ATOM      6  C   UNL     1      -1.636  11.317  19.988  0.00  0.00    +0.000 C 
ATOM      7  N   UNL     1      -0.227  10.964  19.862  0.00  0.00    +0.000 N 
ATOM      8  C   UNL     1       0.182  10.284  18.710  0.00  0.00    +0.000 C 
ATOM      9  O   UNL     1      -0.636  10.031  17.820  0.00  0.00    +0.000 OA
ATOM     10  C   UNL     1       0.659  11.394  20.920  0.00  0.00    +0.000 C 
ATOM     11  C   UNL     1       0.411  12.783  21.495  0.00  0.00    +0.000 C 
ATOM     12  C   UNL     1      -0.029  14.009  20.614  0.00  0.00    +0.000 C 
ATOM     13  C   UNL     1       0.352  15.217  21.560  0.00  0.00    +0.000 C 
ATOM     14  C   UNL     1       0.596  16.590  20.945  0.00  0.00    +0.000 C 
ATOM     15  O   UNL     1       1.228  16.537  19.673  0.00  0.00    +0.000 OA
ATOM     16  C   UNL     1       0.576  15.636  18.787  0.00  0.00    +0.000 C 
ATOM     17  C   UNL     1       0.776  14.211  19.306  0.00  0.00    +0.000 C 
ENDROOT
BRANCH   8  18
ATOM     18  C   UNL     1       1.682   9.869  18.601  0.00  0.00    +0.000 C 
BRANCH  18  19
ATOM     19  C   UNL     1       1.919   8.404  18.910  0.00  0.00    +0.000 A 
ATOM     20  C   UNL     1       1.661   7.900  20.196  0.00  0.00    +0.000 A 
ATOM     21  C   UNL     1       1.897   6.551  20.490  0.00  0.00    +0.000 A 
ATOM     22  C   UNL     1       2.400   5.702  19.505  0.00  0.00    +0.000 A 
ATOM     23  C   UNL     1       2.656   6.188  18.227  0.00  0.00    +0.000 A 
ATOM     24  C   UNL     1       2.412   7.531  17.932  0.00  0.00    +0.000 A 
ENDBRANCH  18  19
BRANCH  18  25
ATOM     25  O   UNL     1       2.241  10.140  17.316  0.00  0.00    +0.000 OA
ATOM     26  H   UNL     1       3.078  10.613  17.456  0.00  0.00    +0.000 HD
ENDBRANCH  18  25
ENDBRANCH   8  18
TORSDOF 3
ENDMDL
MODEL 8
REMARK VINA RESULT:      -6.0      7.033      8.796
REMARK  Name = 
REMARK  4 active torsions:
REMARK  status: ('A' for Active; 'I' for Inactive)
REMARK    1  A    between atoms: C_1  and  C_2
REMARK    2  A    between atoms: C_8  and  C_10
REMARK    3  A    between atoms: C_10  and  O_11
REMARK    4  A    between atoms: C_10  and  C_12
REMARK                            x       y       z     vdW  Elec       q    Type
REMARK                         _______ _______ _______ _____ _____    ______ ____
ROOT
ATOM      1  C   UNL     1       7.484  17.070  18.317  0.00  0.00    +0.000 C 
ATOM      2  C   UNL     1       8.573  16.016  18.270  0.00  0.00    +0.000 C 
ATOM      3  O   UNL     1       9.423  16.087  17.384  0.00  0.00    +0.000 OA
ATOM      4  N   UNL     1       8.544  15.012  19.245  0.00  0.00    +0.000 N 
ATOM      5  C   UNL     1       7.341  14.885  20.118  0.00  0.00    +0.000 C 
ATOM      6  C   UNL     1       7.572  15.384  21.545  0.00  0.00    +0.000 C 
ATOM      7  N   UNL     1       8.263  14.367  22.329  0.00  0.00    +0.000 N 
ATOM      8  C   UNL     1       7.489  13.430  23.021  0.00  0.00    +0.000 C 
ATOM      9  O   UNL     1       6.258  13.456  22.927  0.00  0.00    +0.000 OA
ATOM     10  C   UNL     1       9.708  14.372  22.289  0.00  0.00    +0.000 C 
ATOM     11  C   UNL     1      10.352  14.667  20.940  0.00  0.00    +0.000 C 
ATOM     12  C   UNL     1       9.766  14.144  19.578  0.00  0.00    +0.000 C 
ATOM     13  C   UNL     1      11.025  14.279  18.632  0.00  0.00    +0.000 C 
ATOM     14  C   UNL     1      11.101  13.422  17.374  0.00  0.00    +0.000 C 
ATOM     15  O   UNL     1      10.550  12.122  17.539  0.00  0.00    +0.000 OA
ATOM     16  C   UNL     1       9.249  12.160  18.111  0.00  0.00    +0.000 C 
ATOM     17  C   UNL     1       9.365  12.647  19.556  0.00  0.00    +0.000 C 
ENDROOT
BRANCH   8  18
ATOM     18  C   UNL     1       8.233  12.372  23.895  0.00  0.00    +0.000 C 
BRANCH  18  19
ATOM     19  C   UNL     1       7.627  12.207  25.275  0.00  0.00    +0.000 A 
ATOM     20  C   UNL     1       6.657  11.219  25.510  0.00  0.00    +0.000 A 
ATOM     21  C   UNL     1       6.082  11.077  26.779  0.00  0.00    +0.000 A 
ATOM     22  C   UNL     1       6.465  11.927  27.815  0.00  0.00    +0.000 A 
ATOM     23  C   UNL     1       7.428  12.907  27.596  0.00  0.00    +0.000 A 
ATOM     24  C   UNL     1       8.008  13.042  26.333  0.00  0.00    +0.000 A 
ENDBRANCH  18  19
BRANCH  18  25
ATOM     25  O   UNL     1       8.284  11.083  23.283  0.00  0.00    +0.000 OA
ATOM     26  H   UNL     1       7.374  10.834  23.054  0.00  0.00    +0.000 HD
ENDBRANCH  18  25
ENDBRANCH   8  18
TORSDOF 3
ENDMDL
MODEL 9
REMARK VINA RESULT:      -6.0      7.129      9.015
REMARK  Name = 
REMARK  4 active torsions:
REMARK  status: ('A' for Active; 'I' for Inactive)
REMARK    1  A    between atoms: C_1  and  C_2
REMARK    2  A    between atoms: C_8  and  C_10
REMARK    3  A    between atoms: C_10  and  O_11
REMARK    4  A    between atoms: C_10  and  C_12
REMARK                            x       y       z     vdW  Elec       q    Type
REMARK                         _______ _______ _______ _____ _____    ______ ____
ROOT
ATOM      1  C   UNL     1       8.118  15.877  17.913  0.00  0.00    +0.000 C 
ATOM      2  C   UNL     1       9.280  15.052  18.431  0.00  0.00    +0.000 C 
ATOM      3  O   UNL     1      10.357  15.115  17.840  0.00  0.00    +0.000 OA
ATOM      4  N   UNL     1       9.056  14.256  19.561  0.00  0.00    +0.000 N 
ATOM      5  C   UNL     1       7.659  14.071  20.050  0.00  0.00    +0.000 C 
ATOM      6  C   UNL     1       7.354  14.857  21.326  0.00  0.00    +0.000 C 
ATOM      7  N   UNL     1       7.869  14.148  22.491  0.00  0.00    +0.000 N 
ATOM      8  C   UNL     1       7.030  13.226  23.126  0.00  0.00    +0.000 C 
ATOM      9  O   UNL     1       5.902  13.007  22.675  0.00  0.00    +0.000 OA
ATOM     10  C   UNL     1       9.238  14.412  22.873  0.00  0.00    +0.000 C 
ATOM     11  C   UNL     1      10.244  14.569  21.740  0.00  0.00    +0.000 C 
ATOM     12  C   UNL     1      10.198  13.705  20.427  0.00  0.00    +0.000 C 
ATOM     13  C   UNL     1      11.670  13.896  19.884  0.00  0.00    +0.000 C 
ATOM     14  C   UNL     1      12.251  12.851  18.937  0.00  0.00    +0.000 C 
ATOM     15  O   UNL     1      11.834  11.525  19.233  0.00  0.00    +0.000 OA
ATOM     16  C   UNL     1      10.423  11.426  19.376  0.00  0.00    +0.000 C 
ATOM     17  C   UNL     1      10.006  12.183  20.638  0.00  0.00    +0.000 C 
ENDROOT
BRANCH   8  18
ATOM     18  C   UNL     1       7.571  12.503  24.399  0.00  0.00    +0.000 C 
BRANCH  18  19
ATOM     19  C   UNL     1       6.515  12.316  25.471  0.00  0.00    +0.000 A 
ATOM     20  C   UNL     1       5.927  11.057  25.675  0.00  0.00    +0.000 A 
ATOM     21  C   UNL     1       4.938  10.885  26.652  0.00  0.00    +0.000 A 
ATOM     22  C   UNL     1       4.525  11.972  27.422  0.00  0.00    +0.000 A 
ATOM     23  C   UNL     1       5.103  13.223  27.231  0.00  0.00    +0.000 A 
ATOM     24  C   UNL     1       6.095  13.392  26.263  0.00  0.00    +0.000 A 
ENDBRANCH  18  19
BRANCH  18  25
ATOM     25  O   UNL     1       8.135  11.223  24.113  0.00  0.00    +0.000 OA
ATOM     26  H   UNL     1       8.794  11.035  24.800  0.00  0.00    +0.000 HD
ENDBRANCH  18  25
ENDBRANCH   8  18
TORSDOF 3
ENDMDL
