MODEL 1
REMARK VINA RESULT:      -8.3      0.000      0.000
REMARK  Name = 
REMARK  5 active torsions:
REMARK  status: ('A' for Active; 'I' for Inactive)
REMARK    1  A    between atoms: C_2  and  C_16
REMARK    2  A    between atoms: N_3  and  C_4
REMARK    3  A    between atoms: C_7  and  C_8
REMARK    4  A    between atoms: C_8  and  N_9
REMARK    5  A    between atoms: C_19  and  N_20
REMARK                            x       y       z     vdW  Elec       q    Type
REMARK                         _______ _______ _______ _____ _____    ______ ____
ROOT
ATOM      1  O   UNL     1      -0.675  10.216  19.256  0.00  0.00    +0.000 OA
ATOM      2  C   UNL     1       0.346  10.002  19.898  0.00  0.00    +0.000 C 
ATOM      3  N   UNL     1       0.707  10.692  21.076  0.00  0.00    +0.000 N 
ATOM      4  H   UNL     1       1.581  10.485  21.499  0.00  0.00    +0.000 HD
ENDROOT
BRANCH   3   5
ATOM      5  C   UNL     1      -0.090  11.696  21.753  0.00  0.00    +0.000 A 
ATOM      6  C   UNL     1       0.109  13.083  21.657  0.00  0.00    +0.000 A 
ATOM      7  C   UNL     1      -0.693  14.013  22.374  0.00  0.00    +0.000 A 
ATOM      8  C   UNL     1      -1.740  13.587  23.203  0.00  0.00    +0.000 A 
ATOM      9  C   UNL     1      -1.969  12.206  23.271  0.00  0.00    +0.000 A 
ATOM     10  C   UNL     1      -1.161  11.282  22.565  0.00  0.00    +0.000 A 
BRANCH   8  11
ATOM     11  C   UNL     1      -2.521  14.557  24.086  0.00  0.00    +0.000 C 
BRANCH  11  12
ATOM     12  N   UNL     1      -3.757  15.159  23.588  0.00  0.00    +0.000 NA
ATOM     13  C   UNL     1      -5.000  14.454  23.863  0.00  0.00    +0.000 C 
ATOM     14  C   UNL     1      -5.403  13.829  22.543  0.00  0.00    +0.000 C 
ATOM     15  C   UNL     1      -4.856  14.778  21.493  0.00  0.00    +0.000 C 
ATOM     16  C   UNL     1      -3.760  15.574  22.190  0.00  0.00    +0.000 C 
ENDBRANCH  11  12
ENDBRANCH   8  11
ENDBRANCH   3   5
BRANCH   2  17
ATOM     17  C   UNL     1       1.258   8.889  19.379  0.00  0.00    +0.000 A 
ATOM     18  C   UNL     1       1.800   8.865  18.104  0.00  0.00    +0.000 A 
ATOM     19  C   UNL     1       2.692   7.821  17.755  0.00  0.00    +0.000 A 
ATOM     20  C   UNL     1       3.104   6.792  18.669  0.00  0.00    +0.000 A 
ATOM     21  C   UNL     1       2.437   6.731  19.878  0.00  0.00    +0.000 A 
ATOM     22  C   UNL     1       1.546   7.797  20.226  0.00  0.00    +0.000 A 
BRANCH  20  23
ATOM     23  N   UNL     1       4.310   6.067  18.331  0.00  0.00    +0.000 N 
ATOM     24  C   UNL     1       4.722   5.125  19.258  0.00  0.00    +0.000 A 
ATOM     25  N   UNL     1       5.996   4.877  19.206  0.00  0.00    +0.000 NA
ATOM     26  C   UNL     1       6.234   5.086  17.890  0.00  0.00    +0.000 A 
ATOM     27  C   UNL     1       7.327   4.540  17.207  0.00  0.00    +0.000 A 
ATOM     28  C   UNL     1       7.292   4.496  15.816  0.00  0.00    +0.000 A 
ATOM     29  C   UNL     1       6.223   5.113  15.152  0.00  0.00    +0.000 A 
ATOM     30  C   UNL     1       5.161   5.801  15.837  0.00  0.00    +0.000 A 
ATOM     31  C   UNL     1       5.155   5.733  17.241  0.00  0.00    +0.000 A 
ENDBRANCH  20  23
ENDBRANCH   2  17
TORSDOF 5
ENDMDL
MODEL 2
REMARK VINA RESULT:      -8.1      7.356      9.625
REMARK  Name = 
REMARK  5 active torsions:
REMARK  status: ('A' for Active; 'I' for Inactive)
REMARK    1  A    between atoms: C_2  and  C_16
REMARK    2  A    between atoms: N_3  and  C_4
REMARK    3  A    between atoms: C_7  and  C_8
REMARK    4  A    between atoms: C_8  and  N_9
REMARK    5  A    between atoms: C_19  and  N_20
REMARK                            x       y       z     vdW  Elec       q    Type
REMARK                         _______ _______ _______ _____ _____    ______ ____
ROOT
ATOM      1  O   UNL     1       8.618   8.851  16.846  0.00  0.00    +0.000 OA
ATOM      2  C   UNL     1       8.322   8.492  17.980  0.00  0.00    +0.000 C 
ATOM      3  N   UNL     1       8.729   9.154  19.158  0.00  0.00    +0.000 N 
ATOM      4  H   UNL     1       8.483   8.758  20.035  0.00  0.00    +0.000 HD
ENDROOT
BRANCH   3   5
ATOM      5  C   UNL     1       9.487  10.389  19.223  0.00  0.00    +0.000 A 
ATOM      6  C   UNL     1      10.080  10.911  20.383  0.00  0.00    +0.000 A 
ATOM      7  C   UNL     1      10.785  12.146  20.382  0.00  0.00    +0.000 A 
ATOM      8  C   UNL     1      10.937  12.898  19.209  0.00  0.00    +0.000 A 
ATOM      9  C   UNL     1      10.381  12.362  18.039  0.00  0.00    +0.000 A 
ATOM     10  C   UNL     1       9.670  11.138  18.047  0.00  0.00    +0.000 A 
BRANCH   8  11
ATOM     11  C   UNL     1      11.567  14.288  19.213  0.00  0.00    +0.000 C 
BRANCH  11  12
ATOM     12  N   UNL     1      10.711  15.474  19.181  0.00  0.00    +0.000 NA
ATOM     13  C   UNL     1       9.541  15.475  20.047  0.00  0.00    +0.000 C 
ATOM     14  C   UNL     1       8.361  15.254  19.123  0.00  0.00    +0.000 C 
ATOM     15  C   UNL     1       8.788  15.880  17.809  0.00  0.00    +0.000 C 
ATOM     16  C   UNL     1      10.309  15.949  17.862  0.00  0.00    +0.000 C 
ENDBRANCH  11  12
ENDBRANCH   8  11
ENDBRANCH   3   5
BRANCH   2  17
ATOM     17  C   UNL     1       7.429   7.255  18.092  0.00  0.00    +0.000 A 
ATOM     18  C   UNL     1       7.653   6.218  18.982  0.00  0.00    +0.000 A 
ATOM     19  C   UNL     1       6.716   5.156  19.050  0.00  0.00    +0.000 A 
ATOM     20  C   UNL     1       5.512   5.109  18.268  0.00  0.00    +0.000 A 
ATOM     21  C   UNL     1       5.380   6.059  17.272  0.00  0.00    +0.000 A 
ATOM     22  C   UNL     1       6.325   7.134  17.220  0.00  0.00    +0.000 A 
BRANCH  20  23
ATOM     23  N   UNL     1       4.469   4.222  18.734  0.00  0.00    +0.000 N 
ATOM     24  C   UNL     1       4.867   2.925  19.014  0.00  0.00    +0.000 A 
ATOM     25  N   UNL     1       3.901   2.061  18.925  0.00  0.00    +0.000 NA
ATOM     26  C   UNL     1       2.848   2.833  19.284  0.00  0.00    +0.000 A 
ATOM     27  C   UNL     1       1.647   2.314  19.782  0.00  0.00    +0.000 A 
ATOM     28  C   UNL     1       0.781   3.169  20.459  0.00  0.00    +0.000 A 
ATOM     29  C   UNL     1       1.086   4.536  20.505  0.00  0.00    +0.000 A 
ATOM     30  C   UNL     1       2.249   5.105  19.877  0.00  0.00    +0.000 A 
ATOM     31  C   UNL     1       3.167   4.211  19.299  0.00  0.00    +0.000 A 
ENDBRANCH  20  23
ENDBRANCH   2  17
TORSDOF 5
ENDMDL
MODEL 3
REMARK VINA RESULT:      -8.1      7.822      9.941
REMARK  Name = 
REMARK  5 active torsions:
REMARK  status: ('A' for Active; 'I' for Inactive)
REMARK    1  A    between atoms: C_2  and  C_16
REMARK    2  A    between atoms: N_3  and  C_4
REMARK    3  A    between atoms: C_7  and  C_8
REMARK    4  A    between atoms: C_8  and  N_9
REMARK    5  A    between atoms: C_19  and  N_20
REMARK                            x       y       z     vdW  Elec       q    Type
REMARK                         _______ _______ _______ _____ _____    ______ ____
ROOT
ATOM      1  O   UNL     1       8.321   8.948  16.827  0.00  0.00    +0.000 OA
ATOM      2  C   UNL     1       8.110   8.444  17.924  0.00  0.00    +0.000 C 
ATOM      3  N   UNL     1       8.630   8.935  19.141  0.00  0.00    +0.000 N 
ATOM      4  H   UNL     1       8.447   8.429  19.975  0.00  0.00    +0.000 HD
ENDROOT
BRANCH   3   5
ATOM      5  C   UNL     1       9.424  10.138  19.304  0.00  0.00    +0.000 A 
ATOM      6  C   UNL     1       9.638  10.804  20.522  0.00  0.00    +0.000 A 
ATOM      7  C   UNL     1      10.404  11.999  20.605  0.00  0.00    +0.000 A 
ATOM      8  C   UNL     1      11.001  12.564  19.470  0.00  0.00    +0.000 A 
ATOM      9  C   UNL     1      10.823  11.882  18.259  0.00  0.00    +0.000 A 
ATOM     10  C   UNL     1      10.051  10.699  18.177  0.00  0.00    +0.000 A 
BRANCH   8  11
ATOM     11  C   UNL     1      11.707  13.916  19.514  0.00  0.00    +0.000 C 
BRANCH  11  12
ATOM     12  N   UNL     1      10.919  15.146  19.588  0.00  0.00    +0.000 NA
ATOM     13  C   UNL     1       9.721  15.221  18.765  0.00  0.00    +0.000 C 
ATOM     14  C   UNL     1      10.079  16.152  17.625  0.00  0.00    +0.000 C 
ATOM     15  C   UNL     1      11.094  17.108  18.223  0.00  0.00    +0.000 C 
ATOM     16  C   UNL     1      11.653  16.398  19.450  0.00  0.00    +0.000 C 
ENDBRANCH  11  12
ENDBRANCH   8  11
ENDBRANCH   3   5
BRANCH   2  17
ATOM     17  C   UNL     1       7.196   7.218  17.946  0.00  0.00    +0.000 A 
ATOM     18  C   UNL     1       7.355   6.150  18.814  0.00  0.00    +0.000 A 
ATOM     19  C   UNL     1       6.403   5.101  18.796  0.00  0.00    +0.000 A 
ATOM     20  C   UNL     1       5.244   5.096  17.946  0.00  0.00    +0.000 A 
ATOM     21  C   UNL     1       5.181   6.078  16.976  0.00  0.00    +0.000 A 
ATOM     22  C   UNL     1       6.141   7.140  17.010  0.00  0.00    +0.000 A 
BRANCH  20  23
ATOM     23  N   UNL     1       4.165   4.210  18.325  0.00  0.00    +0.000 N 
ATOM     24  C   UNL     1       4.162   2.972  17.705  0.00  0.00    +0.000 A 
ATOM     25  N   UNL     1       2.983   2.428  17.651  0.00  0.00    +0.000 NA
ATOM     26  C   UNL     1       2.429   2.930  18.780  0.00  0.00    +0.000 A 
ATOM     27  C   UNL     1       1.347   2.334  19.438  0.00  0.00    +0.000 A 
ATOM     28  C   UNL     1       1.088   2.694  20.758  0.00  0.00    +0.000 A 
ATOM     29  C   UNL     1       1.841   3.727  21.333  0.00  0.00    +0.000 A 
ATOM     30  C   UNL     1       2.866   4.444  20.621  0.00  0.00    +0.000 A 
ATOM     31  C   UNL     1       3.189   3.989  19.331  0.00  0.00    +0.000 A 
ENDBRANCH  20  23
ENDBRANCH   2  17
TORSDOF 5
ENDMDL
MODEL 4
REMARK VINA RESULT:      -8.1      1.336      1.988
REMARK  Name = 
REMARK  5 active torsions:
REMARK  status: ('A' for Active; 'I' for Inactive)
REMARK    1  A    between atoms: C_2  and  C_16
REMARK    2  A    between atoms: N_3  and  C_4
REMARK    3  A    between atoms: C_7  and  C_8
REMARK    4  A    between atoms: C_8  and  N_9
REMARK    5  A    between atoms: C_19  and  N_20
REMARK                            x       y       z     vdW  Elec       q    Type
REMARK                         _______ _______ _______ _____ _____    ______ ____
ROOT
ATOM      1  O   UNL     1      -1.329  10.565  19.460  0.00  0.00    +0.000 OA
ATOM      2  C   UNL     1      -0.360  10.412  20.193  0.00  0.00    +0.000 C 
ATOM      3  N   UNL     1      -0.190  11.058  21.437  0.00  0.00    +0.000 N 
ATOM      4  H   UNL     1       0.655  10.911  21.938  0.00  0.00    +0.000 HD
ENDROOT
BRANCH   3   5
ATOM      5  C   UNL     1      -1.150  11.936  22.078  0.00  0.00    +0.000 A 
ATOM      6  C   UNL     1      -2.093  11.536  23.038  0.00  0.00    +0.000 A 
ATOM      7  C   UNL     1      -3.027  12.446  23.606  0.00  0.00    +0.000 A 
ATOM      8  C   UNL     1      -3.039  13.800  23.243  0.00  0.00    +0.000 A 
ATOM      9  C   UNL     1      -2.074  14.213  22.314  0.00  0.00    +0.000 A 
ATOM     10  C   UNL     1      -1.153  13.302  21.743  0.00  0.00    +0.000 A 
BRANCH   8  11
ATOM     11  C   UNL     1      -4.119  14.761  23.733  0.00  0.00    +0.000 C 
BRANCH  11  12
ATOM     12  N   UNL     1      -5.443  14.743  23.112  0.00  0.00    +0.000 NA
ATOM     13  C   UNL     1      -6.540  14.194  23.896  0.00  0.00    +0.000 C 
ATOM     14  C   UNL     1      -6.824  12.836  23.287  0.00  0.00    +0.000 C 
ATOM     15  C   UNL     1      -6.456  12.995  21.823  0.00  0.00    +0.000 C 
ATOM     16  C   UNL     1      -5.521  14.196  21.762  0.00  0.00    +0.000 C 
ENDBRANCH  11  12
ENDBRANCH   8  11
ENDBRANCH   3   5
BRANCH   2  17
ATOM     17  C   UNL     1       0.708   9.427  19.715  0.00  0.00    +0.000 A 
ATOM     18  C   UNL     1       1.221   8.404  20.495  0.00  0.00    +0.000 A 
ATOM     19  C   UNL     1       2.155   7.504  19.922  0.00  0.00    +0.000 A 
ATOM     20  C   UNL     1       2.577   7.567  18.551  0.00  0.00    +0.000 A 
ATOM     21  C   UNL     1       2.188   8.680  17.831  0.00  0.00    +0.000 A 
ATOM     22  C   UNL     1       1.235   9.577  18.414  0.00  0.00    +0.000 A 
BRANCH  20  23
ATOM     23  N   UNL     1       3.176   6.370  18.001  0.00  0.00    +0.000 N 
ATOM     24  C   UNL     1       2.406   5.222  18.086  0.00  0.00    +0.000 A 
ATOM     25  N   UNL     1       3.110   4.130  18.077  0.00  0.00    +0.000 NA
ATOM     26  C   UNL     1       4.159   4.520  17.314  0.00  0.00    +0.000 A 
ATOM     27  C   UNL     1       4.984   3.625  16.622  0.00  0.00    +0.000 A 
ATOM     28  C   UNL     1       5.783   4.114  15.592  0.00  0.00    +0.000 A 
ATOM     29  C   UNL     1       5.823   5.497  15.371  0.00  0.00    +0.000 A 
ATOM     30  C   UNL     1       5.085   6.443  16.166  0.00  0.00    +0.000 A 
ATOM     31  C   UNL     1       4.199   5.922  17.124  0.00  0.00    +0.000 A 
ENDBRANCH  20  23
ENDBRANCH   2  17
TORSDOF 5
ENDMDL
MODEL 5
REMARK VINA RESULT:      -8.0      0.537      1.184
REMARK  Name = 
REMARK  5 active torsions:
REMARK  status: ('A' for Active; 'I' for Inactive)
REMARK    1  A    between atoms: C_2  and  C_16
REMARK    2  A    between atoms: N_3  and  C_4
REMARK    3  A    between atoms: C_7  and  C_8
REMARK    4  A    between atoms: C_8  and  N_9
REMARK    5  A    between atoms: C_19  and  N_20
REMARK                            x       y       z     vdW  Elec       q    Type
REMARK                         _______ _______ _______ _____ _____    ______ ____
ROOT
ATOM      1  O   UNL     1      -0.734  10.079  19.354  0.00  0.00    +0.000 OA
ATOM      2  C   UNL     1       0.279   9.854  20.006  0.00  0.00    +0.000 C 
ATOM      3  N   UNL     1       0.610  10.502  21.216  0.00  0.00    +0.000 N 
ATOM      4  H   UNL     1       1.479  10.290  21.647  0.00  0.00    +0.000 HD
ENDROOT
BRANCH   3   5
ATOM      5  C   UNL     1      -0.213  11.469  21.917  0.00  0.00    +0.000 A 
ATOM      6  C   UNL     1      -1.235  11.151  22.825  0.00  0.00    +0.000 A 
ATOM      7  C   UNL     1      -2.025  12.151  23.455  0.00  0.00    +0.000 A 
ATOM      8  C   UNL     1      -1.809  13.514  23.210  0.00  0.00    +0.000 A 
ATOM      9  C   UNL     1      -0.763  13.839  22.335  0.00  0.00    +0.000 A 
ATOM     10  C   UNL     1       0.014  12.840  21.701  0.00  0.00    +0.000 A 
BRANCH   8  11
ATOM     11  C   UNL     1      -2.732  14.594  23.765  0.00  0.00    +0.000 C 
BRANCH  11  12
ATOM     12  N   UNL     1      -4.157  14.571  23.437  0.00  0.00    +0.000 NA
ATOM     13  C   UNL     1      -4.516  14.410  22.036  0.00  0.00    +0.000 C 
ATOM     14  C   UNL     1      -4.980  15.779  21.583  0.00  0.00    +0.000 C 
ATOM     15  C   UNL     1      -5.572  16.408  22.831  0.00  0.00    +0.000 C 
ATOM     16  C   UNL     1      -4.972  15.641  24.002  0.00  0.00    +0.000 C 
ENDBRANCH  11  12
ENDBRANCH   8  11
ENDBRANCH   3   5
BRANCH   2  17
ATOM     17  C   UNL     1       1.214   8.773  19.461  0.00  0.00    +0.000 A 
ATOM     18  C   UNL     1       1.776   8.804  18.195  0.00  0.00    +0.000 A 
ATOM     19  C   UNL     1       2.688   7.785  17.822  0.00  0.00    +0.000 A 
ATOM     20  C   UNL     1       3.101   6.729  18.705  0.00  0.00    +0.000 A 
ATOM     21  C   UNL     1       2.417   6.614  19.900  0.00  0.00    +0.000 A 
ATOM     22  C   UNL     1       1.506   7.655  20.273  0.00  0.00    +0.000 A 
BRANCH  20  23
ATOM     23  N   UNL     1       4.322   6.034  18.359  0.00  0.00    +0.000 N 
ATOM     24  C   UNL     1       4.763   5.102  19.283  0.00  0.00    +0.000 A 
ATOM     25  N   UNL     1       6.042   4.885  19.224  0.00  0.00    +0.000 NA
ATOM     26  C   UNL     1       6.267   5.101  17.906  0.00  0.00    +0.000 A 
ATOM     27  C   UNL     1       7.369   4.582  17.217  0.00  0.00    +0.000 A 
ATOM     28  C   UNL     1       7.327   4.537  15.826  0.00  0.00    +0.000 A 
ATOM     29  C   UNL     1       6.240   5.128  15.169  0.00  0.00    +0.000 A 
ATOM     30  C   UNL     1       5.166   5.789  15.860  0.00  0.00    +0.000 A 
ATOM     31  C   UNL     1       5.169   5.721  17.264  0.00  0.00    +0.000 A 
ENDBRANCH  20  23
ENDBRANCH   2  17
TORSDOF 5
ENDMDL
MODEL 6
REMARK VINA RESULT:      -8.0      1.128      1.326
REMARK  Name = 
REMARK  5 active torsions:
REMARK  status: ('A' for Active; 'I' for Inactive)
REMARK    1  A    between atoms: C_2  and  C_16
REMARK    2  A    between atoms: N_3  and  C_4
REMARK    3  A    between atoms: C_7  and  C_8
REMARK    4  A    between atoms: C_8  and  N_9
REMARK    5  A    between atoms: C_19  and  N_20
REMARK                            x       y       z     vdW  Elec       q    Type
REMARK                         _______ _______ _______ _____ _____    ______ ____
ROOT
ATOM      1  O   UNL     1       0.750  11.699  19.144  0.00  0.00    +0.000 OA
ATOM      2  C   UNL     1       0.550  10.648  19.742  0.00  0.00    +0.000 C 
ATOM      3  N   UNL     1      -0.360  10.498  20.811  0.00  0.00    +0.000 N 
ATOM      4  H   UNL     1      -0.415   9.618  21.268  0.00  0.00    +0.000 HD
ENDROOT
BRANCH   3   5
ATOM      5  C   UNL     1      -1.249  11.522  21.322  0.00  0.00    +0.000 A 
ATOM      6  C   UNL     1      -2.252  12.165  20.578  0.00  0.00    +0.000 A 
ATOM      7  C   UNL     1      -3.071  13.185  21.135  0.00  0.00    +0.000 A 
ATOM      8  C   UNL     1      -2.926  13.590  22.469  0.00  0.00    +0.000 A 
ATOM      9  C   UNL     1      -1.953  12.925  23.228  0.00  0.00    +0.000 A 
ATOM     10  C   UNL     1      -1.132  11.918  22.667  0.00  0.00    +0.000 A 
BRANCH   8  11
ATOM     11  C   UNL     1      -3.696  14.775  23.045  0.00  0.00    +0.000 C 
BRANCH  11  12
ATOM     12  N   UNL     1      -4.859  14.540  23.899  0.00  0.00    +0.000 NA
ATOM     13  C   UNL     1      -5.369  13.179  23.971  0.00  0.00    +0.000 C 
ATOM     14  C   UNL     1      -6.643  13.188  23.150  0.00  0.00    +0.000 C 
ATOM     15  C   UNL     1      -7.178  14.600  23.300  0.00  0.00    +0.000 C 
ATOM     16  C   UNL     1      -5.987  15.448  23.726  0.00  0.00    +0.000 C 
ENDBRANCH  11  12
ENDBRANCH   8  11
ENDBRANCH   3   5
BRANCH   2  17
ATOM     17  C   UNL     1       1.335   9.429  19.256  0.00  0.00    +0.000 A 
ATOM     18  C   UNL     1       1.848   9.300  17.976  0.00  0.00    +0.000 A 
ATOM     19  C   UNL     1       2.624   8.157  17.657  0.00  0.00    +0.000 A 
ATOM     20  C   UNL     1       2.947   7.128  18.607  0.00  0.00    +0.000 A 
ATOM     21  C   UNL     1       2.299   7.183  19.827  0.00  0.00    +0.000 A 
ATOM     22  C   UNL     1       1.528   8.348  20.143  0.00  0.00    +0.000 A 
BRANCH  20  23
ATOM     23  N   UNL     1       4.066   6.272  18.281  0.00  0.00    +0.000 N 
ATOM     24  C   UNL     1       4.274   5.206  19.140  0.00  0.00    +0.000 A 
ATOM     25  N   UNL     1       5.504   4.785  19.149  0.00  0.00    +0.000 NA
ATOM     26  C   UNL     1       5.869   5.070  17.877  0.00  0.00    +0.000 A 
ATOM     27  C   UNL     1       6.929   4.434  17.219  0.00  0.00    +0.000 A 
ATOM     28  C   UNL     1       6.997   4.514  15.831  0.00  0.00    +0.000 A 
ATOM     29  C   UNL     1       6.077   5.330  15.159  0.00  0.00    +0.000 A 
ATOM     30  C   UNL     1       5.067   6.099  15.835  0.00  0.00    +0.000 A 
ATOM     31  C   UNL     1       4.942   5.915  17.223  0.00  0.00    +0.000 A 
ENDBRANCH  20  23
ENDBRANCH   2  17
TORSDOF 5
ENDMDL
MODEL 7
REMARK VINA RESULT:      -7.9      7.866     11.238
REMARK  Name = 
REMARK  5 active torsions:
REMARK  status: ('A' for Active; 'I' for Inactive)
REMARK    1  A    between atoms: C_2  and  C_16
REMARK    2  A    between atoms: N_3  and  C_4
REMARK    3  A    between atoms: C_7  and  C_8
REMARK    4  A    between atoms: C_8  and  N_9
REMARK    5  A    between atoms: C_19  and  N_20
REMARK                            x       y       z     vdW  Elec       q    Type
REMARK                         _______ _______ _______ _____ _____    ______ ____
ROOT
ATOM      1  O   UNL     1       8.328   7.212  18.699  0.00  0.00    +0.000 OA
ATOM      2  C   UNL     1       7.766   8.114  18.087  0.00  0.00    +0.000 C 
ATOM      3  N   UNL     1       6.583   7.951  17.334  0.00  0.00    +0.000 N 
ATOM      4  H   UNL     1       6.230   8.730  16.829  0.00  0.00    +0.000 HD
ENDROOT
BRANCH   3   5
ATOM      5  C   UNL     1       5.807   6.732  17.221  0.00  0.00    +0.000 A 
ATOM      6  C   UNL     1       6.246   5.551  16.600  0.00  0.00    +0.000 A 
ATOM      7  C   UNL     1       5.420   4.398  16.498  0.00  0.00    +0.000 A 
ATOM      8  C   UNL     1       4.123   4.380  17.030  0.00  0.00    +0.000 A 
ATOM      9  C   UNL     1       3.694   5.543  17.685  0.00  0.00    +0.000 A 
ATOM     10  C   UNL     1       4.515   6.692  17.776  0.00  0.00    +0.000 A 
BRANCH   8  11
ATOM     11  C   UNL     1       3.172   3.207  16.809  0.00  0.00    +0.000 C 
BRANCH  11  12
ATOM     12  N   UNL     1       2.816   2.339  17.931  0.00  0.00    +0.000 NA
ATOM     13  C   UNL     1       1.501   2.524  18.526  0.00  0.00    +0.000 C 
ATOM     14  C   UNL     1       1.755   3.227  19.844  0.00  0.00    +0.000 C 
ATOM     15  C   UNL     1       3.125   2.738  20.274  0.00  0.00    +0.000 C 
ATOM     16  C   UNL     1       3.797   2.230  19.005  0.00  0.00    +0.000 C 
ENDBRANCH  11  12
ENDBRANCH   8  11
ENDBRANCH   3   5
BRANCH   2  17
ATOM     17  C   UNL     1       8.399   9.503  18.188  0.00  0.00    +0.000 A 
ATOM     18  C   UNL     1       8.059  10.569  17.372  0.00  0.00    +0.000 A 
ATOM     19  C   UNL     1       8.657  11.832  17.604  0.00  0.00    +0.000 A 
ATOM     20  C   UNL     1       9.580  12.087  18.676  0.00  0.00    +0.000 A 
ATOM     21  C   UNL     1      10.035  10.988  19.379  0.00  0.00    +0.000 A 
ATOM     22  C   UNL     1       9.415   9.718  19.145  0.00  0.00    +0.000 A 
BRANCH  20  23
ATOM     23  N   UNL     1       9.771  13.471  19.052  0.00  0.00    +0.000 N 
ATOM     24  C   UNL     1       9.299  14.407  18.148  0.00  0.00    +0.000 A 
ATOM     25  N   UNL     1       9.905  15.554  18.231  0.00  0.00    +0.000 NA
ATOM     26  C   UNL     1      10.214  15.572  19.550  0.00  0.00    +0.000 A 
ATOM     27  C   UNL     1      10.473  16.748  20.264  0.00  0.00    +0.000 A 
ATOM     28  C   UNL     1      10.414  16.711  21.655  0.00  0.00    +0.000 A 
ATOM     29  C   UNL     1      10.222  15.475  22.286  0.00  0.00    +0.000 A 
ATOM     30  C   UNL     1      10.092  14.235  21.568  0.00  0.00    +0.000 A 
ATOM     31  C   UNL     1      10.039  14.310  20.165  0.00  0.00    +0.000 A 
ENDBRANCH  20  23
ENDBRANCH   2  17
TORSDOF 5
ENDMDL
MODEL 8
REMARK VINA RESULT:      -7.9      1.979     11.770
REMARK  Name = 
REMARK  5 active torsions:
REMARK  status: ('A' for Active; 'I' for Inactive)
REMARK    1  A    between atoms: C_2  and  C_16
REMARK    2  A    between atoms: N_3  and  C_4
REMARK    3  A    between atoms: C_7  and  C_8
REMARK    4  A    between atoms: C_8  and  N_9
REMARK    5  A    between atoms: C_19  and  N_20
REMARK                            x       y       z     vdW  Elec       q    Type
REMARK                         _______ _______ _______ _____ _____    ______ ____
ROOT
ATOM      1  O   UNL     1       1.618   9.755  22.382  0.00  0.00    +0.000 OA
ATOM      2  C   UNL     1       0.740   9.947  21.549  0.00  0.00    +0.000 C 
ATOM      3  N   UNL     1       0.629   9.243  20.330  0.00  0.00    +0.000 N 
ATOM      4  H   UNL     1      -0.088   9.505  19.693  0.00  0.00    +0.000 HD
ENDROOT
BRANCH   3   5
ATOM      5  C   UNL     1       1.473   8.145  19.900  0.00  0.00    +0.000 A 
ATOM      6  C   UNL     1       1.685   6.961  20.624  0.00  0.00    +0.000 A 
ATOM      7  C   UNL     1       2.552   5.935  20.157  0.00  0.00    +0.000 A 
ATOM      8  C   UNL     1       3.228   6.051  18.934  0.00  0.00    +0.000 A 
ATOM      9  C   UNL     1       2.989   7.214  18.190  0.00  0.00    +0.000 A 
ATOM     10  C   UNL     1       2.134   8.238  18.663  0.00  0.00    +0.000 A 
BRANCH   8  11
ATOM     11  C   UNL     1       4.267   5.029  18.482  0.00  0.00    +0.000 C 
BRANCH  11  12
ATOM     12  N   UNL     1       3.840   3.695  18.061  0.00  0.00    +0.000 NA
ATOM     13  C   UNL     1       2.606   3.602  17.294  0.00  0.00    +0.000 C 
ATOM     14  C   UNL     1       1.579   3.044  18.258  0.00  0.00    +0.000 C 
ATOM     15  C   UNL     1       2.384   2.173  19.204  0.00  0.00    +0.000 C 
ATOM     16  C   UNL     1       3.822   2.663  19.091  0.00  0.00    +0.000 C 
ENDBRANCH  11  12
ENDBRANCH   8  11
ENDBRANCH   3   5
BRANCH   2  17
ATOM     17  C   UNL     1      -0.307  11.007  21.894  0.00  0.00    +0.000 A 
ATOM     18  C   UNL     1      -0.484  12.180  21.180  0.00  0.00    +0.000 A 
ATOM     19  C   UNL     1      -1.536  13.057  21.546  0.00  0.00    +0.000 A 
ATOM     20  C   UNL     1      -2.467  12.779  22.605  0.00  0.00    +0.000 A 
ATOM     21  C   UNL     1      -2.185  11.693  23.412  0.00  0.00    +0.000 A 
ATOM     22  C   UNL     1      -1.127  10.807  23.026  0.00  0.00    +0.000 A 
BRANCH  20  23
ATOM     23  N   UNL     1      -3.709  13.521  22.589  0.00  0.00    +0.000 N 
ATOM     24  C   UNL     1      -3.922  14.305  21.467  0.00  0.00    +0.000 A 
ATOM     25  N   UNL     1      -4.724  15.305  21.684  0.00  0.00    +0.000 NA
ATOM     26  C   UNL     1      -5.520  14.777  22.644  0.00  0.00    +0.000 A 
ATOM     27  C   UNL     1      -6.808  15.248  22.923  0.00  0.00    +0.000 A 
ATOM     28  C   UNL     1      -7.676  14.433  23.645  0.00  0.00    +0.000 A 
ATOM     29  C   UNL     1      -7.185  13.231  24.172  0.00  0.00    +0.000 A 
ATOM     30  C   UNL     1      -5.823  12.798  24.011  0.00  0.00    +0.000 A 
ATOM     31  C   UNL     1      -4.996  13.577  23.183  0.00  0.00    +0.000 A 
ENDBRANCH  20  23
ENDBRANCH   2  17
TORSDOF 5
ENDMDL
MODEL 9
REMARK VINA RESULT:      -7.9      1.423      2.264
REMARK  Name = 
REMARK  5 active torsions:
REMARK  status: ('A' for Active; 'I' for Inactive)
REMARK    1  A    between atoms: C_2  and  C_16
REMARK    2  A    between atoms: N_3  and  C_4
REMARK    3  A    between atoms: C_7  and  C_8
REMARK    4  A    between atoms: C_8  and  N_9
REMARK    5  A    between atoms: C_19  and  N_20
REMARK                            x       y       z     vdW  Elec       q    Type
REMARK                         _______ _______ _______ _____ _____    ______ ____
ROOT
ATOM      1  O   UNL     1      -1.287  10.445  19.146  0.00  0.00    +0.000 OA
ATOM      2  C   UNL     1      -0.325  10.346  19.899  0.00  0.00    +0.000 C 
ATOM      3  N   UNL     1      -0.186  11.055  21.113  0.00  0.00    +0.000 N 
ATOM      4  H   UNL     1       0.654  10.949  21.632  0.00  0.00    +0.000 HD
ENDROOT
BRANCH   3   5
ATOM      5  C   UNL     1      -1.171  11.943  21.698  0.00  0.00    +0.000 A 
ATOM      6  C   UNL     1      -1.547  13.189  21.171  0.00  0.00    +0.000 A 
ATOM      7  C   UNL     1      -2.501  14.025  21.814  0.00  0.00    +0.000 A 
ATOM      8  C   UNL     1      -3.129  13.635  23.005  0.00  0.00    +0.000 A 
ATOM      9  C   UNL     1      -2.787  12.374  23.514  0.00  0.00    +0.000 A 
ATOM     10  C   UNL     1      -1.829  11.549  22.877  0.00  0.00    +0.000 A 
BRANCH   8  11
ATOM     11  C   UNL     1      -4.047  14.573  23.783  0.00  0.00    +0.000 C 
BRANCH  11  12
ATOM     12  N   UNL     1      -3.475  15.530  24.730  0.00  0.00    +0.000 NA
ATOM     13  C   UNL     1      -2.850  16.722  24.177  0.00  0.00    +0.000 C 
ATOM     14  C   UNL     1      -1.359  16.496  24.326  0.00  0.00    +0.000 C 
ATOM     15  C   UNL     1      -1.231  15.631  25.566  0.00  0.00    +0.000 C 
ATOM     16  C   UNL     1      -2.596  14.982  25.756  0.00  0.00    +0.000 C 
ENDBRANCH  11  12
ENDBRANCH   8  11
ENDBRANCH   3   5
BRANCH   2  17
ATOM     17  C   UNL     1       0.768   9.361  19.483  0.00  0.00    +0.000 A 
ATOM     18  C   UNL     1       1.260   8.359  20.304  0.00  0.00    +0.000 A 
ATOM     19  C   UNL     1       2.222   7.456  19.787  0.00  0.00    +0.000 A 
ATOM     20  C   UNL     1       2.697   7.495  18.431  0.00  0.00    +0.000 A 
ATOM     21  C   UNL     1       2.327   8.590  17.673  0.00  0.00    +0.000 A 
ATOM     22  C   UNL     1       1.345   9.489  18.200  0.00  0.00    +0.000 A 
BRANCH  20  23
ATOM     23  N   UNL     1       3.327   6.292  17.930  0.00  0.00    +0.000 N 
ATOM     24  C   UNL     1       2.624   5.117  18.139  0.00  0.00    +0.000 A 
ATOM     25  N   UNL     1       3.383   4.063  18.163  0.00  0.00    +0.000 NA
ATOM     26  C   UNL     1       4.365   4.448  17.314  0.00  0.00    +0.000 A 
ATOM     27  C   UNL     1       5.197   3.547  16.638  0.00  0.00    +0.000 A 
ATOM     28  C   UNL     1       5.910   3.999  15.531  0.00  0.00    +0.000 A 
ATOM     29  C   UNL     1       5.865   5.364  15.214  0.00  0.00    +0.000 A 
ATOM     30  C   UNL     1       5.124   6.327  15.985  0.00  0.00    +0.000 A 
ATOM     31  C   UNL     1       4.321   5.833  17.027  0.00  0.00    +0.000 A 
ENDBRANCH  20  23
ENDBRANCH   2  17
TORSDOF 5
ENDMDL
