MODEL 1
REMARK VINA RESULT:      -7.5      0.000      0.000
REMARK  Name = 
REMARK  6 active torsions:
REMARK  status: ('A' for Active; 'I' for Inactive)
REMARK    1  A    between atoms: C_1  and  C_2
REMARK    2  A    between atoms: C_2  and  C_3
REMARK    3  A    between atoms: C_5  and  C_6
REMARK    4  A    between atoms: C_9  and  N_10
REMARK    5  A    between atoms: C_11  and  C_13
REMARK    6  A    between atoms: C_17  and  N_18
REMARK                            x       y       z     vdW  Elec       q    Type
REMARK                         _______ _______ _______ _____ _____    ______ ____
ROOT
ATOM      1  N   UNL     1       4.500   4.475  16.350  0.00  0.00    +0.000 N 
ATOM      2  C   UNL     1       5.877   4.533  16.178  0.00  0.00    +0.000 C 
ATOM      3  O   UNL     1       6.692   4.725  17.079  0.00  0.00    +0.000 OA
ATOM      4  H   UNL     1       3.940   4.976  15.665  0.00  0.00    +0.000 HD
ENDROOT
BRANCH   2   5
ATOM      5  C   UNL     1       6.408   4.372  14.797  0.00  0.00    +0.000 A 
ATOM      6  C   UNL     1       7.459   5.154  14.300  0.00  0.00    +0.000 A 
ATOM      7  C   UNL     1       7.776   5.112  12.936  0.00  0.00    +0.000 A 
ATOM      8  C   UNL     1       7.050   4.295  12.064  0.00  0.00    +0.000 A 
ATOM      9  C   UNL     1       6.017   3.499  12.568  0.00  0.00    +0.000 A 
ATOM     10  C   UNL     1       5.702   3.522  13.929  0.00  0.00    +0.000 A 
BRANCH   9  11
ATOM     11  N   UNL     1       5.223   2.665  11.656  0.00  0.00    +0.000 N 
ATOM     12  O   UNL     1       5.694   1.568  11.324  0.00  0.00    +0.000 OA
ATOM     13  O   UNL     1       4.129   3.105  11.271  0.00  0.00    +0.000 OA
ENDBRANCH   9  11
ENDBRANCH   2   5
BRANCH   1  17
ATOM     14  C   UNL     1       3.179   3.552  19.795  0.00  0.00    +0.000 A 
ATOM     15  C   UNL     1       2.967   4.909  19.663  0.00  0.00    +0.000 A 
ATOM     16  C   UNL     1       3.425   5.433  18.404  0.00  0.00    +0.000 A 
ATOM     17  C   UNL     1       3.992   4.428  17.644  0.00  0.00    +0.000 A 
ATOM     18  S   UNL     1       3.953   2.910  18.419  0.00  0.00    +0.000 S 
BRANCH  16  19
ATOM     19  C   UNL     1       3.361   6.822  17.980  0.00  0.00    +0.000 C 
ATOM     20  N   UNL     1       2.417   7.579  18.614  0.00  0.00    +0.000 N 
ATOM     21  O   UNL     1       4.126   7.311  17.152  0.00  0.00    +0.000 OA
ATOM     22  H   UNL     1       2.003   7.265  19.482  0.00  0.00    +0.000 HD
ATOM     23  H   UNL     1       2.449   8.575  18.445  0.00  0.00    +0.000 HD
ENDBRANCH  16  19
BRANCH  14  25
ATOM     24  C   UNL     1       1.374   2.974  21.405  0.00  0.00    +0.000 C 
ATOM     25  C   UNL     1       2.793   2.669  20.941  0.00  0.00    +0.000 C 
ENDBRANCH  14  25
ENDBRANCH   1  17
TORSDOF 5
ENDMDL
MODEL 2
REMARK VINA RESULT:      -7.5      1.616      2.191
REMARK  Name = 
REMARK  6 active torsions:
REMARK  status: ('A' for Active; 'I' for Inactive)
REMARK    1  A    between atoms: C_1  and  C_2
REMARK    2  A    between atoms: C_2  and  C_3
REMARK    3  A    between atoms: C_5  and  C_6
REMARK    4  A    between atoms: C_9  and  N_10
REMARK    5  A    between atoms: C_11  and  C_13
REMARK    6  A    between atoms: C_17  and  N_18
REMARK                            x       y       z     vdW  Elec       q    Type
REMARK                         _______ _______ _______ _____ _____    ______ ____
ROOT
ATOM      1  N   UNL     1       5.221   4.089  16.433  0.00  0.00    +0.000 N 
ATOM      2  C   UNL     1       5.570   5.071  15.515  0.00  0.00    +0.000 C 
ATOM      3  O   UNL     1       5.352   6.273  15.653  0.00  0.00    +0.000 OA
ATOM      4  H   UNL     1       4.803   3.244  16.050  0.00  0.00    +0.000 HD
ENDROOT
BRANCH   2   5
ATOM      5  C   UNL     1       6.239   4.636  14.258  0.00  0.00    +0.000 A 
ATOM      6  C   UNL     1       7.355   5.300  13.731  0.00  0.00    +0.000 A 
ATOM      7  C   UNL     1       7.812   4.986  12.445  0.00  0.00    +0.000 A 
ATOM      8  C   UNL     1       7.161   4.014  11.679  0.00  0.00    +0.000 A 
ATOM      9  C   UNL     1       6.061   3.337  12.217  0.00  0.00    +0.000 A 
ATOM     10  C   UNL     1       5.607   3.632  13.504  0.00  0.00    +0.000 A 
BRANCH   9  11
ATOM     11  N   UNL     1       5.348   2.341  11.408  0.00  0.00    +0.000 N 
ATOM     12  O   UNL     1       5.929   1.275  11.165  0.00  0.00    +0.000 OA
ATOM     13  O   UNL     1       4.204   2.622  11.016  0.00  0.00    +0.000 OA
ENDBRANCH   9  11
ENDBRANCH   2   5
BRANCH   1  17
ATOM     14  C   UNL     1       3.274   5.141  19.525  0.00  0.00    +0.000 A 
ATOM     15  C   UNL     1       4.607   5.298  19.850  0.00  0.00    +0.000 A 
ATOM     16  C   UNL     1       5.496   4.930  18.780  0.00  0.00    +0.000 A 
ATOM     17  C   UNL     1       4.775   4.481  17.690  0.00  0.00    +0.000 A 
ATOM     18  S   UNL     1       3.090   4.525  17.948  0.00  0.00    +0.000 S 
BRANCH  16  19
ATOM     19  C   UNL     1       6.949   4.964  18.824  0.00  0.00    +0.000 C 
ATOM     20  N   UNL     1       7.481   5.642  19.882  0.00  0.00    +0.000 N 
ATOM     21  O   UNL     1       7.662   4.387  18.006  0.00  0.00    +0.000 OA
ATOM     22  H   UNL     1       6.917   5.854  20.695  0.00  0.00    +0.000 HD
ATOM     23  H   UNL     1       8.480   5.558  20.016  0.00  0.00    +0.000 HD
ENDBRANCH  16  19
BRANCH  14  25
ATOM     24  C   UNL     1       1.109   4.294  20.407  0.00  0.00    +0.000 C 
ATOM     25  C   UNL     1       2.080   5.466  20.368  0.00  0.00    +0.000 C 
ENDBRANCH  14  25
ENDBRANCH   1  17
TORSDOF 5
ENDMDL
MODEL 3
REMARK VINA RESULT:      -7.3      3.084      7.352
REMARK  Name = 
REMARK  6 active torsions:
REMARK  status: ('A' for Active; 'I' for Inactive)
REMARK    1  A    between atoms: C_1  and  C_2
REMARK    2  A    between atoms: C_2  and  C_3
REMARK    3  A    between atoms: C_5  and  C_6
REMARK    4  A    between atoms: C_9  and  N_10
REMARK    5  A    between atoms: C_11  and  C_13
REMARK    6  A    between atoms: C_17  and  N_18
REMARK                            x       y       z     vdW  Elec       q    Type
REMARK                         _______ _______ _______ _____ _____    ______ ____
ROOT
ATOM      1  N   UNL     1       4.973   3.673  16.936  0.00  0.00    +0.000 N 
ATOM      2  C   UNL     1       3.925   4.450  17.411  0.00  0.00    +0.000 C 
ATOM      3  O   UNL     1       3.841   5.671  17.287  0.00  0.00    +0.000 OA
ATOM      4  H   UNL     1       5.329   2.961  17.570  0.00  0.00    +0.000 HD
ENDROOT
BRANCH   2   5
ATOM      5  C   UNL     1       2.830   3.759  18.144  0.00  0.00    +0.000 A 
ATOM      6  C   UNL     1       1.522   3.682  17.646  0.00  0.00    +0.000 A 
ATOM      7  C   UNL     1       0.489   3.213  18.466  0.00  0.00    +0.000 A 
ATOM      8  C   UNL     1       0.750   2.821  19.782  0.00  0.00    +0.000 A 
ATOM      9  C   UNL     1       2.060   2.878  20.269  0.00  0.00    +0.000 A 
ATOM     10  C   UNL     1       3.101   3.330  19.455  0.00  0.00    +0.000 A 
BRANCH   9  11
ATOM     11  N   UNL     1       2.341   2.504  21.661  0.00  0.00    +0.000 N 
ATOM     12  O   UNL     1       1.418   2.605  22.481  0.00  0.00    +0.000 OA
ATOM     13  O   UNL     1       3.484   2.107  21.936  0.00  0.00    +0.000 OA
ENDBRANCH   9  11
ENDBRANCH   2   5
BRANCH   1  17
ATOM     14  C   UNL     1       7.128   4.871  14.040  0.00  0.00    +0.000 A 
ATOM     15  C   UNL     1       7.760   5.312  15.185  0.00  0.00    +0.000 A 
ATOM     16  C   UNL     1       7.063   4.949  16.390  0.00  0.00    +0.000 A 
ATOM     17  C   UNL     1       5.905   4.260  16.086  0.00  0.00    +0.000 A 
ATOM     18  S   UNL     1       5.684   4.045  14.409  0.00  0.00    +0.000 S 
BRANCH  16  19
ATOM     19  C   UNL     1       7.465   5.286  17.747  0.00  0.00    +0.000 C 
ATOM     20  N   UNL     1       7.584   6.622  18.001  0.00  0.00    +0.000 N 
ATOM     21  O   UNL     1       7.638   4.446  18.627  0.00  0.00    +0.000 OA
ATOM     22  H   UNL     1       7.163   7.304  17.383  0.00  0.00    +0.000 HD
ATOM     23  H   UNL     1       7.718   6.887  18.967  0.00  0.00    +0.000 HD
ENDBRANCH  16  19
BRANCH  14  25
ATOM     24  C   UNL     1       7.052   3.891  11.756  0.00  0.00    +0.000 C 
ATOM     25  C   UNL     1       7.586   5.024  12.622  0.00  0.00    +0.000 C 
ENDBRANCH  14  25
ENDBRANCH   1  17
TORSDOF 5
ENDMDL
MODEL 4
REMARK VINA RESULT:      -7.2      1.819      2.710
REMARK  Name = 
REMARK  6 active torsions:
REMARK  status: ('A' for Active; 'I' for Inactive)
REMARK    1  A    between atoms: C_1  and  C_2
REMARK    2  A    between atoms: C_2  and  C_3
REMARK    3  A    between atoms: C_5  and  C_6
REMARK    4  A    between atoms: C_9  and  N_10
REMARK    5  A    between atoms: C_11  and  C_13
REMARK    6  A    between atoms: C_17  and  N_18
REMARK                            x       y       z     vdW  Elec       q    Type
REMARK                         _______ _______ _______ _____ _____    ______ ____
ROOT
ATOM      1  N   UNL     1       4.081   4.266  16.522  0.00  0.00    +0.000 N 
ATOM      2  C   UNL     1       5.289   4.908  16.282  0.00  0.00    +0.000 C 
ATOM      3  O   UNL     1       5.803   5.743  17.024  0.00  0.00    +0.000 OA
ATOM      4  H   UNL     1       3.447   4.189  15.730  0.00  0.00    +0.000 HD
ENDROOT
BRANCH   2   5
ATOM      5  C   UNL     1       6.009   4.577  15.021  0.00  0.00    +0.000 A 
ATOM      6  C   UNL     1       7.227   5.176  14.671  0.00  0.00    +0.000 A 
ATOM      7  C   UNL     1       7.751   4.992  13.386  0.00  0.00    +0.000 A 
ATOM      8  C   UNL     1       7.067   4.216  12.445  0.00  0.00    +0.000 A 
ATOM      9  C   UNL     1       5.863   3.602  12.805  0.00  0.00    +0.000 A 
ATOM     10  C   UNL     1       5.339   3.766  14.089  0.00  0.00    +0.000 A 
BRANCH   9  11
ATOM     11  N   UNL     1       5.117   2.815  11.815  0.00  0.00    +0.000 N 
ATOM     12  O   UNL     1       5.614   1.744  11.439  0.00  0.00    +0.000 OA
ATOM     13  O   UNL     1       4.034   3.266  11.411  0.00  0.00    +0.000 OA
ENDBRANCH   9  11
ENDBRANCH   2   5
BRANCH   1  17
ATOM     14  C   UNL     1       2.351   5.420  19.706  0.00  0.00    +0.000 A 
ATOM     15  C   UNL     1       2.811   4.146  19.970  0.00  0.00    +0.000 A 
ATOM     16  C   UNL     1       3.491   3.548  18.852  0.00  0.00    +0.000 A 
ATOM     17  C   UNL     1       3.488   4.410  17.772  0.00  0.00    +0.000 A 
ATOM     18  S   UNL     1       2.711   5.890  18.108  0.00  0.00    +0.000 S 
BRANCH  16  19
ATOM     19  C   UNL     1       4.065   2.212  18.813  0.00  0.00    +0.000 C 
ATOM     20  N   UNL     1       4.952   1.934  19.813  0.00  0.00    +0.000 N 
ATOM     21  O   UNL     1       3.748   1.366  17.980  0.00  0.00    +0.000 OA
ATOM     22  H   UNL     1       4.986   2.506  20.646  0.00  0.00    +0.000 HD
ATOM     23  H   UNL     1       5.252   0.971  19.894  0.00  0.00    +0.000 HD
ENDBRANCH  16  19
BRANCH  14  25
ATOM     24  C   UNL     1       1.847   7.801  20.215  0.00  0.00    +0.000 C 
ATOM     25  C   UNL     1       1.646   6.353  20.641  0.00  0.00    +0.000 C 
ENDBRANCH  14  25
ENDBRANCH   1  17
TORSDOF 5
ENDMDL
MODEL 5
REMARK VINA RESULT:      -7.1      4.229      8.651
REMARK  Name = 
REMARK  6 active torsions:
REMARK  status: ('A' for Active; 'I' for Inactive)
REMARK    1  A    between atoms: C_1  and  C_2
REMARK    2  A    between atoms: C_2  and  C_3
REMARK    3  A    between atoms: C_5  and  C_6
REMARK    4  A    between atoms: C_9  and  N_10
REMARK    5  A    between atoms: C_11  and  C_13
REMARK    6  A    between atoms: C_17  and  N_18
REMARK                            x       y       z     vdW  Elec       q    Type
REMARK                         _______ _______ _______ _____ _____    ______ ____
ROOT
ATOM      1  N   UNL     1       2.459   7.177  18.166  0.00  0.00    +0.000 N 
ATOM      2  C   UNL     1       2.080   7.368  19.488  0.00  0.00    +0.000 C 
ATOM      3  O   UNL     1       2.305   6.581  20.407  0.00  0.00    +0.000 OA
ATOM      4  H   UNL     1       1.758   7.397  17.462  0.00  0.00    +0.000 HD
ENDROOT
BRANCH   2   5
ATOM      5  C   UNL     1       1.325   8.608  19.819  0.00  0.00    +0.000 A 
ATOM      6  C   UNL     1       1.280   9.713  18.958  0.00  0.00    +0.000 A 
ATOM      7  C   UNL     1       0.739  10.925  19.406  0.00  0.00    +0.000 A 
ATOM      8  C   UNL     1       0.245  11.043  20.709  0.00  0.00    +0.000 A 
ATOM      9  C   UNL     1       0.272   9.932  21.558  0.00  0.00    +0.000 A 
ATOM     10  C   UNL     1       0.795   8.714  21.116  0.00  0.00    +0.000 A 
BRANCH   9  11
ATOM     11  N   UNL     1      -0.210  10.054  22.939  0.00  0.00    +0.000 N 
ATOM     12  O   UNL     1       0.522   9.628  23.843  0.00  0.00    +0.000 OA
ATOM     13  O   UNL     1      -1.321  10.575  23.123  0.00  0.00    +0.000 OA
ENDBRANCH   9  11
ENDBRANCH   2   5
BRANCH   1  17
ATOM     14  C   UNL     1       5.343   4.910  17.167  0.00  0.00    +0.000 A 
ATOM     15  C   UNL     1       4.255   4.079  17.337  0.00  0.00    +0.000 A 
ATOM     16  C   UNL     1       3.063   4.782  17.732  0.00  0.00    +0.000 A 
ATOM     17  C   UNL     1       3.325   6.132  17.866  0.00  0.00    +0.000 A 
ATOM     18  S   UNL     1       4.944   6.530  17.508  0.00  0.00    +0.000 S 
BRANCH  16  19
ATOM     19  C   UNL     1       1.767   4.184  18.007  0.00  0.00    +0.000 C 
ATOM     20  N   UNL     1       1.603   3.716  19.279  0.00  0.00    +0.000 N 
ATOM     21  O   UNL     1       0.856   4.141  17.184  0.00  0.00    +0.000 OA
ATOM     22  H   UNL     1       2.223   4.012  20.022  0.00  0.00    +0.000 HD
ATOM     23  H   UNL     1       0.668   3.430  19.538  0.00  0.00    +0.000 HD
ENDBRANCH  16  19
BRANCH  14  25
ATOM     24  C   UNL     1       7.725   4.704  17.853  0.00  0.00    +0.000 C 
ATOM     25  C   UNL     1       6.722   4.536  16.719  0.00  0.00    +0.000 C 
ENDBRANCH  14  25
ENDBRANCH   1  17
TORSDOF 5
ENDMDL
MODEL 6
REMARK VINA RESULT:      -7.1      2.946      7.211
REMARK  Name = 
REMARK  6 active torsions:
REMARK  status: ('A' for Active; 'I' for Inactive)
REMARK    1  A    between atoms: C_1  and  C_2
REMARK    2  A    between atoms: C_2  and  C_3
REMARK    3  A    between atoms: C_5  and  C_6
REMARK    4  A    between atoms: C_9  and  N_10
REMARK    5  A    between atoms: C_11  and  C_13
REMARK    6  A    between atoms: C_17  and  N_18
REMARK                            x       y       z     vdW  Elec       q    Type
REMARK                         _______ _______ _______ _____ _____    ______ ____
ROOT
ATOM      1  N   UNL     1       4.559   4.549  17.038  0.00  0.00    +0.000 N 
ATOM      2  C   UNL     1       4.078   5.802  17.393  0.00  0.00    +0.000 C 
ATOM      3  O   UNL     1       4.426   6.863  16.877  0.00  0.00    +0.000 OA
ATOM      4  H   UNL     1       4.794   3.923  17.805  0.00  0.00    +0.000 HD
ENDROOT
BRANCH   2   5
ATOM      5  C   UNL     1       3.082   5.873  18.497  0.00  0.00    +0.000 A 
ATOM      6  C   UNL     1       2.610   7.090  19.008  0.00  0.00    +0.000 A 
ATOM      7  C   UNL     1       1.843   7.105  20.179  0.00  0.00    +0.000 A 
ATOM      8  C   UNL     1       1.544   5.913  20.847  0.00  0.00    +0.000 A 
ATOM      9  C   UNL     1       1.997   4.699  20.321  0.00  0.00    +0.000 A 
ATOM     10  C   UNL     1       2.750   4.671  19.145  0.00  0.00    +0.000 A 
BRANCH   9  11
ATOM     11  N   UNL     1       1.721   3.444  21.033  0.00  0.00    +0.000 N 
ATOM     12  O   UNL     1       1.046   2.587  20.446  0.00  0.00    +0.000 OA
ATOM     13  O   UNL     1       2.177   3.314  22.179  0.00  0.00    +0.000 OA
ENDBRANCH   9  11
ENDBRANCH   2   5
BRANCH   1  17
ATOM     14  C   UNL     1       6.037   3.877  13.599  0.00  0.00    +0.000 A 
ATOM     15  C   UNL     1       7.083   4.338  14.373  0.00  0.00    +0.000 A 
ATOM     16  C   UNL     1       6.691   4.655  15.721  0.00  0.00    +0.000 A 
ATOM     17  C   UNL     1       5.338   4.435  15.891  0.00  0.00    +0.000 A 
ATOM     18  S   UNL     1       4.579   3.850  14.481  0.00  0.00    +0.000 S 
BRANCH  16  19
ATOM     19  C   UNL     1       7.558   5.180  16.764  0.00  0.00    +0.000 C 
ATOM     20  N   UNL     1       7.606   6.542  16.846  0.00  0.00    +0.000 N 
ATOM     21  O   UNL     1       8.169   4.466  17.555  0.00  0.00    +0.000 OA
ATOM     22  H   UNL     1       6.894   7.111  16.406  0.00  0.00    +0.000 HD
ATOM     23  H   UNL     1       8.082   6.929  17.649  0.00  0.00    +0.000 HD
ENDBRANCH  16  19
BRANCH  14  25
ATOM     24  C   UNL     1       4.679   3.277  11.605  0.00  0.00    +0.000 C 
ATOM     25  C   UNL     1       6.084   3.412  12.176  0.00  0.00    +0.000 C 
ENDBRANCH  14  25
ENDBRANCH   1  17
TORSDOF 5
ENDMDL
MODEL 7
REMARK VINA RESULT:      -7.0      3.844      8.460
REMARK  Name = 
REMARK  6 active torsions:
REMARK  status: ('A' for Active; 'I' for Inactive)
REMARK    1  A    between atoms: C_1  and  C_2
REMARK    2  A    between atoms: C_2  and  C_3
REMARK    3  A    between atoms: C_5  and  C_6
REMARK    4  A    between atoms: C_9  and  N_10
REMARK    5  A    between atoms: C_11  and  C_13
REMARK    6  A    between atoms: C_17  and  N_18
REMARK                            x       y       z     vdW  Elec       q    Type
REMARK                         _______ _______ _______ _____ _____    ______ ____
ROOT
ATOM      1  N   UNL     1       2.598   6.579  17.925  0.00  0.00    +0.000 N 
ATOM      2  C   UNL     1       2.497   6.927  19.265  0.00  0.00    +0.000 C 
ATOM      3  O   UNL     1       3.052   6.337  20.191  0.00  0.00    +0.000 OA
ATOM      4  H   UNL     1       1.731   6.584  17.392  0.00  0.00    +0.000 HD
ENDROOT
BRANCH   2   5
ATOM      5  C   UNL     1       1.635   8.089  19.614  0.00  0.00    +0.000 A 
ATOM      6  C   UNL     1       1.349   9.114  18.702  0.00  0.00    +0.000 A 
ATOM      7  C   UNL     1       0.715  10.283  19.141  0.00  0.00    +0.000 A 
ATOM      8  C   UNL     1       0.365  10.438  20.487  0.00  0.00    +0.000 A 
ATOM      9  C   UNL     1       0.632   9.404  21.389  0.00  0.00    +0.000 A 
ATOM     10  C   UNL     1       1.250   8.227  20.959  0.00  0.00    +0.000 A 
BRANCH   9  11
ATOM     11  N   UNL     1       0.303   9.569  22.811  0.00  0.00    +0.000 N 
ATOM     12  O   UNL     1      -0.887   9.740  23.110  0.00  0.00    +0.000 OA
ATOM     13  O   UNL     1       1.234   9.529  23.631  0.00  0.00    +0.000 OA
ENDBRANCH   9  11
ENDBRANCH   2   5
BRANCH   1  17
ATOM     14  C   UNL     1       5.638   4.616  16.755  0.00  0.00    +0.000 A 
ATOM     15  C   UNL     1       4.626   3.688  16.900  0.00  0.00    +0.000 A 
ATOM     16  C   UNL     1       3.389   4.268  17.352  0.00  0.00    +0.000 A 
ATOM     17  C   UNL     1       3.542   5.626  17.554  0.00  0.00    +0.000 A 
ATOM     18  S   UNL     1       5.114   6.177  17.190  0.00  0.00    +0.000 S 
BRANCH  16  19
ATOM     19  C   UNL     1       2.153   3.550  17.618  0.00  0.00    +0.000 C 
ATOM     20  N   UNL     1       2.307   2.233  17.946  0.00  0.00    +0.000 N 
ATOM     21  O   UNL     1       1.047   4.084  17.605  0.00  0.00    +0.000 OA
ATOM     22  H   UNL     1       3.206   1.877  18.243  0.00  0.00    +0.000 HD
ATOM     23  H   UNL     1       1.482   1.751  18.276  0.00  0.00    +0.000 HD
ENDBRANCH  16  19
BRANCH  14  25
ATOM     24  C   UNL     1       7.147   4.708  14.781  0.00  0.00    +0.000 C 
ATOM     25  C   UNL     1       7.033   4.382  16.264  0.00  0.00    +0.000 C 
ENDBRANCH  14  25
ENDBRANCH   1  17
TORSDOF 5
ENDMDL
MODEL 8
REMARK VINA RESULT:      -7.0      3.054      7.299
REMARK  Name = 
REMARK  6 active torsions:
REMARK  status: ('A' for Active; 'I' for Inactive)
REMARK    1  A    between atoms: C_1  and  C_2
REMARK    2  A    between atoms: C_2  and  C_3
REMARK    3  A    between atoms: C_5  and  C_6
REMARK    4  A    between atoms: C_9  and  N_10
REMARK    5  A    between atoms: C_11  and  C_13
REMARK    6  A    between atoms: C_17  and  N_18
REMARK                            x       y       z     vdW  Elec       q    Type
REMARK                         _______ _______ _______ _____ _____    ______ ____
ROOT
ATOM      1  N   UNL     1       4.431   5.254  16.647  0.00  0.00    +0.000 N 
ATOM      2  C   UNL     1       4.006   4.189  17.431  0.00  0.00    +0.000 C 
ATOM      3  O   UNL     1       4.282   3.008  17.225  0.00  0.00    +0.000 OA
ATOM      4  H   UNL     1       3.729   5.956  16.426  0.00  0.00    +0.000 HD
ENDROOT
BRANCH   2   5
ATOM      5  C   UNL     1       3.134   4.495  18.598  0.00  0.00    +0.000 A 
ATOM      6  C   UNL     1       2.649   5.784  18.858  0.00  0.00    +0.000 A 
ATOM      7  C   UNL     1       2.015   6.059  20.075  0.00  0.00    +0.000 A 
ATOM      8  C   UNL     1       1.864   5.057  21.039  0.00  0.00    +0.000 A 
ATOM      9  C   UNL     1       2.329   3.767  20.768  0.00  0.00    +0.000 A 
ATOM     10  C   UNL     1       2.949   3.477  19.550  0.00  0.00    +0.000 A 
BRANCH   9  11
ATOM     11  N   UNL     1       2.209   2.715  21.786  0.00  0.00    +0.000 N 
ATOM     12  O   UNL     1       3.217   2.043  22.040  0.00  0.00    +0.000 OA
ATOM     13  O   UNL     1       1.106   2.560  22.333  0.00  0.00    +0.000 OA
ENDBRANCH   9  11
ENDBRANCH   2   5
BRANCH   1  17
ATOM     14  C   UNL     1       6.477   4.219  13.613  0.00  0.00    +0.000 A 
ATOM     15  C   UNL     1       7.377   4.769  14.503  0.00  0.00    +0.000 A 
ATOM     16  C   UNL     1       6.761   5.229  15.719  0.00  0.00    +0.000 A 
ATOM     17  C   UNL     1       5.396   5.020  15.673  0.00  0.00    +0.000 A 
ATOM     18  S   UNL     1       4.888   4.279  14.224  0.00  0.00    +0.000 S 
BRANCH  16  19
ATOM     19  C   UNL     1       7.439   5.871  16.834  0.00  0.00    +0.000 C 
ATOM     20  N   UNL     1       7.767   5.041  17.867  0.00  0.00    +0.000 N 
ATOM     21  O   UNL     1       7.749   7.059  16.840  0.00  0.00    +0.000 OA
ATOM     22  H   UNL     1       7.782   4.038  17.739  0.00  0.00    +0.000 HD
ATOM     23  H   UNL     1       8.365   5.429  18.585  0.00  0.00    +0.000 HD
ENDBRANCH  16  19
BRANCH  14  25
ATOM     24  C   UNL     1       5.584   2.768  11.802  0.00  0.00    +0.000 C 
ATOM     25  C   UNL     1       6.765   3.602  12.280  0.00  0.00    +0.000 C 
ENDBRANCH  14  25
ENDBRANCH   1  17
TORSDOF 5
ENDMDL
MODEL 9
REMARK VINA RESULT:      -7.0      3.635      7.741
REMARK  Name = 
REMARK  6 active torsions:
REMARK  status: ('A' for Active; 'I' for Inactive)
REMARK    1  A    between atoms: C_1  and  C_2
REMARK    2  A    between atoms: C_2  and  C_3
REMARK    3  A    between atoms: C_5  and  C_6
REMARK    4  A    between atoms: C_9  and  N_10
REMARK    5  A    between atoms: C_11  and  C_13
REMARK    6  A    between atoms: C_17  and  N_18
REMARK                            x       y       z     vdW  Elec       q    Type
REMARK                         _______ _______ _______ _____ _____    ______ ____
ROOT
ATOM      1  N   UNL     1       4.370   6.978  17.725  0.00  0.00    +0.000 N 
ATOM      2  C   UNL     1       3.093   6.619  18.133  0.00  0.00    +0.000 C 
ATOM      3  O   UNL     1       2.507   5.591  17.795  0.00  0.00    +0.000 OA
ATOM      4  H   UNL     1       4.497   7.949  17.448  0.00  0.00    +0.000 HD
ENDROOT
BRANCH   2   5
ATOM      5  C   UNL     1       2.365   7.556  19.033  0.00  0.00    +0.000 A 
ATOM      6  C   UNL     1       2.073   7.243  20.368  0.00  0.00    +0.000 A 
ATOM      7  C   UNL     1       1.207   8.061  21.103  0.00  0.00    +0.000 A 
ATOM      8  C   UNL     1       0.627   9.190  20.515  0.00  0.00    +0.000 A 
ATOM      9  C   UNL     1       0.939   9.512  19.190  0.00  0.00    +0.000 A 
ATOM     10  C   UNL     1       1.814   8.711  18.452  0.00  0.00    +0.000 A 
BRANCH   9  11
ATOM     11  N   UNL     1       0.309  10.673  18.550  0.00  0.00    +0.000 N 
ATOM     12  O   UNL     1      -0.747  10.486  17.931  0.00  0.00    +0.000 OA
ATOM     13  O   UNL     1       0.868  11.775  18.666  0.00  0.00    +0.000 OA
ENDBRANCH   9  11
ENDBRANCH   2   5
BRANCH   1  17
ATOM     14  C   UNL     1       6.193   4.777  15.216  0.00  0.00    +0.000 A 
ATOM     15  C   UNL     1       6.397   4.190  16.448  0.00  0.00    +0.000 A 
ATOM     16  C   UNL     1       5.775   4.910  17.527  0.00  0.00    +0.000 A 
ATOM     17  C   UNL     1       5.141   6.039  17.047  0.00  0.00    +0.000 A 
ATOM     18  S   UNL     1       5.279   6.208  15.356  0.00  0.00    +0.000 S 
BRANCH  16  19
ATOM     19  C   UNL     1       5.828   4.555  18.936  0.00  0.00    +0.000 C 
ATOM     20  N   UNL     1       5.299   3.336  19.248  0.00  0.00    +0.000 N 
ATOM     21  O   UNL     1       6.355   5.264  19.790  0.00  0.00    +0.000 OA
ATOM     22  H   UNL     1       5.143   2.642  18.528  0.00  0.00    +0.000 HD
ATOM     23  H   UNL     1       5.454   3.004  20.190  0.00  0.00    +0.000 HD
ENDBRANCH  16  19
BRANCH  14  25
ATOM     24  C   UNL     1       5.473   3.769  13.060  0.00  0.00    +0.000 C 
ATOM     25  C   UNL     1       6.650   4.285  13.877  0.00  0.00    +0.000 C 
ENDBRANCH  14  25
ENDBRANCH   1  17
TORSDOF 5
ENDMDL
