MODEL 1
REMARK VINA RESULT:      -8.9      0.000      0.000
REMARK  Name = 
REMARK  5 active torsions:
REMARK  status: ('A' for Active; 'I' for Inactive)
REMARK    1  A    between atoms: C_2  and  C_4
REMARK    2  A    between atoms: C_6  and  C_7
REMARK    3  A    between atoms: C_7  and  O_9
REMARK    4  A    between atoms: C_11  and  C_12
REMARK    5  A    between atoms: C_16  and  C_17
REMARK                            x       y       z     vdW  Elec       q    Type
REMARK                         _______ _______ _______ _____ _____    ______ ____
ROOT
ATOM      1  C   UNL     1       4.331   4.656  19.076  0.00  0.00    +0.000 A 
ATOM      2  C   UNL     1       3.631   3.753  19.875  0.00  0.00    +0.000 A 
ATOM      3  C   UNL     1       2.452   4.159  20.506  0.00  0.00    +0.000 A 
ATOM      4  C   UNL     1       1.978   5.467  20.332  0.00  0.00    +0.000 A 
ATOM      5  C   UNL     1       2.663   6.395  19.520  0.00  0.00    +0.000 A 
ATOM      6  C   UNL     1       3.858   5.965  18.915  0.00  0.00    +0.000 A 
ENDROOT
BRANCH   5   7
ATOM      7  C   UNL     1       2.093   7.733  19.230  0.00  0.00    +0.000 A 
ATOM      8  C   UNL     1       2.427   8.420  18.050  0.00  0.00    +0.000 A 
ATOM      9  C   UNL     1       1.973   9.714  17.812  0.00  0.00    +0.000 A 
ATOM     10  C   UNL     1       1.197  10.365  18.767  0.00  0.00    +0.000 A 
ATOM     11  C   UNL     1       0.822   9.730  19.962  0.00  0.00    +0.000 A 
ATOM     12  C   UNL     1       1.256   8.401  20.150  0.00  0.00    +0.000 A 
BRANCH  11  13
ATOM     13  C   UNL     1       0.054  10.455  21.004  0.00  0.00    +0.000 A 
ATOM     14  C   UNL     1      -0.218   9.873  22.257  0.00  0.00    +0.000 A 
ATOM     15  C   UNL     1      -1.007  10.522  23.211  0.00  0.00    +0.000 A 
ATOM     16  C   UNL     1      -1.526  11.784  22.946  0.00  0.00    +0.000 A 
ATOM     17  C   UNL     1      -1.253  12.397  21.728  0.00  0.00    +0.000 A 
ATOM     18  C   UNL     1      -0.477  11.738  20.769  0.00  0.00    +0.000 A 
ENDBRANCH  11  13
ENDBRANCH   5   7
BRANCH   1  20
ATOM     19  N   UNL     1       5.391   3.740  17.093  0.00  0.00    +0.000 N 
ATOM     20  C   UNL     1       5.561   4.253  18.348  0.00  0.00    +0.000 C 
ATOM     21  O   UNL     1       6.672   4.419  18.831  0.00  0.00    +0.000 OA
ATOM     22  H   UNL     1       6.230   3.564  16.555  0.00  0.00    +0.000 HD
ATOM     23  H   UNL     1       4.519   3.813  16.586  0.00  0.00    +0.000 HD
ENDBRANCH   1  20
BRANCH   3  24
ATOM     24  C   UNL     1       1.683   3.128  21.250  0.00  0.00    +0.000 C 
ATOM     25  O   UNL     1       2.114   2.610  22.263  0.00  0.00    +0.000 OA
BRANCH  24  26
ATOM     26  O   UNL     1       0.482   2.821  20.719  0.00  0.00    +0.000 OA
ATOM     27  H   UNL     1       0.306   1.876  20.575  0.00  0.00    +0.000 HD
ENDBRANCH  24  26
ENDBRANCH   3  24
TORSDOF 5
ENDMDL
MODEL 2
REMARK VINA RESULT:      -8.8      1.347      1.498
REMARK  Name = 
REMARK  5 active torsions:
REMARK  status: ('A' for Active; 'I' for Inactive)
REMARK    1  A    between atoms: C_2  and  C_4
REMARK    2  A    between atoms: C_6  and  C_7
REMARK    3  A    between atoms: C_7  and  O_9
REMARK    4  A    between atoms: C_11  and  C_12
REMARK    5  A    between atoms: C_16  and  C_17
REMARK                            x       y       z     vdW  Elec       q    Type
REMARK                         _______ _______ _______ _____ _____    ______ ____
ROOT
ATOM      1  C   UNL     1       5.268   4.787  19.154  0.00  0.00    +0.000 A 
ATOM      2  C   UNL     1       4.568   3.581  19.172  0.00  0.00    +0.000 A 
ATOM      3  C   UNL     1       3.170   3.595  19.159  0.00  0.00    +0.000 A 
ATOM      4  C   UNL     1       2.481   4.815  19.125  0.00  0.00    +0.000 A 
ATOM      5  C   UNL     1       3.167   6.047  19.095  0.00  0.00    +0.000 A 
ATOM      6  C   UNL     1       4.573   6.004  19.131  0.00  0.00    +0.000 A 
ENDROOT
BRANCH   5   7
ATOM      7  C   UNL     1       2.442   7.330  18.926  0.00  0.00    +0.000 A 
ATOM      8  C   UNL     1       2.582   8.088  17.751  0.00  0.00    +0.000 A 
ATOM      9  C   UNL     1       1.981   9.337  17.620  0.00  0.00    +0.000 A 
ATOM     10  C   UNL     1       1.251   9.872  18.677  0.00  0.00    +0.000 A 
ATOM     11  C   UNL     1       1.066   9.159  19.873  0.00  0.00    +0.000 A 
ATOM     12  C   UNL     1       1.646   7.876  19.955  0.00  0.00    +0.000 A 
BRANCH  11  13
ATOM     13  C   UNL     1       0.345   9.765  21.020  0.00  0.00    +0.000 A 
ATOM     14  C   UNL     1       0.315   9.143  22.282  0.00  0.00    +0.000 A 
ATOM     15  C   UNL     1      -0.429   9.671  23.343  0.00  0.00    +0.000 A 
ATOM     16  C   UNL     1      -1.142  10.851  23.174  0.00  0.00    +0.000 A 
ATOM     17  C   UNL     1      -1.110  11.505  21.947  0.00  0.00    +0.000 A 
ATOM     18  C   UNL     1      -0.379  10.965  20.883  0.00  0.00    +0.000 A 
ENDBRANCH  11  13
ENDBRANCH   5   7
BRANCH   1  20
ATOM     19  N   UNL     1       7.350   4.313  17.997  0.00  0.00    +0.000 N 
ATOM     20  C   UNL     1       6.752   4.818  19.117  0.00  0.00    +0.000 C 
ATOM     21  O   UNL     1       7.403   5.319  20.024  0.00  0.00    +0.000 OA
ATOM     22  H   UNL     1       8.352   4.430  17.922  0.00  0.00    +0.000 HD
ATOM     23  H   UNL     1       6.839   4.117  17.146  0.00  0.00    +0.000 HD
ENDBRANCH   1  20
BRANCH   3  24
ATOM     24  C   UNL     1       2.474   2.286  19.061  0.00  0.00    +0.000 C 
ATOM     25  O   UNL     1       1.417   2.076  19.627  0.00  0.00    +0.000 OA
BRANCH  24  26
ATOM     26  O   UNL     1       3.098   1.365  18.301  0.00  0.00    +0.000 OA
ATOM     27  H   UNL     1       4.052   1.495  18.164  0.00  0.00    +0.000 HD
ENDBRANCH  24  26
ENDBRANCH   3  24
TORSDOF 5
ENDMDL
MODEL 3
REMARK VINA RESULT:      -8.7      1.726      2.143
REMARK  Name = 
REMARK  5 active torsions:
REMARK  status: ('A' for Active; 'I' for Inactive)
REMARK    1  A    between atoms: C_2  and  C_4
REMARK    2  A    between atoms: C_6  and  C_7
REMARK    3  A    between atoms: C_7  and  O_9
REMARK    4  A    between atoms: C_11  and  C_12
REMARK    5  A    between atoms: C_16  and  C_17
REMARK                            x       y       z     vdW  Elec       q    Type
REMARK                         _______ _______ _______ _____ _____    ______ ____
ROOT
ATOM      1  C   UNL     1       5.449   4.849  18.967  0.00  0.00    +0.000 A 
ATOM      2  C   UNL     1       4.806   3.631  18.742  0.00  0.00    +0.000 A 
ATOM      3  C   UNL     1       3.420   3.606  18.559  0.00  0.00    +0.000 A 
ATOM      4  C   UNL     1       2.686   4.798  18.599  0.00  0.00    +0.000 A 
ATOM      5  C   UNL     1       3.314   6.043  18.813  0.00  0.00    +0.000 A 
ATOM      6  C   UNL     1       4.707   6.037  19.016  0.00  0.00    +0.000 A 
ENDROOT
BRANCH   5   7
ATOM      7  C   UNL     1       2.557   7.316  18.723  0.00  0.00    +0.000 A 
ATOM      8  C   UNL     1       2.679   8.150  17.599  0.00  0.00    +0.000 A 
ATOM      9  C   UNL     1       2.047   9.389  17.544  0.00  0.00    +0.000 A 
ATOM     10  C   UNL     1       1.302   9.837  18.632  0.00  0.00    +0.000 A 
ATOM     11  C   UNL     1       1.135   9.047  19.780  0.00  0.00    +0.000 A 
ATOM     12  C   UNL     1       1.746   7.776  19.782  0.00  0.00    +0.000 A 
BRANCH  11  13
ATOM     13  C   UNL     1       0.397   9.561  20.961  0.00  0.00    +0.000 A 
ATOM     14  C   UNL     1      -0.430  10.696  20.875  0.00  0.00    +0.000 A 
ATOM     15  C   UNL     1      -1.064  11.229  22.001  0.00  0.00    +0.000 A 
ATOM     16  C   UNL     1      -0.905  10.624  23.242  0.00  0.00    +0.000 A 
ATOM     17  C   UNL     1      -0.116   9.485  23.355  0.00  0.00    +0.000 A 
ATOM     18  C   UNL     1       0.530   8.964  22.229  0.00  0.00    +0.000 A 
ENDBRANCH  11  13
ENDBRANCH   5   7
BRANCH   1  20
ATOM     19  N   UNL     1       7.673   4.422  18.093  0.00  0.00    +0.000 N 
ATOM     20  C   UNL     1       6.923   4.928  19.117  0.00  0.00    +0.000 C 
ATOM     21  O   UNL     1       7.438   5.466  20.087  0.00  0.00    +0.000 OA
ATOM     22  H   UNL     1       8.673   4.570  18.143  0.00  0.00    +0.000 HD
ATOM     23  H   UNL     1       7.281   4.193  17.189  0.00  0.00    +0.000 HD
ENDBRANCH   1  20
BRANCH   3  24
ATOM     24  C   UNL     1       2.800   2.302  18.208  0.00  0.00    +0.000 C 
ATOM     25  O   UNL     1       1.640   2.218  17.848  0.00  0.00    +0.000 OA
BRANCH  24  26
ATOM     26  O   UNL     1       3.617   1.236  18.317  0.00  0.00    +0.000 OA
ATOM     27  H   UNL     1       4.535   1.366  18.024  0.00  0.00    +0.000 HD
ENDBRANCH  24  26
ENDBRANCH   3  24
TORSDOF 5
ENDMDL
MODEL 4
REMARK VINA RESULT:      -8.7      4.284      7.791
REMARK  Name = 
REMARK  5 active torsions:
REMARK  status: ('A' for Active; 'I' for Inactive)
REMARK    1  A    between atoms: C_2  and  C_4
REMARK    2  A    between atoms: C_6  and  C_7
REMARK    3  A    between atoms: C_7  and  O_9
REMARK    4  A    between atoms: C_11  and  C_12
REMARK    5  A    between atoms: C_16  and  C_17
REMARK                            x       y       z     vdW  Elec       q    Type
REMARK                         _______ _______ _______ _____ _____    ______ ____
ROOT
ATOM      1  C   UNL     1      -0.343  10.534  21.296  0.00  0.00    +0.000 A 
ATOM      2  C   UNL     1      -1.040  11.304  20.364  0.00  0.00    +0.000 A 
ATOM      3  C   UNL     1      -0.749  11.171  19.004  0.00  0.00    +0.000 A 
ATOM      4  C   UNL     1       0.236  10.268  18.582  0.00  0.00    +0.000 A 
ATOM      5  C   UNL     1       0.946   9.470  19.504  0.00  0.00    +0.000 A 
ATOM      6  C   UNL     1       0.648   9.640  20.869  0.00  0.00    +0.000 A 
ENDROOT
BRANCH   5   7
ATOM      7  C   UNL     1       1.891   8.421  19.050  0.00  0.00    +0.000 A 
ATOM      8  C   UNL     1       2.590   8.555  17.838  0.00  0.00    +0.000 A 
ATOM      9  C   UNL     1       3.406   7.536  17.357  0.00  0.00    +0.000 A 
ATOM     10  C   UNL     1       3.518   6.342  18.063  0.00  0.00    +0.000 A 
ATOM     11  C   UNL     1       2.852   6.150  19.285  0.00  0.00    +0.000 A 
ATOM     12  C   UNL     1       2.073   7.221  19.770  0.00  0.00    +0.000 A 
BRANCH  11  13
ATOM     13  C   UNL     1       2.921   4.849  19.996  0.00  0.00    +0.000 A 
ATOM     14  C   UNL     1       3.820   3.841  19.601  0.00  0.00    +0.000 A 
ATOM     15  C   UNL     1       3.833   2.586  20.219  0.00  0.00    +0.000 A 
ATOM     16  C   UNL     1       2.960   2.316  21.266  0.00  0.00    +0.000 A 
ATOM     17  C   UNL     1       2.078   3.300  21.698  0.00  0.00    +0.000 A 
ATOM     18  C   UNL     1       2.057   4.548  21.066  0.00  0.00    +0.000 A 
ENDBRANCH  11  13
ENDBRANCH   5   7
BRANCH   1  20
ATOM     19  N   UNL     1      -0.498   9.456  23.466  0.00  0.00    +0.000 N 
ATOM     20  C   UNL     1      -0.655  10.607  22.746  0.00  0.00    +0.000 C 
ATOM     21  O   UNL     1      -0.986  11.658  23.276  0.00  0.00    +0.000 OA
ATOM     22  H   UNL     1      -0.606   9.528  24.470  0.00  0.00    +0.000 HD
ATOM     23  H   UNL     1      -0.006   8.649  23.107  0.00  0.00    +0.000 HD
ENDBRANCH   1  20
BRANCH   3  24
ATOM     24  C   UNL     1      -1.597  11.926  18.046  0.00  0.00    +0.000 C 
ATOM     25  O   UNL     1      -2.750  11.607  17.817  0.00  0.00    +0.000 OA
BRANCH  24  26
ATOM     26  O   UNL     1      -0.995  12.980  17.460  0.00  0.00    +0.000 OA
ATOM     27  H   UNL     1      -0.236  12.777  16.887  0.00  0.00    +0.000 HD
ENDBRANCH  24  26
ENDBRANCH   3  24
TORSDOF 5
ENDMDL
MODEL 5
REMARK VINA RESULT:      -8.6      1.363      3.044
REMARK  Name = 
REMARK  5 active torsions:
REMARK  status: ('A' for Active; 'I' for Inactive)
REMARK    1  A    between atoms: C_2  and  C_4
REMARK    2  A    between atoms: C_6  and  C_7
REMARK    3  A    between atoms: C_7  and  O_9
REMARK    4  A    between atoms: C_11  and  C_12
REMARK    5  A    between atoms: C_16  and  C_17
REMARK                            x       y       z     vdW  Elec       q    Type
REMARK                         _______ _______ _______ _____ _____    ______ ____
ROOT
ATOM      1  C   UNL     1       2.511   4.286  20.336  0.00  0.00    +0.000 A 
ATOM      2  C   UNL     1       3.768   3.955  19.832  0.00  0.00    +0.000 A 
ATOM      3  C   UNL     1       4.457   4.874  19.035  0.00  0.00    +0.000 A 
ATOM      4  C   UNL     1       3.885   6.122  18.750  0.00  0.00    +0.000 A 
ATOM      5  C   UNL     1       2.619   6.484  19.258  0.00  0.00    +0.000 A 
ATOM      6  C   UNL     1       1.939   5.531  20.038  0.00  0.00    +0.000 A 
ENDROOT
BRANCH   5   7
ATOM      7  C   UNL     1       2.074   7.850  19.066  0.00  0.00    +0.000 A 
ATOM      8  C   UNL     1       2.380   8.595  17.915  0.00  0.00    +0.000 A 
ATOM      9  C   UNL     1       1.951   9.911  17.769  0.00  0.00    +0.000 A 
ATOM     10  C   UNL     1       1.231  10.525  18.790  0.00  0.00    +0.000 A 
ATOM     11  C   UNL     1       0.885   9.832  19.961  0.00  0.00    +0.000 A 
ATOM     12  C   UNL     1       1.292   8.484  20.056  0.00  0.00    +0.000 A 
BRANCH  11  13
ATOM     13  C   UNL     1       0.178  10.514  21.072  0.00  0.00    +0.000 A 
ATOM     14  C   UNL     1      -0.317   9.799  22.179  0.00  0.00    +0.000 A 
ATOM     15  C   UNL     1      -1.053  10.427  23.189  0.00  0.00    +0.000 A 
ATOM     16  C   UNL     1      -1.291  11.795  23.130  0.00  0.00    +0.000 A 
ATOM     17  C   UNL     1      -0.792  12.534  22.063  0.00  0.00    +0.000 A 
ATOM     18  C   UNL     1      -0.071  11.899  21.046  0.00  0.00    +0.000 A 
ENDBRANCH  11  13
ENDBRANCH   5   7
BRANCH   1  20
ATOM     19  N   UNL     1       0.628   2.802  20.718  0.00  0.00    +0.000 N 
ATOM     20  C   UNL     1       1.766   3.360  21.226  0.00  0.00    +0.000 C 
ATOM     21  O   UNL     1       2.182   3.074  22.340  0.00  0.00    +0.000 OA
ATOM     22  H   UNL     1       0.177   2.091  21.280  0.00  0.00    +0.000 HD
ATOM     23  H   UNL     1       0.395   2.834  19.734  0.00  0.00    +0.000 HD
ENDBRANCH   1  20
BRANCH   3  24
ATOM     24  C   UNL     1       5.839   4.521  18.621  0.00  0.00    +0.000 C 
ATOM     25  O   UNL     1       6.815   4.913  19.234  0.00  0.00    +0.000 OA
BRANCH  24  26
ATOM     26  O   UNL     1       5.922   3.739  17.526  0.00  0.00    +0.000 OA
ATOM     27  H   UNL     1       6.244   2.833  17.669  0.00  0.00    +0.000 HD
ENDBRANCH  24  26
ENDBRANCH   3  24
TORSDOF 5
ENDMDL
MODEL 6
REMARK VINA RESULT:      -8.6      1.419      3.281
REMARK  Name = 
REMARK  5 active torsions:
REMARK  status: ('A' for Active; 'I' for Inactive)
REMARK    1  A    between atoms: C_2  and  C_4
REMARK    2  A    between atoms: C_6  and  C_7
REMARK    3  A    between atoms: C_7  and  O_9
REMARK    4  A    between atoms: C_11  and  C_12
REMARK    5  A    between atoms: C_16  and  C_17
REMARK                            x       y       z     vdW  Elec       q    Type
REMARK                         _______ _______ _______ _____ _____    ______ ____
ROOT
ATOM      1  C   UNL     1       2.878   4.132  20.159  0.00  0.00    +0.000 A 
ATOM      2  C   UNL     1       4.116   3.869  19.572  0.00  0.00    +0.000 A 
ATOM      3  C   UNL     1       4.701   4.825  18.736  0.00  0.00    +0.000 A 
ATOM      4  C   UNL     1       4.045   6.040  18.494  0.00  0.00    +0.000 A 
ATOM      5  C   UNL     1       2.798   6.334  19.085  0.00  0.00    +0.000 A 
ATOM      6  C   UNL     1       2.223   5.344  19.904  0.00  0.00    +0.000 A 
ENDROOT
BRANCH   5   7
ATOM      7  C   UNL     1       2.169   7.669  18.936  0.00  0.00    +0.000 A 
ATOM      8  C   UNL     1       2.470   8.490  17.835  0.00  0.00    +0.000 A 
ATOM      9  C   UNL     1       1.959   9.780  17.734  0.00  0.00    +0.000 A 
ATOM     10  C   UNL     1       1.158  10.293  18.750  0.00  0.00    +0.000 A 
ATOM     11  C   UNL     1       0.814   9.520  19.871  0.00  0.00    +0.000 A 
ATOM     12  C   UNL     1       1.307   8.199  19.919  0.00  0.00    +0.000 A 
BRANCH  11  13
ATOM     13  C   UNL     1       0.018  10.097  20.982  0.00  0.00    +0.000 A 
ATOM     14  C   UNL     1      -0.663  11.321  20.841  0.00  0.00    +0.000 A 
ATOM     15  C   UNL     1      -1.349  11.906  21.910  0.00  0.00    +0.000 A 
ATOM     16  C   UNL     1      -1.392  11.268  23.144  0.00  0.00    +0.000 A 
ATOM     17  C   UNL     1      -0.752  10.044  23.308  0.00  0.00    +0.000 A 
ATOM     18  C   UNL     1      -0.052   9.470  22.241  0.00  0.00    +0.000 A 
ENDBRANCH  11  13
ENDBRANCH   5   7
BRANCH   1  20
ATOM     19  N   UNL     1       0.895   2.992  20.971  0.00  0.00    +0.000 N 
ATOM     20  C   UNL     1       2.244   3.167  21.091  0.00  0.00    +0.000 C 
ATOM     21  O   UNL     1       2.908   2.524  21.893  0.00  0.00    +0.000 OA
ATOM     22  H   UNL     1       0.478   2.259  21.531  0.00  0.00    +0.000 HD
ATOM     23  H   UNL     1       0.369   3.325  20.174  0.00  0.00    +0.000 HD
ENDBRANCH   1  20
BRANCH   3  24
ATOM     24  C   UNL     1       6.070   4.547  18.230  0.00  0.00    +0.000 C 
ATOM     25  O   UNL     1       6.270   4.168  17.091  0.00  0.00    +0.000 OA
BRANCH  24  26
ATOM     26  O   UNL     1       7.058   4.748  19.124  0.00  0.00    +0.000 OA
ATOM     27  H   UNL     1       7.892   5.103  18.770  0.00  0.00    +0.000 HD
ENDBRANCH  24  26
ENDBRANCH   3  24
TORSDOF 5
ENDMDL
MODEL 7
REMARK VINA RESULT:      -8.6      4.297      7.795
REMARK  Name = 
REMARK  5 active torsions:
REMARK  status: ('A' for Active; 'I' for Inactive)
REMARK    1  A    between atoms: C_2  and  C_4
REMARK    2  A    between atoms: C_6  and  C_7
REMARK    3  A    between atoms: C_7  and  O_9
REMARK    4  A    between atoms: C_11  and  C_12
REMARK    5  A    between atoms: C_16  and  C_17
REMARK                            x       y       z     vdW  Elec       q    Type
REMARK                         _______ _______ _______ _____ _____    ______ ____
ROOT
ATOM      1  C   UNL     1      -0.393  10.553  21.335  0.00  0.00    +0.000 A 
ATOM      2  C   UNL     1      -1.138  11.288  20.412  0.00  0.00    +0.000 A 
ATOM      3  C   UNL     1      -0.885  11.138  19.046  0.00  0.00    +0.000 A 
ATOM      4  C   UNL     1       0.109  10.252  18.609  0.00  0.00    +0.000 A 
ATOM      5  C   UNL     1       0.867   9.490  19.523  0.00  0.00    +0.000 A 
ATOM      6  C   UNL     1       0.607   9.677  20.893  0.00  0.00    +0.000 A 
ENDROOT
BRANCH   5   7
ATOM      7  C   UNL     1       1.825   8.457  19.057  0.00  0.00    +0.000 A 
ATOM      8  C   UNL     1       2.558   8.634  17.871  0.00  0.00    +0.000 A 
ATOM      9  C   UNL     1       3.387   7.632  17.376  0.00  0.00    +0.000 A 
ATOM     10  C   UNL     1       3.478   6.413  18.042  0.00  0.00    +0.000 A 
ATOM     11  C   UNL     1       2.779   6.177  19.236  0.00  0.00    +0.000 A 
ATOM     12  C   UNL     1       1.986   7.231  19.738  0.00  0.00    +0.000 A 
BRANCH  11  13
ATOM     13  C   UNL     1       2.827   4.852  19.902  0.00  0.00    +0.000 A 
ATOM     14  C   UNL     1       2.004   4.550  21.003  0.00  0.00    +0.000 A 
ATOM     15  C   UNL     1       2.102   3.331  21.681  0.00  0.00    +0.000 A 
ATOM     16  C   UNL     1       3.013   2.370  21.257  0.00  0.00    +0.000 A 
ATOM     17  C   UNL     1       3.822   2.627  20.156  0.00  0.00    +0.000 A 
ATOM     18  C   UNL     1       3.732   3.854  19.491  0.00  0.00    +0.000 A 
ENDBRANCH  11  13
ENDBRANCH   5   7
BRANCH   1  20
ATOM     19  N   UNL     1      -1.743  11.388  23.173  0.00  0.00    +0.000 N 
ATOM     20  C   UNL     1      -0.662  10.644  22.792  0.00  0.00    +0.000 C 
ATOM     21  O   UNL     1       0.023  10.041  23.606  0.00  0.00    +0.000 OA
ATOM     22  H   UNL     1      -1.990  11.364  24.154  0.00  0.00    +0.000 HD
ATOM     23  H   UNL     1      -2.452  11.694  22.520  0.00  0.00    +0.000 HD
ENDBRANCH   1  20
BRANCH   3  24
ATOM     24  C   UNL     1      -1.782  11.854  18.101  0.00  0.00    +0.000 C 
ATOM     25  O   UNL     1      -2.990  11.710  18.127  0.00  0.00    +0.000 OA
BRANCH  24  26
ATOM     26  O   UNL     1      -1.155  12.667  17.227  0.00  0.00    +0.000 OA
ATOM     27  H   UNL     1      -1.365  12.531  16.288  0.00  0.00    +0.000 HD
ENDBRANCH  24  26
ENDBRANCH   3  24
TORSDOF 5
ENDMDL
MODEL 8
REMARK VINA RESULT:      -8.6      3.445      7.984
REMARK  Name = 
REMARK  5 active torsions:
REMARK  status: ('A' for Active; 'I' for Inactive)
REMARK    1  A    between atoms: C_2  and  C_4
REMARK    2  A    between atoms: C_6  and  C_7
REMARK    3  A    between atoms: C_7  and  O_9
REMARK    4  A    between atoms: C_11  and  C_12
REMARK    5  A    between atoms: C_16  and  C_17
REMARK                            x       y       z     vdW  Elec       q    Type
REMARK                         _______ _______ _______ _____ _____    ______ ____
ROOT
ATOM      1  C   UNL     1       2.226   6.607  20.085  0.00  0.00    +0.000 A 
ATOM      2  C   UNL     1       1.590   5.491  20.629  0.00  0.00    +0.000 A 
ATOM      3  C   UNL     1       2.114   4.216  20.395  0.00  0.00    +0.000 A 
ATOM      4  C   UNL     1       3.273   4.065  19.622  0.00  0.00    +0.000 A 
ATOM      5  C   UNL     1       3.940   5.180  19.071  0.00  0.00    +0.000 A 
ATOM      6  C   UNL     1       3.378   6.449  19.304  0.00  0.00    +0.000 A 
ENDROOT
BRANCH   5   7
ATOM      7  C   UNL     1       5.237   5.031  18.366  0.00  0.00    +0.000 A 
ATOM      8  C   UNL     1       6.448   5.331  19.013  0.00  0.00    +0.000 A 
ATOM      9  C   UNL     1       7.662   5.286  18.333  0.00  0.00    +0.000 A 
ATOM     10  C   UNL     1       7.689   4.970  16.978  0.00  0.00    +0.000 A 
ATOM     11  C   UNL     1       6.514   4.652  16.277  0.00  0.00    +0.000 A 
ATOM     12  C   UNL     1       5.306   4.658  17.007  0.00  0.00    +0.000 A 
BRANCH  11  13
ATOM     13  C   UNL     1       6.543   4.384  14.818  0.00  0.00    +0.000 A 
ATOM     14  C   UNL     1       7.550   4.917  13.992  0.00  0.00    +0.000 A 
ATOM     15  C   UNL     1       7.537   4.732  12.606  0.00  0.00    +0.000 A 
ATOM     16  C   UNL     1       6.525   3.986  12.012  0.00  0.00    +0.000 A 
ATOM     17  C   UNL     1       5.530   3.424  12.804  0.00  0.00    +0.000 A 
ATOM     18  C   UNL     1       5.538   3.626  14.188  0.00  0.00    +0.000 A 
ENDBRANCH  11  13
ENDBRANCH   5   7
BRANCH   1  20
ATOM     19  N   UNL     1       1.558   8.333  21.657  0.00  0.00    +0.000 N 
ATOM     20  C   UNL     1       1.732   7.983  20.348  0.00  0.00    +0.000 C 
ATOM     21  O   UNL     1       1.540   8.777  19.438  0.00  0.00    +0.000 OA
ATOM     22  H   UNL     1       1.325   9.300  21.844  0.00  0.00    +0.000 HD
ATOM     23  H   UNL     1       1.931   7.787  22.423  0.00  0.00    +0.000 HD
ENDBRANCH   1  20
BRANCH   3  24
ATOM     24  C   UNL     1       1.469   3.073  21.091  0.00  0.00    +0.000 C 
ATOM     25  O   UNL     1       1.942   2.584  22.100  0.00  0.00    +0.000 OA
BRANCH  24  26
ATOM     26  O   UNL     1       0.329   2.631  20.523  0.00  0.00    +0.000 OA
ATOM     27  H   UNL     1      -0.425   3.244  20.538  0.00  0.00    +0.000 HD
ENDBRANCH  24  26
ENDBRANCH   3  24
TORSDOF 5
ENDMDL
MODEL 9
REMARK VINA RESULT:      -8.6      1.285      3.135
REMARK  Name = 
REMARK  5 active torsions:
REMARK  status: ('A' for Active; 'I' for Inactive)
REMARK    1  A    between atoms: C_2  and  C_4
REMARK    2  A    between atoms: C_6  and  C_7
REMARK    3  A    between atoms: C_7  and  O_9
REMARK    4  A    between atoms: C_11  and  C_12
REMARK    5  A    between atoms: C_16  and  C_17
REMARK                            x       y       z     vdW  Elec       q    Type
REMARK                         _______ _______ _______ _____ _____    ______ ____
ROOT
ATOM      1  C   UNL     1       3.296   3.776  19.399  0.00  0.00    +0.000 A 
ATOM      2  C   UNL     1       4.688   3.769  19.304  0.00  0.00    +0.000 A 
ATOM      3  C   UNL     1       5.364   4.949  18.985  0.00  0.00    +0.000 A 
ATOM      4  C   UNL     1       4.645   6.132  18.766  0.00  0.00    +0.000 A 
ATOM      5  C   UNL     1       3.238   6.168  18.868  0.00  0.00    +0.000 A 
ATOM      6  C   UNL     1       2.582   4.959  19.168  0.00  0.00    +0.000 A 
ENDROOT
BRANCH   5   7
ATOM      7  C   UNL     1       2.489   7.444  18.768  0.00  0.00    +0.000 A 
ATOM      8  C   UNL     1       2.587   8.250  17.621  0.00  0.00    +0.000 A 
ATOM      9  C   UNL     1       1.964   9.493  17.555  0.00  0.00    +0.000 A 
ATOM     10  C   UNL     1       1.252   9.974  18.651  0.00  0.00    +0.000 A 
ATOM     11  C   UNL     1       1.110   9.212  19.822  0.00  0.00    +0.000 A 
ATOM     12  C   UNL     1       1.711   7.936  19.838  0.00  0.00    +0.000 A 
BRANCH  11  13
ATOM     13  C   UNL     1       0.410   9.760  21.010  0.00  0.00    +0.000 A 
ATOM     14  C   UNL     1       0.351   9.049  22.223  0.00  0.00    +0.000 A 
ATOM     15  C   UNL     1      -0.374   9.527  23.319  0.00  0.00    +0.000 A 
ATOM     16  C   UNL     1      -1.041  10.743  23.236  0.00  0.00    +0.000 A 
ATOM     17  C   UNL     1      -0.981  11.483  22.060  0.00  0.00    +0.000 A 
ATOM     18  C   UNL     1      -0.268  10.993  20.961  0.00  0.00    +0.000 A 
ENDBRANCH  11  13
ENDBRANCH   5   7
BRANCH   1  20
ATOM     19  N   UNL     1       2.364   1.612  18.812  0.00  0.00    +0.000 N 
ATOM     20  C   UNL     1       2.541   2.557  19.783  0.00  0.00    +0.000 C 
ATOM     21  O   UNL     1       2.143   2.387  20.927  0.00  0.00    +0.000 OA
ATOM     22  H   UNL     1       1.945   0.736  19.098  0.00  0.00    +0.000 HD
ATOM     23  H   UNL     1       2.880   1.619  17.942  0.00  0.00    +0.000 HD
ENDBRANCH   1  20
BRANCH   3  24
ATOM     24  C   UNL     1       6.849   4.916  19.010  0.00  0.00    +0.000 C 
ATOM     25  O   UNL     1       7.498   4.460  18.087  0.00  0.00    +0.000 OA
BRANCH  24  26
ATOM     26  O   UNL     1       7.411   5.429  20.123  0.00  0.00    +0.000 OA
ATOM     27  H   UNL     1       7.064   6.286  20.424  0.00  0.00    +0.000 HD
ENDBRANCH  24  26
ENDBRANCH   3  24
TORSDOF 5
ENDMDL
