MODEL 1
REMARK VINA RESULT:      -7.0      0.000      0.000
REMARK  Name = 
REMARK  8 active torsions:
REMARK  status: ('A' for Active; 'I' for Inactive)
REMARK    1  A    between atoms: C_1  and  O_2
REMARK    2  A    between atoms: O_2  and  C_3
REMARK    3  A    between atoms: C_5  and  S_6
REMARK    4  A    between atoms: S_6  and  C_7
REMARK    5  A    between atoms: C_10  and  C_11
REMARK    6  A    between atoms: C_11  and  O_13
REMARK    7  A    between atoms: O_13  and  C_14
REMARK    8  A    between atoms: C_14  and  C_15
REMARK                            x       y       z     vdW  Elec       q    Type
REMARK                         _______ _______ _______ _____ _____    ______ ____
ROOT
ATOM      1  C   UNL     1       3.240   4.014  17.460  0.00  0.00    +0.000 C 
ATOM      2  O   UNL     1       2.448   3.431  16.730  0.00  0.00    +0.000 OA
ENDROOT
BRANCH   1   8
ATOM      3  C   UNL     1       2.331   4.760  19.804  0.00  0.00    +0.000 A 
ATOM      4  C   UNL     1       1.876   5.855  20.575  0.00  0.00    +0.000 A 
ATOM      5  C   UNL     1       1.863   7.172  20.098  0.00  0.00    +0.000 A 
ATOM      6  C   UNL     1       2.332   7.406  18.813  0.00  0.00    +0.000 A 
ATOM      7  C   UNL     1       2.803   6.338  18.037  0.00  0.00    +0.000 A 
ATOM      8  C   UNL     1       2.810   4.998  18.504  0.00  0.00    +0.000 A 
BRANCH   3  10
ATOM      9  C   UNL     1       1.016   2.741  19.960  0.00  0.00    +0.000 C 
ATOM     10  O   UNL     1       2.053   3.579  20.437  0.00  0.00    +0.000 OA
ENDBRANCH   3  10
BRANCH   5  11
ATOM     11  S   UNL     1       1.272   8.449  21.198  0.00  0.00    +0.000 S 
ATOM     12  C   UNL     1       0.755   9.759  20.055  0.00  0.00    +0.000 C 
ENDBRANCH   5  11
ENDBRANCH   1   8
BRANCH   1  13
ATOM     13  O   UNL     1       4.572   3.837  17.407  0.00  0.00    +0.000 OA
BRANCH  13  14
ATOM     14  C   UNL     1       5.181   4.112  16.137  0.00  0.00    +0.000 C 
BRANCH  14  15
ATOM     15  C   UNL     1       5.737   5.535  16.154  0.00  0.00    +0.000 C 
ATOM     16  O   UNL     1       5.311   6.403  15.406  0.00  0.00    +0.000 OA
ATOM     17  N   UNL     1       6.747   5.808  17.052  0.00  0.00    +0.000 N 
ATOM     18  C   UNL     1       7.385   4.910  17.992  0.00  0.00    +0.000 C 
ATOM     19  C   UNL     1       7.753   5.835  19.140  0.00  0.00    +0.000 C 
ATOM     20  C   UNL     1       8.112   7.147  18.442  0.00  0.00    +0.000 C 
ATOM     21  C   UNL     1       7.274   7.153  17.171  0.00  0.00    +0.000 C 
ENDBRANCH  14  15
ENDBRANCH  13  14
ENDBRANCH   1  13
TORSDOF 6
ENDMDL
MODEL 2
REMARK VINA RESULT:      -6.7      2.804      4.752
REMARK  Name = 
REMARK  8 active torsions:
REMARK  status: ('A' for Active; 'I' for Inactive)
REMARK    1  A    between atoms: C_1  and  O_2
REMARK    2  A    between atoms: O_2  and  C_3
REMARK    3  A    between atoms: C_5  and  S_6
REMARK    4  A    between atoms: S_6  and  C_7
REMARK    5  A    between atoms: C_10  and  C_11
REMARK    6  A    between atoms: C_11  and  O_13
REMARK    7  A    between atoms: O_13  and  C_14
REMARK    8  A    between atoms: C_14  and  C_15
REMARK                            x       y       z     vdW  Elec       q    Type
REMARK                         _______ _______ _______ _____ _____    ______ ____
ROOT
ATOM      1  C   UNL     1       5.803   6.783  16.652  0.00  0.00    +0.000 C 
ATOM      2  O   UNL     1       6.796   7.473  16.846  0.00  0.00    +0.000 OA
ENDROOT
BRANCH   1   8
ATOM      3  C   UNL     1       5.281   5.425  18.833  0.00  0.00    +0.000 A 
ATOM      4  C   UNL     1       4.260   4.980  19.705  0.00  0.00    +0.000 A 
ATOM      5  C   UNL     1       2.913   5.329  19.543  0.00  0.00    +0.000 A 
ATOM      6  C   UNL     1       2.576   6.160  18.484  0.00  0.00    +0.000 A 
ATOM      7  C   UNL     1       3.575   6.626  17.618  0.00  0.00    +0.000 A 
ATOM      8  C   UNL     1       4.940   6.270  17.763  0.00  0.00    +0.000 A 
BRANCH   3  10
ATOM      9  C   UNL     1       7.581   5.515  19.563  0.00  0.00    +0.000 C 
ATOM     10  O   UNL     1       6.458   4.782  19.107  0.00  0.00    +0.000 OA
ENDBRANCH   3  10
BRANCH   5  11
ATOM     11  S   UNL     1       1.742   4.699  20.736  0.00  0.00    +0.000 S 
ATOM     12  C   UNL     1       0.941   3.341  19.838  0.00  0.00    +0.000 C 
ENDBRANCH   5  11
ENDBRANCH   1   8
BRANCH   1  13
ATOM     13  O   UNL     1       5.380   6.413  15.430  0.00  0.00    +0.000 OA
BRANCH  13  14
ATOM     14  C   UNL     1       5.491   5.013  15.136  0.00  0.00    +0.000 C 
BRANCH  14  15
ATOM     15  C   UNL     1       6.665   4.800  14.182  0.00  0.00    +0.000 C 
ATOM     16  O   UNL     1       7.774   5.258  14.412  0.00  0.00    +0.000 OA
ATOM     17  N   UNL     1       6.425   4.065  13.041  0.00  0.00    +0.000 N 
ATOM     18  C   UNL     1       5.183   3.468  12.596  0.00  0.00    +0.000 C 
ATOM     19  C   UNL     1       5.656   2.239  11.837  0.00  0.00    +0.000 C 
ATOM     20  C   UNL     1       6.960   2.700  11.186  0.00  0.00    +0.000 C 
ATOM     21  C   UNL     1       7.508   3.766  12.125  0.00  0.00    +0.000 C 
ENDBRANCH  14  15
ENDBRANCH  13  14
ENDBRANCH   1  13
TORSDOF 6
ENDMDL
MODEL 3
REMARK VINA RESULT:      -6.6      2.090      2.971
REMARK  Name = 
REMARK  8 active torsions:
REMARK  status: ('A' for Active; 'I' for Inactive)
REMARK    1  A    between atoms: C_1  and  O_2
REMARK    2  A    between atoms: O_2  and  C_3
REMARK    3  A    between atoms: C_5  and  S_6
REMARK    4  A    between atoms: S_6  and  C_7
REMARK    5  A    between atoms: C_10  and  C_11
REMARK    6  A    between atoms: C_11  and  O_13
REMARK    7  A    between atoms: O_13  and  C_14
REMARK    8  A    between atoms: C_14  and  C_15
REMARK                            x       y       z     vdW  Elec       q    Type
REMARK                         _______ _______ _______ _____ _____    ______ ____
ROOT
ATOM      1  C   UNL     1       3.838   4.505  17.344  0.00  0.00    +0.000 C 
ATOM      2  O   UNL     1       3.418   3.385  17.077  0.00  0.00    +0.000 OA
ENDROOT
BRANCH   1   8
ATOM      3  C   UNL     1       2.731   5.001  19.668  0.00  0.00    +0.000 A 
ATOM      4  C   UNL     1       2.097   5.985  20.463  0.00  0.00    +0.000 A 
ATOM      5  C   UNL     1       1.927   7.311  20.045  0.00  0.00    +0.000 A 
ATOM      6  C   UNL     1       2.418   7.671  18.799  0.00  0.00    +0.000 A 
ATOM      7  C   UNL     1       3.065   6.716  18.001  0.00  0.00    +0.000 A 
ATOM      8  C   UNL     1       3.232   5.368  18.407  0.00  0.00    +0.000 A 
BRANCH   3  10
ATOM      9  C   UNL     1       1.739   3.584  21.353  0.00  0.00    +0.000 C 
ATOM     10  O   UNL     1       2.586   3.763  20.232  0.00  0.00    +0.000 OA
ENDBRANCH   3  10
BRANCH   5  11
ATOM     11  S   UNL     1       1.119   8.439  21.170  0.00  0.00    +0.000 S 
ATOM     12  C   UNL     1       0.634   9.811  20.086  0.00  0.00    +0.000 C 
ENDBRANCH   5  11
ENDBRANCH   1   8
BRANCH   1  13
ATOM     13  O   UNL     1       4.881   5.079  16.717  0.00  0.00    +0.000 OA
BRANCH  13  14
ATOM     14  C   UNL     1       5.922   4.182  16.302  0.00  0.00    +0.000 C 
BRANCH  14  15
ATOM     15  C   UNL     1       6.840   4.912  15.324  0.00  0.00    +0.000 C 
ATOM     16  O   UNL     1       7.677   5.718  15.703  0.00  0.00    +0.000 OA
ATOM     17  N   UNL     1       6.689   4.626  13.984  0.00  0.00    +0.000 N 
ATOM     18  C   UNL     1       5.747   3.724  13.354  0.00  0.00    +0.000 C 
ATOM     19  C   UNL     1       6.515   3.236  12.137  0.00  0.00    +0.000 C 
ATOM     20  C   UNL     1       7.331   4.458  11.714  0.00  0.00    +0.000 C 
ATOM     21  C   UNL     1       7.572   5.229  13.005  0.00  0.00    +0.000 C 
ENDBRANCH  14  15
ENDBRANCH  13  14
ENDBRANCH   1  13
TORSDOF 6
ENDMDL
MODEL 4
REMARK VINA RESULT:      -6.5      3.272      6.590
REMARK  Name = 
REMARK  8 active torsions:
REMARK  status: ('A' for Active; 'I' for Inactive)
REMARK    1  A    between atoms: C_1  and  O_2
REMARK    2  A    between atoms: O_2  and  C_3
REMARK    3  A    between atoms: C_5  and  S_6
REMARK    4  A    between atoms: S_6  and  C_7
REMARK    5  A    between atoms: C_10  and  C_11
REMARK    6  A    between atoms: C_11  and  O_13
REMARK    7  A    between atoms: O_13  and  C_14
REMARK    8  A    between atoms: C_14  and  C_15
REMARK                            x       y       z     vdW  Elec       q    Type
REMARK                         _______ _______ _______ _____ _____    ______ ____
ROOT
ATOM      1  C   UNL     1       5.129   4.723  18.484  0.00  0.00    +0.000 C 
ATOM      2  O   UNL     1       5.421   3.854  19.296  0.00  0.00    +0.000 OA
ENDROOT
BRANCH   1   8
ATOM      3  C   UNL     1       6.412   5.899  16.523  0.00  0.00    +0.000 A 
ATOM      4  C   UNL     1       6.829   5.782  15.176  0.00  0.00    +0.000 A 
ATOM      5  C   UNL     1       6.604   4.634  14.404  0.00  0.00    +0.000 A 
ATOM      6  C   UNL     1       5.954   3.564  15.000  0.00  0.00    +0.000 A 
ATOM      7  C   UNL     1       5.547   3.652  16.339  0.00  0.00    +0.000 A 
ATOM      8  C   UNL     1       5.757   4.812  17.127  0.00  0.00    +0.000 A 
BRANCH   3  10
ATOM      9  C   UNL     1       7.714   7.518  17.753  0.00  0.00    +0.000 C 
ATOM     10  O   UNL     1       6.585   7.182  16.967  0.00  0.00    +0.000 OA
ENDBRANCH   3  10
BRANCH   5  11
ATOM     11  S   UNL     1       7.205   4.634  12.722  0.00  0.00    +0.000 S 
ATOM     12  C   UNL     1       6.365   3.199  11.994  0.00  0.00    +0.000 C 
ENDBRANCH   5  11
ENDBRANCH   1   8
BRANCH   1  13
ATOM     13  O   UNL     1       4.220   5.687  18.718  0.00  0.00    +0.000 OA
BRANCH  13  14
ATOM     14  C   UNL     1       3.061   5.661  17.873  0.00  0.00    +0.000 C 
BRANCH  14  15
ATOM     15  C   UNL     1       2.316   4.346  18.096  0.00  0.00    +0.000 C 
ATOM     16  O   UNL     1       2.086   3.571  17.179  0.00  0.00    +0.000 OA
ATOM     17  N   UNL     1       1.909   4.061  19.382  0.00  0.00    +0.000 N 
ATOM     18  C   UNL     1       2.073   4.860  20.578  0.00  0.00    +0.000 C 
ATOM     19  C   UNL     1       2.189   3.808  21.669  0.00  0.00    +0.000 C 
ATOM     20  C   UNL     1       1.249   2.699  21.198  0.00  0.00    +0.000 C 
ATOM     21  C   UNL     1       1.259   2.800  19.679  0.00  0.00    +0.000 C 
ENDBRANCH  14  15
ENDBRANCH  13  14
ENDBRANCH   1  13
TORSDOF 6
ENDMDL
MODEL 5
REMARK VINA RESULT:      -6.4      2.301      3.240
REMARK  Name = 
REMARK  8 active torsions:
REMARK  status: ('A' for Active; 'I' for Inactive)
REMARK    1  A    between atoms: C_1  and  O_2
REMARK    2  A    between atoms: O_2  and  C_3
REMARK    3  A    between atoms: C_5  and  S_6
REMARK    4  A    between atoms: S_6  and  C_7
REMARK    5  A    between atoms: C_10  and  C_11
REMARK    6  A    between atoms: C_11  and  O_13
REMARK    7  A    between atoms: O_13  and  C_14
REMARK    8  A    between atoms: C_14  and  C_15
REMARK                            x       y       z     vdW  Elec       q    Type
REMARK                         _______ _______ _______ _____ _____    ______ ____
ROOT
ATOM      1  C   UNL     1       4.848   4.686  18.105  0.00  0.00    +0.000 C 
ATOM      2  O   UNL     1       5.592   4.046  18.839  0.00  0.00    +0.000 OA
ENDROOT
BRANCH   1   8
ATOM      3  C   UNL     1       3.032   5.706  19.698  0.00  0.00    +0.000 A 
ATOM      4  C   UNL     1       2.172   6.807  19.919  0.00  0.00    +0.000 A 
ATOM      5  C   UNL     1       2.152   7.939  19.094  0.00  0.00    +0.000 A 
ATOM      6  C   UNL     1       3.031   7.980  18.021  0.00  0.00    +0.000 A 
ATOM      7  C   UNL     1       3.904   6.908  17.793  0.00  0.00    +0.000 A 
ATOM      8  C   UNL     1       3.925   5.750  18.612  0.00  0.00    +0.000 A 
BRANCH   3  10
ATOM      9  C   UNL     1       1.352   4.298  20.708  0.00  0.00    +0.000 C 
ATOM     10  O   UNL     1       2.706   4.669  20.529  0.00  0.00    +0.000 OA
ENDBRANCH   3  10
BRANCH   5  11
ATOM     11  S   UNL     1       1.019   9.254  19.513  0.00  0.00    +0.000 S 
ATOM     12  C   UNL     1       1.308  10.471  18.199  0.00  0.00    +0.000 C 
ENDBRANCH   5  11
ENDBRANCH   1   8
BRANCH   1  13
ATOM     13  O   UNL     1       4.779   4.507  16.774  0.00  0.00    +0.000 OA
BRANCH  13  14
ATOM     14  C   UNL     1       5.760   3.618  16.219  0.00  0.00    +0.000 C 
BRANCH  14  15
ATOM     15  C   UNL     1       6.766   4.436  15.412  0.00  0.00    +0.000 C 
ATOM     16  O   UNL     1       7.639   5.101  15.952  0.00  0.00    +0.000 OA
ATOM     17  N   UNL     1       6.653   4.399  14.039  0.00  0.00    +0.000 N 
ATOM     18  C   UNL     1       5.680   3.692  13.232  0.00  0.00    +0.000 C 
ATOM     19  C   UNL     1       6.464   3.367  11.971  0.00  0.00    +0.000 C 
ATOM     20  C   UNL     1       7.378   4.580  11.795  0.00  0.00    +0.000 C 
ATOM     21  C   UNL     1       7.616   5.096  13.207  0.00  0.00    +0.000 C 
ENDBRANCH  14  15
ENDBRANCH  13  14
ENDBRANCH   1  13
TORSDOF 6
ENDMDL
MODEL 6
REMARK VINA RESULT:      -6.4      2.209      4.984
REMARK  Name = 
REMARK  8 active torsions:
REMARK  status: ('A' for Active; 'I' for Inactive)
REMARK    1  A    between atoms: C_1  and  O_2
REMARK    2  A    between atoms: O_2  and  C_3
REMARK    3  A    between atoms: C_5  and  S_6
REMARK    4  A    between atoms: S_6  and  C_7
REMARK    5  A    between atoms: C_10  and  C_11
REMARK    6  A    between atoms: C_11  and  O_13
REMARK    7  A    between atoms: O_13  and  C_14
REMARK    8  A    between atoms: C_14  and  C_15
REMARK                            x       y       z     vdW  Elec       q    Type
REMARK                         _______ _______ _______ _____ _____    ______ ____
ROOT
ATOM      1  C   UNL     1       4.475   3.907  16.925  0.00  0.00    +0.000 C 
ATOM      2  O   UNL     1       5.588   3.634  16.493  0.00  0.00    +0.000 OA
ENDROOT
BRANCH   1   8
ATOM      3  C   UNL     1       4.671   6.521  16.856  0.00  0.00    +0.000 A 
ATOM      4  C   UNL     1       4.077   7.739  17.263  0.00  0.00    +0.000 A 
ATOM      5  C   UNL     1       2.865   7.801  17.963  0.00  0.00    +0.000 A 
ATOM      6  C   UNL     1       2.217   6.609  18.254  0.00  0.00    +0.000 A 
ATOM      7  C   UNL     1       2.779   5.391  17.845  0.00  0.00    +0.000 A 
ATOM      8  C   UNL     1       4.012   5.314  17.147  0.00  0.00    +0.000 A 
BRANCH   3  10
ATOM      9  C   UNL     1       7.045   6.725  17.244  0.00  0.00    +0.000 C 
ATOM     10  O   UNL     1       5.931   6.742  16.370  0.00  0.00    +0.000 OA
ENDBRANCH   3  10
BRANCH   5  11
ATOM     11  S   UNL     1       2.237   9.415  18.395  0.00  0.00    +0.000 S 
ATOM     12  C   UNL     1       0.503   9.329  17.866  0.00  0.00    +0.000 C 
ENDBRANCH   5  11
ENDBRANCH   1   8
BRANCH   1  13
ATOM     13  O   UNL     1       3.552   2.983  17.245  0.00  0.00    +0.000 OA
BRANCH  13  14
ATOM     14  C   UNL     1       4.046   1.836  17.952  0.00  0.00    +0.000 C 
BRANCH  14  15
ATOM     15  C   UNL     1       4.035   2.136  19.449  0.00  0.00    +0.000 C 
ATOM     16  O   UNL     1       5.066   2.197  20.103  0.00  0.00    +0.000 OA
ATOM     17  N   UNL     1       2.807   2.339  20.043  0.00  0.00    +0.000 N 
ATOM     18  C   UNL     1       1.492   2.286  19.439  0.00  0.00    +0.000 C 
ATOM     19  C   UNL     1       0.708   3.297  20.259  0.00  0.00    +0.000 C 
ATOM     20  C   UNL     1       1.287   3.145  21.665  0.00  0.00    +0.000 C 
ATOM     21  C   UNL     1       2.725   2.696  21.446  0.00  0.00    +0.000 C 
ENDBRANCH  14  15
ENDBRANCH  13  14
ENDBRANCH   1  13
TORSDOF 6
ENDMDL
MODEL 7
REMARK VINA RESULT:      -6.3      3.094      6.239
REMARK  Name = 
REMARK  8 active torsions:
REMARK  status: ('A' for Active; 'I' for Inactive)
REMARK    1  A    between atoms: C_1  and  O_2
REMARK    2  A    between atoms: O_2  and  C_3
REMARK    3  A    between atoms: C_5  and  S_6
REMARK    4  A    between atoms: S_6  and  C_7
REMARK    5  A    between atoms: C_10  and  C_11
REMARK    6  A    between atoms: C_11  and  O_13
REMARK    7  A    between atoms: O_13  and  C_14
REMARK    8  A    between atoms: C_14  and  C_15
REMARK                            x       y       z     vdW  Elec       q    Type
REMARK                         _______ _______ _______ _____ _____    ______ ____
ROOT
ATOM      1  C   UNL     1       3.820   4.216  19.559  0.00  0.00    +0.000 C 
ATOM      2  O   UNL     1       3.316   3.166  19.939  0.00  0.00    +0.000 OA
ENDROOT
BRANCH   1   8
ATOM      3  C   UNL     1       6.106   4.644  18.348  0.00  0.00    +0.000 A 
ATOM      4  C   UNL     1       6.749   4.759  17.093  0.00  0.00    +0.000 A 
ATOM      5  C   UNL     1       6.086   4.559  15.875  0.00  0.00    +0.000 A 
ATOM      6  C   UNL     1       4.742   4.219  15.911  0.00  0.00    +0.000 A 
ATOM      7  C   UNL     1       4.089   4.083  17.144  0.00  0.00    +0.000 A 
ATOM      8  C   UNL     1       4.745   4.295  18.384  0.00  0.00    +0.000 A 
BRANCH   3  10
ATOM      9  C   UNL     1       7.915   6.062  19.087  0.00  0.00    +0.000 C 
ATOM     10  O   UNL     1       6.930   5.078  19.350  0.00  0.00    +0.000 OA
ENDBRANCH   3  10
BRANCH   5  11
ATOM     11  S   UNL     1       7.039   4.726  14.374  0.00  0.00    +0.000 S 
ATOM     12  C   UNL     1       6.111   3.710  13.191  0.00  0.00    +0.000 C 
ENDBRANCH   5  11
ENDBRANCH   1   8
BRANCH   1  13
ATOM     13  O   UNL     1       3.601   5.404  20.150  0.00  0.00    +0.000 OA
BRANCH  13  14
ATOM     14  C   UNL     1       2.243   5.868  20.121  0.00  0.00    +0.000 C 
BRANCH  14  15
ATOM     15  C   UNL     1       2.181   7.165  19.317  0.00  0.00    +0.000 C 
ATOM     16  O   UNL     1       2.649   7.248  18.190  0.00  0.00    +0.000 OA
ATOM     17  N   UNL     1       1.573   8.248  19.912  0.00  0.00    +0.000 N 
ATOM     18  C   UNL     1       0.987   8.341  21.233  0.00  0.00    +0.000 C 
ATOM     19  C   UNL     1      -0.131   9.351  21.032  0.00  0.00    +0.000 C 
ATOM     20  C   UNL     1       0.446  10.325  20.006  0.00  0.00    +0.000 C 
ATOM     21  C   UNL     1       1.417   9.491  19.182  0.00  0.00    +0.000 C 
ENDBRANCH  14  15
ENDBRANCH  13  14
ENDBRANCH   1  13
TORSDOF 6
ENDMDL
MODEL 8
REMARK VINA RESULT:      -6.3      3.502      6.555
REMARK  Name = 
REMARK  8 active torsions:
REMARK  status: ('A' for Active; 'I' for Inactive)
REMARK    1  A    between atoms: C_1  and  O_2
REMARK    2  A    between atoms: O_2  and  C_3
REMARK    3  A    between atoms: C_5  and  S_6
REMARK    4  A    between atoms: S_6  and  C_7
REMARK    5  A    between atoms: C_10  and  C_11
REMARK    6  A    between atoms: C_11  and  O_13
REMARK    7  A    between atoms: O_13  and  C_14
REMARK    8  A    between atoms: C_14  and  C_15
REMARK                            x       y       z     vdW  Elec       q    Type
REMARK                         _______ _______ _______ _____ _____    ______ ____
ROOT
ATOM      1  C   UNL     1       3.133   5.773  19.267  0.00  0.00    +0.000 C 
ATOM      2  O   UNL     1       3.093   5.075  20.273  0.00  0.00    +0.000 OA
ENDROOT
BRANCH   1   8
ATOM      3  C   UNL     1       4.140   4.138  17.482  0.00  0.00    +0.000 A 
ATOM      4  C   UNL     1       5.032   4.021  16.390  0.00  0.00    +0.000 A 
ATOM      5  C   UNL     1       5.734   5.111  15.858  0.00  0.00    +0.000 A 
ATOM      6  C   UNL     1       5.530   6.360  16.426  0.00  0.00    +0.000 A 
ATOM      7  C   UNL     1       4.637   6.501  17.498  0.00  0.00    +0.000 A 
ATOM      8  C   UNL     1       3.930   5.404  18.054  0.00  0.00    +0.000 A 
BRANCH   3  10
ATOM      9  C   UNL     1       2.411   2.469  17.723  0.00  0.00    +0.000 C 
ATOM     10  O   UNL     1       3.747   2.900  17.913  0.00  0.00    +0.000 OA
ENDBRANCH   3  10
BRANCH   5  11
ATOM     11  S   UNL     1       6.813   4.805  14.468  0.00  0.00    +0.000 S 
ATOM     12  C   UNL     1       5.834   3.678  13.437  0.00  0.00    +0.000 C 
ENDBRANCH   5  11
ENDBRANCH   1   8
BRANCH   1  13
ATOM     13  O   UNL     1       2.472   6.937  19.141  0.00  0.00    +0.000 OA
BRANCH  13  14
ATOM     14  C   UNL     1       1.881   7.446  20.346  0.00  0.00    +0.000 C 
BRANCH  14  15
ATOM     15  C   UNL     1       1.318   8.839  20.070  0.00  0.00    +0.000 C 
ATOM     16  O   UNL     1       1.294   9.313  18.943  0.00  0.00    +0.000 OA
ATOM     17  N   UNL     1       0.835   9.549  21.147  0.00  0.00    +0.000 N 
ATOM     18  C   UNL     1       0.801   9.162  22.542  0.00  0.00    +0.000 C 
ATOM     19  C   UNL     1      -0.444   9.867  23.055  0.00  0.00    +0.000 C 
ATOM     20  C   UNL     1      -0.463  11.177  22.268  0.00  0.00    +0.000 C 
ATOM     21  C   UNL     1       0.224  10.849  20.950  0.00  0.00    +0.000 C 
ENDBRANCH  14  15
ENDBRANCH  13  14
ENDBRANCH   1  13
TORSDOF 6
ENDMDL
MODEL 9
REMARK VINA RESULT:      -6.2      2.290      4.062
REMARK  Name = 
REMARK  8 active torsions:
REMARK  status: ('A' for Active; 'I' for Inactive)
REMARK    1  A    between atoms: C_1  and  O_2
REMARK    2  A    between atoms: O_2  and  C_3
REMARK    3  A    between atoms: C_5  and  S_6
REMARK    4  A    between atoms: S_6  and  C_7
REMARK    5  A    between atoms: C_10  and  C_11
REMARK    6  A    between atoms: C_11  and  O_13
REMARK    7  A    between atoms: O_13  and  C_14
REMARK    8  A    between atoms: C_14  and  C_15
REMARK                            x       y       z     vdW  Elec       q    Type
REMARK                         _______ _______ _______ _____ _____    ______ ____
ROOT
ATOM      1  C   UNL     1       4.402   6.689  17.457  0.00  0.00    +0.000 C 
ATOM      2  O   UNL     1       4.571   6.791  16.248  0.00  0.00    +0.000 OA
ENDROOT
BRANCH   1   8
ATOM      3  C   UNL     1       2.687   7.120  19.393  0.00  0.00    +0.000 A 
ATOM      4  C   UNL     1       1.634   7.950  19.846  0.00  0.00    +0.000 A 
ATOM      5  C   UNL     1       1.203   9.084  19.147  0.00  0.00    +0.000 A 
ATOM      6  C   UNL     1       1.851   9.409  17.964  0.00  0.00    +0.000 A 
ATOM      7  C   UNL     1       2.908   8.610  17.506  0.00  0.00    +0.000 A 
ATOM      8  C   UNL     1       3.346   7.451  18.197  0.00  0.00    +0.000 A 
BRANCH   3  10
ATOM      9  C   UNL     1       1.628   5.516  20.854  0.00  0.00    +0.000 C 
ATOM     10  O   UNL     1       2.767   5.988  20.158  0.00  0.00    +0.000 OA
ENDBRANCH   3  10
BRANCH   5  11
ATOM     11  S   UNL     1      -0.129  10.040  19.856  0.00  0.00    +0.000 S 
ATOM     12  C   UNL     1       0.169  11.702  19.193  0.00  0.00    +0.000 C 
ENDBRANCH   5  11
ENDBRANCH   1   8
BRANCH   1  13
ATOM     13  O   UNL     1       5.139   5.889  18.248  0.00  0.00    +0.000 OA
BRANCH  13  14
ATOM     14  C   UNL     1       5.365   4.564  17.746  0.00  0.00    +0.000 C 
BRANCH  14  15
ATOM     15  C   UNL     1       4.727   3.558  18.703  0.00  0.00    +0.000 C 
ATOM     16  O   UNL     1       5.333   3.110  19.666  0.00  0.00    +0.000 OA
ATOM     17  N   UNL     1       3.432   3.169  18.438  0.00  0.00    +0.000 N 
ATOM     18  C   UNL     1       2.574   3.573  17.344  0.00  0.00    +0.000 C 
ATOM     19  C   UNL     1       1.189   3.511  17.965  0.00  0.00    +0.000 C 
ATOM     20  C   UNL     1       1.278   2.323  18.921  0.00  0.00    +0.000 C 
ATOM     21  C   UNL     1       2.740   2.271  19.341  0.00  0.00    +0.000 C 
ENDBRANCH  14  15
ENDBRANCH  13  14
ENDBRANCH   1  13
TORSDOF 6
ENDMDL
