MODEL 1
REMARK VINA RESULT:      -7.5      0.000      0.000
REMARK  Name = 
REMARK  12 active torsions:
REMARK  status: ('A' for Active; 'I' for Inactive)
REMARK    1  A    between atoms: C_1  and  O_2
REMARK    2  A    between atoms: O_2  and  C_3
REMARK    3  A    between atoms: C_3  and  C_4
REMARK    4  A    between atoms: C_6  and  N_7
REMARK    5  A    between atoms: C_8  and  O_10
REMARK    6  A    between atoms: O_10  and  C_11
REMARK    7  A    between atoms: C_11  and  C_12
REMARK    8  A    between atoms: C_12  and  O_13
REMARK    9  A    between atoms: C_12  and  C_26
REMARK   10  A    between atoms: O_13  and  C_14
REMARK   11  A    between atoms: C_20  and  C_21
REMARK   12  A    between atoms: N_32  and  C_33
REMARK                            x       y       z     vdW  Elec       q    Type
REMARK                         _______ _______ _______ _____ _____    ______ ____
ROOT
ATOM      1  C   UNL     1      -0.417  11.591  19.241  0.00  0.00    +0.000 C 
ENDROOT
BRANCH   1   2
ATOM      2  C   UNL     1      -0.586  12.304  20.576  0.00  0.00    +0.000 A 
ATOM      3  C   UNL     1      -1.080  11.597  21.690  0.00  0.00    +0.000 A 
ATOM      4  C   UNL     1      -1.279  12.233  22.915  0.00  0.00    +0.000 A 
ATOM      5  C   UNL     1      -0.988  13.591  23.051  0.00  0.00    +0.000 A 
ATOM      6  C   UNL     1      -0.490  14.310  21.961  0.00  0.00    +0.000 A 
ATOM      7  C   UNL     1      -0.294  13.666  20.735  0.00  0.00    +0.000 A 
ENDBRANCH   1   2
BRANCH   1   8
ATOM      8  C   UNL     1       1.000  10.986  19.134  0.00  0.00    +0.000 C 
BRANCH   8   9
ATOM      9  O   UNL     1       1.070   9.566  19.423  0.00  0.00    +0.000 OA
BRANCH   9  11
ATOM     10  N   UNL     1       2.322   7.671  18.980  0.00  0.00    +0.000 N 
ATOM     11  C   UNL     1       1.682   8.840  18.461  0.00  0.00    +0.000 C 
ATOM     12  O   UNL     1       1.744   9.157  17.284  0.00  0.00    +0.000 OA
ATOM     13  H   UNL     1       2.250   7.521  19.979  0.00  0.00    +0.000 HD
BRANCH  10  16
ATOM     14  C   UNL     1       4.624   5.920  16.856  0.00  0.00    +0.000 A 
ATOM     15  C   UNL     1       4.158   7.131  17.409  0.00  0.00    +0.000 A 
ATOM     16  C   UNL     1       3.070   6.805  18.186  0.00  0.00    +0.000 A 
ATOM     17  N   UNL     1       2.921   5.440  18.022  0.00  0.00    +0.000 N 
ATOM     18  C   UNL     1       2.065   4.522  18.734  0.00  0.00    +0.000 C 
ATOM     19  N   UNL     1       3.827   4.899  17.183  0.00  0.00    +0.000 NA
BRANCH  14  20
ATOM     20  C   UNL     1       5.860   5.728  16.034  0.00  0.00    +0.000 C 
BRANCH  20  22
ATOM     21  C   UNL     1       7.310   4.896  17.696  0.00  0.00    +0.000 C 
ATOM     22  O   UNL     1       7.025   5.981  16.827  0.00  0.00    +0.000 OA
ENDBRANCH  20  22
ENDBRANCH  14  20
ENDBRANCH  10  16
ENDBRANCH   9  11
ENDBRANCH   8   9
ENDBRANCH   1   8
BRANCH   1  23
ATOM     23  O   UNL     1      -1.400  10.543  19.115  0.00  0.00    +0.000 OA
BRANCH  23  24
ATOM     24  C   UNL     1      -2.243  10.590  18.028  0.00  0.00    +0.000 A 
ATOM     25  C   UNL     1      -1.948   9.956  16.808  0.00  0.00    +0.000 A 
ATOM     26  C   UNL     1      -2.813  10.033  15.727  0.00  0.00    +0.000 A 
ATOM     27  C   UNL     1      -3.985  10.771  15.818  0.00  0.00    +0.000 A 
ATOM     28  C   UNL     1      -4.303  11.389  17.040  0.00  0.00    +0.000 A 
ATOM     29  S   UNL     1      -5.736  12.272  17.369  0.00  0.00    +0.000 S 
ATOM     30  C   UNL     1      -5.324  12.504  19.009  0.00  0.00    +0.000 A 
ATOM     31  C   UNL     1      -4.053  12.026  19.269  0.00  0.00    +0.000 A 
ATOM     32  C   UNL     1      -3.461  11.323  18.151  0.00  0.00    +0.000 A 
BRANCH  30  33
ATOM     33  C   UNL     1      -6.284  13.115  19.915  0.00  0.00    +0.000 C 
ATOM     34  N   UNL     1      -7.551  13.164  19.619  0.00  0.00    +0.000 NA
ATOM     35  N   UNL     1      -5.970  13.662  21.124  0.00  0.00    +0.000 N 
ATOM     36  H   UNL     1      -7.703  12.723  18.703  0.00  0.00    +0.000 HD
ATOM     37  H   UNL     1      -5.084  14.147  21.175  0.00  0.00    +0.000 HD
ATOM     38  H   UNL     1      -6.748  14.219  21.469  0.00  0.00    +0.000 HD
ENDBRANCH  30  33
ENDBRANCH  23  24
ENDBRANCH   1  23
TORSDOF 10
ENDMDL
MODEL 2
REMARK VINA RESULT:      -7.3      1.745      4.037
REMARK  Name = 
REMARK  12 active torsions:
REMARK  status: ('A' for Active; 'I' for Inactive)
REMARK    1  A    between atoms: C_1  and  O_2
REMARK    2  A    between atoms: O_2  and  C_3
REMARK    3  A    between atoms: C_3  and  C_4
REMARK    4  A    between atoms: C_6  and  N_7
REMARK    5  A    between atoms: C_8  and  O_10
REMARK    6  A    between atoms: O_10  and  C_11
REMARK    7  A    between atoms: C_11  and  C_12
REMARK    8  A    between atoms: C_12  and  O_13
REMARK    9  A    between atoms: C_12  and  C_26
REMARK   10  A    between atoms: O_13  and  C_14
REMARK   11  A    between atoms: C_20  and  C_21
REMARK   12  A    between atoms: N_32  and  C_33
REMARK                            x       y       z     vdW  Elec       q    Type
REMARK                         _______ _______ _______ _____ _____    ______ ____
ROOT
ATOM      1  C   UNL     1      -1.040  10.712  19.002  0.00  0.00    +0.000 C 
ENDROOT
BRANCH   1   2
ATOM      2  C   UNL     1      -1.986  10.654  17.810  0.00  0.00    +0.000 A 
ATOM      3  C   UNL     1      -3.129  11.478  17.782  0.00  0.00    +0.000 A 
ATOM      4  C   UNL     1      -4.032  11.420  16.720  0.00  0.00    +0.000 A 
ATOM      5  C   UNL     1      -3.810  10.536  15.664  0.00  0.00    +0.000 A 
ATOM      6  C   UNL     1      -2.680   9.715  15.668  0.00  0.00    +0.000 A 
ATOM      7  C   UNL     1      -1.779   9.776  16.735  0.00  0.00    +0.000 A 
ENDBRANCH   1   2
BRANCH   1   8
ATOM      8  C   UNL     1       0.419  10.514  18.536  0.00  0.00    +0.000 C 
BRANCH   8   9
ATOM      9  O   UNL     1       1.094   9.381  19.142  0.00  0.00    +0.000 OA
BRANCH   9  11
ATOM     10  N   UNL     1       2.226   7.390  18.810  0.00  0.00    +0.000 N 
ATOM     11  C   UNL     1       1.839   8.659  18.275  0.00  0.00    +0.000 C 
ATOM     12  O   UNL     1       2.200   9.049  17.176  0.00  0.00    +0.000 OA
ATOM     13  H   UNL     1       1.911   7.180  19.749  0.00  0.00    +0.000 HD
BRANCH  10  16
ATOM     14  C   UNL     1       4.788   5.521  17.131  0.00  0.00    +0.000 A 
ATOM     15  C   UNL     1       4.342   6.729  17.709  0.00  0.00    +0.000 A 
ATOM     16  C   UNL     1       3.050   6.502  18.124  0.00  0.00    +0.000 A 
ATOM     17  N   UNL     1       2.783   5.202  17.736  0.00  0.00    +0.000 N 
ATOM     18  C   UNL     1       1.655   4.364  18.066  0.00  0.00    +0.000 C 
ATOM     19  N   UNL     1       3.810   4.612  17.093  0.00  0.00    +0.000 NA
BRANCH  14  20
ATOM     20  C   UNL     1       6.168   5.221  16.638  0.00  0.00    +0.000 C 
BRANCH  20  22
ATOM     21  C   UNL     1       6.355   4.083  14.582  0.00  0.00    +0.000 C 
ATOM     22  O   UNL     1       6.194   3.946  15.985  0.00  0.00    +0.000 OA
ENDBRANCH  20  22
ENDBRANCH  14  20
ENDBRANCH  10  16
ENDBRANCH   9  11
ENDBRANCH   8   9
ENDBRANCH   1   8
BRANCH   1  23
ATOM     23  O   UNL     1      -1.166  11.985  19.668  0.00  0.00    +0.000 OA
BRANCH  23  24
ATOM     24  C   UNL     1      -1.622  11.980  20.966  0.00  0.00    +0.000 A 
ATOM     25  C   UNL     1      -1.010  11.228  21.985  0.00  0.00    +0.000 A 
ATOM     26  C   UNL     1      -1.503  11.235  23.281  0.00  0.00    +0.000 A 
ATOM     27  C   UNL     1      -2.639  11.967  23.596  0.00  0.00    +0.000 A 
ATOM     28  C   UNL     1      -3.245  12.742  22.593  0.00  0.00    +0.000 A 
ATOM     29  S   UNL     1      -4.601  13.770  22.807  0.00  0.00    +0.000 S 
ATOM     30  C   UNL     1      -4.533  14.344  21.201  0.00  0.00    +0.000 A 
ATOM     31  C   UNL     1      -3.570  13.666  20.476  0.00  0.00    +0.000 A 
ATOM     32  C   UNL     1      -2.770  12.767  21.280  0.00  0.00    +0.000 A 
BRANCH  30  33
ATOM     33  C   UNL     1      -5.412  15.425  20.783  0.00  0.00    +0.000 C 
ATOM     34  N   UNL     1      -5.584  15.703  19.523  0.00  0.00    +0.000 NA
ATOM     35  N   UNL     1      -6.128  16.215  21.632  0.00  0.00    +0.000 N 
ATOM     36  H   UNL     1      -5.020  15.057  18.953  0.00  0.00    +0.000 HD
ATOM     37  H   UNL     1      -5.677  16.451  22.506  0.00  0.00    +0.000 HD
ATOM     38  H   UNL     1      -6.484  17.030  21.137  0.00  0.00    +0.000 HD
ENDBRANCH  30  33
ENDBRANCH  23  24
ENDBRANCH   1  23
TORSDOF 10
ENDMDL
MODEL 3
REMARK VINA RESULT:      -7.3      4.109     10.597
REMARK  Name = 
REMARK  12 active torsions:
REMARK  status: ('A' for Active; 'I' for Inactive)
REMARK    1  A    between atoms: C_1  and  O_2
REMARK    2  A    between atoms: O_2  and  C_3
REMARK    3  A    between atoms: C_3  and  C_4
REMARK    4  A    between atoms: C_6  and  N_7
REMARK    5  A    between atoms: C_8  and  O_10
REMARK    6  A    between atoms: O_10  and  C_11
REMARK    7  A    between atoms: C_11  and  C_12
REMARK    8  A    between atoms: C_12  and  O_13
REMARK    9  A    between atoms: C_12  and  C_26
REMARK   10  A    between atoms: O_13  and  C_14
REMARK   11  A    between atoms: C_20  and  C_21
REMARK   12  A    between atoms: N_32  and  C_33
REMARK                            x       y       z     vdW  Elec       q    Type
REMARK                         _______ _______ _______ _____ _____    ______ ____
ROOT
ATOM      1  C   UNL     1       3.224   4.126  18.074  0.00  0.00    +0.000 C 
ENDROOT
BRANCH   1   2
ATOM      2  C   UNL     1       2.546   3.573  19.321  0.00  0.00    +0.000 A 
ATOM      3  C   UNL     1       1.141   3.498  19.380  0.00  0.00    +0.000 A 
ATOM      4  C   UNL     1       0.492   3.030  20.523  0.00  0.00    +0.000 A 
ATOM      5  C   UNL     1       1.238   2.627  21.631  0.00  0.00    +0.000 A 
ATOM      6  C   UNL     1       2.634   2.686  21.592  0.00  0.00    +0.000 A 
ATOM      7  C   UNL     1       3.277   3.157  20.444  0.00  0.00    +0.000 A 
ENDBRANCH   1   2
BRANCH   1   8
ATOM      8  C   UNL     1       3.349   5.662  18.170  0.00  0.00    +0.000 C 
BRANCH   8   9
ATOM      9  O   UNL     1       3.269   6.186  19.521  0.00  0.00    +0.000 OA
BRANCH   9  11
ATOM     10  N   UNL     1       2.248   8.192  18.980  0.00  0.00    +0.000 N 
ATOM     11  C   UNL     1       2.195   6.980  19.737  0.00  0.00    +0.000 C 
ATOM     12  O   UNL     1       1.298   6.735  20.528  0.00  0.00    +0.000 OA
ATOM     13  H   UNL     1       3.057   8.320  18.386  0.00  0.00    +0.000 HD
BRANCH  10  16
ATOM     14  C   UNL     1      -0.372  10.626  18.682  0.00  0.00    +0.000 A 
ATOM     15  C   UNL     1       0.499   9.695  18.079  0.00  0.00    +0.000 A 
ATOM     16  C   UNL     1       1.284   9.192  19.090  0.00  0.00    +0.000 A 
ATOM     17  N   UNL     1       0.874   9.873  20.221  0.00  0.00    +0.000 N 
ATOM     18  C   UNL     1       1.211   9.635  21.604  0.00  0.00    +0.000 C 
ATOM     19  N   UNL     1      -0.097  10.777  19.980  0.00  0.00    +0.000 NA
BRANCH  14  20
ATOM     20  C   UNL     1      -1.500  11.356  18.022  0.00  0.00    +0.000 C 
BRANCH  20  22
ATOM     21  C   UNL     1      -3.192   9.778  17.568  0.00  0.00    +0.000 C 
ATOM     22  O   UNL     1      -2.755  10.808  18.441  0.00  0.00    +0.000 OA
ENDBRANCH  20  22
ENDBRANCH  14  20
ENDBRANCH  10  16
ENDBRANCH   9  11
ENDBRANCH   8   9
ENDBRANCH   1   8
BRANCH   1  23
ATOM     23  O   UNL     1       4.535   3.542  17.927  0.00  0.00    +0.000 OA
BRANCH  23  24
ATOM     24  C   UNL     1       5.556   4.370  17.520  0.00  0.00    +0.000 A 
ATOM     25  C   UNL     1       6.297   5.162  18.415  0.00  0.00    +0.000 A 
ATOM     26  C   UNL     1       7.312   5.995  17.971  0.00  0.00    +0.000 A 
ATOM     27  C   UNL     1       7.600   6.089  16.616  0.00  0.00    +0.000 A 
ATOM     28  C   UNL     1       6.884   5.284  15.714  0.00  0.00    +0.000 A 
ATOM     29  S   UNL     1       7.149   5.203  14.022  0.00  0.00    +0.000 S 
ATOM     30  C   UNL     1       5.993   3.966  13.810  0.00  0.00    +0.000 A 
ATOM     31  C   UNL     1       5.323   3.709  14.992  0.00  0.00    +0.000 A 
ATOM     32  C   UNL     1       5.863   4.427  16.128  0.00  0.00    +0.000 A 
BRANCH  30  33
ATOM     33  C   UNL     1       5.846   3.330  12.510  0.00  0.00    +0.000 C 
ATOM     34  N   UNL     1       6.830   2.672  11.968  0.00  0.00    +0.000 NA
ATOM     35  N   UNL     1       4.704   3.342  11.764  0.00  0.00    +0.000 N 
ATOM     36  H   UNL     1       7.644   2.701  12.596  0.00  0.00    +0.000 HD
ATOM     37  H   UNL     1       4.161   4.195  11.798  0.00  0.00    +0.000 HD
ATOM     38  H   UNL     1       4.902   3.036  10.814  0.00  0.00    +0.000 HD
ENDBRANCH  30  33
ENDBRANCH  23  24
ENDBRANCH   1  23
TORSDOF 10
ENDMDL
MODEL 4
REMARK VINA RESULT:      -7.3      4.555     10.770
REMARK  Name = 
REMARK  12 active torsions:
REMARK  status: ('A' for Active; 'I' for Inactive)
REMARK    1  A    between atoms: C_1  and  O_2
REMARK    2  A    between atoms: O_2  and  C_3
REMARK    3  A    between atoms: C_3  and  C_4
REMARK    4  A    between atoms: C_6  and  N_7
REMARK    5  A    between atoms: C_8  and  O_10
REMARK    6  A    between atoms: O_10  and  C_11
REMARK    7  A    between atoms: C_11  and  C_12
REMARK    8  A    between atoms: C_12  and  O_13
REMARK    9  A    between atoms: C_12  and  C_26
REMARK   10  A    between atoms: O_13  and  C_14
REMARK   11  A    between atoms: C_20  and  C_21
REMARK   12  A    between atoms: N_32  and  C_33
REMARK                            x       y       z     vdW  Elec       q    Type
REMARK                         _______ _______ _______ _____ _____    ______ ____
ROOT
ATOM      1  C   UNL     1       3.343   3.896  17.944  0.00  0.00    +0.000 C 
ENDROOT
BRANCH   1   2
ATOM      2  C   UNL     1       2.640   3.462  19.224  0.00  0.00    +0.000 A 
ATOM      3  C   UNL     1       1.237   3.553  19.318  0.00  0.00    +0.000 A 
ATOM      4  C   UNL     1       0.569   3.196  20.490  0.00  0.00    +0.000 A 
ATOM      5  C   UNL     1       1.293   2.741  21.593  0.00  0.00    +0.000 A 
ATOM      6  C   UNL     1       2.685   2.636  21.519  0.00  0.00    +0.000 A 
ATOM      7  C   UNL     1       3.348   2.996  20.342  0.00  0.00    +0.000 A 
ENDBRANCH   1   2
BRANCH   1   8
ATOM      8  C   UNL     1       3.329   5.435  17.824  0.00  0.00    +0.000 C 
BRANCH   8   9
ATOM      9  O   UNL     1       3.222   6.135  19.090  0.00  0.00    +0.000 OA
BRANCH   9  11
ATOM     10  N   UNL     1       2.199   7.777  20.362  0.00  0.00    +0.000 N 
ATOM     11  C   UNL     1       2.293   7.118  19.096  0.00  0.00    +0.000 C 
ATOM     12  O   UNL     1       1.564   7.391  18.155  0.00  0.00    +0.000 OA
ATOM     13  H   UNL     1       2.818   7.445  21.091  0.00  0.00    +0.000 HD
BRANCH  10  16
ATOM     14  C   UNL     1      -0.249  10.096  21.589  0.00  0.00    +0.000 A 
ATOM     15  C   UNL     1       0.466   8.889  21.736  0.00  0.00    +0.000 A 
ATOM     16  C   UNL     1       1.267   8.778  20.623  0.00  0.00    +0.000 A 
ATOM     17  N   UNL     1       0.958   9.889  19.861  0.00  0.00    +0.000 N 
ATOM     18  C   UNL     1       1.613  10.397  18.679  0.00  0.00    +0.000 C 
ATOM     19  N   UNL     1       0.009  10.671  20.412  0.00  0.00    +0.000 NA
BRANCH  14  20
ATOM     20  C   UNL     1      -1.162  10.723  22.595  0.00  0.00    +0.000 C 
BRANCH  20  22
ATOM     21  C   UNL     1      -1.346  13.025  23.071  0.00  0.00    +0.000 C 
ATOM     22  O   UNL     1      -0.535  11.867  23.187  0.00  0.00    +0.000 OA
ENDBRANCH  20  22
ENDBRANCH  14  20
ENDBRANCH  10  16
ENDBRANCH   9  11
ENDBRANCH   8   9
ENDBRANCH   1   8
BRANCH   1  23
ATOM     23  O   UNL     1       4.705   3.423  17.947  0.00  0.00    +0.000 OA
BRANCH  23  24
ATOM     24  C   UNL     1       5.681   4.295  17.521  0.00  0.00    +0.000 A 
ATOM     25  C   UNL     1       6.405   5.117  18.403  0.00  0.00    +0.000 A 
ATOM     26  C   UNL     1       7.374   5.995  17.940  0.00  0.00    +0.000 A 
ATOM     27  C   UNL     1       7.629   6.104  16.580  0.00  0.00    +0.000 A 
ATOM     28  C   UNL     1       6.930   5.270  15.690  0.00  0.00    +0.000 A 
ATOM     29  S   UNL     1       7.163   5.202  13.993  0.00  0.00    +0.000 S 
ATOM     30  C   UNL     1       6.057   3.916  13.802  0.00  0.00    +0.000 A 
ATOM     31  C   UNL     1       5.424   3.629  14.997  0.00  0.00    +0.000 A 
ATOM     32  C   UNL     1       5.956   4.368  16.123  0.00  0.00    +0.000 A 
BRANCH  30  33
ATOM     33  C   UNL     1       5.911   3.277  12.504  0.00  0.00    +0.000 C 
ATOM     34  N   UNL     1       4.791   3.343  11.844  0.00  0.00    +0.000 NA
ATOM     35  N   UNL     1       6.897   2.586  11.864  0.00  0.00    +0.000 N 
ATOM     36  H   UNL     1       4.108   3.888  12.387  0.00  0.00    +0.000 HD
ATOM     37  H   UNL     1       7.511   2.040  12.454  0.00  0.00    +0.000 HD
ATOM     38  H   UNL     1       6.505   2.047  11.094  0.00  0.00    +0.000 HD
ENDBRANCH  30  33
ENDBRANCH  23  24
ENDBRANCH   1  23
TORSDOF 10
ENDMDL
MODEL 5
REMARK VINA RESULT:      -7.3      3.337      9.182
REMARK  Name = 
REMARK  12 active torsions:
REMARK  status: ('A' for Active; 'I' for Inactive)
REMARK    1  A    between atoms: C_1  and  O_2
REMARK    2  A    between atoms: O_2  and  C_3
REMARK    3  A    between atoms: C_3  and  C_4
REMARK    4  A    between atoms: C_6  and  N_7
REMARK    5  A    between atoms: C_8  and  O_10
REMARK    6  A    between atoms: O_10  and  C_11
REMARK    7  A    between atoms: C_11  and  C_12
REMARK    8  A    between atoms: C_12  and  O_13
REMARK    9  A    between atoms: C_12  and  C_26
REMARK   10  A    between atoms: O_13  and  C_14
REMARK   11  A    between atoms: C_20  and  C_21
REMARK   12  A    between atoms: N_32  and  C_33
REMARK                            x       y       z     vdW  Elec       q    Type
REMARK                         _______ _______ _______ _____ _____    ______ ____
ROOT
ATOM      1  C   UNL     1       1.175   8.408  19.772  0.00  0.00    +0.000 C 
ENDROOT
BRANCH   1   2
ATOM      2  C   UNL     1       0.498   9.116  20.938  0.00  0.00    +0.000 A 
ATOM      3  C   UNL     1       0.570  10.519  21.043  0.00  0.00    +0.000 A 
ATOM      4  C   UNL     1      -0.010  11.191  22.119  0.00  0.00    +0.000 A 
ATOM      5  C   UNL     1      -0.674  10.472  23.114  0.00  0.00    +0.000 A 
ATOM      6  C   UNL     1      -0.764   9.080  23.026  0.00  0.00    +0.000 A 
ATOM      7  C   UNL     1      -0.179   8.412  21.945  0.00  0.00    +0.000 A 
ENDBRANCH   1   2
BRANCH   1   8
ATOM      8  C   UNL     1       1.741   9.443  18.775  0.00  0.00    +0.000 C 
BRANCH   8   9
ATOM      9  O   UNL     1       0.974   9.578  17.551  0.00  0.00    +0.000 OA
BRANCH   9  11
ATOM     10  N   UNL     1      -1.298   9.674  17.117  0.00  0.00    +0.000 N 
ATOM     11  C   UNL     1      -0.152  10.313  17.688  0.00  0.00    +0.000 C 
ATOM     12  O   UNL     1      -0.200  11.425  18.190  0.00  0.00    +0.000 OA
ATOM     13  H   UNL     1      -1.143   8.771  16.685  0.00  0.00    +0.000 HD
BRANCH  10  16
ATOM     14  C   UNL     1      -4.421  11.370  17.608  0.00  0.00    +0.000 A 
ATOM     15  C   UNL     1      -3.235  10.824  18.142  0.00  0.00    +0.000 A 
ATOM     16  C   UNL     1      -2.555  10.271  17.082  0.00  0.00    +0.000 A 
ATOM     17  N   UNL     1      -3.382  10.474  15.993  0.00  0.00    +0.000 N 
ATOM     18  C   UNL     1      -3.113  10.269  14.590  0.00  0.00    +0.000 C 
ATOM     19  N   UNL     1      -4.536  11.097  16.305  0.00  0.00    +0.000 NA
BRANCH  14  20
ATOM     20  C   UNL     1      -5.440  12.186  18.339  0.00  0.00    +0.000 C 
BRANCH  20  22
ATOM     21  C   UNL     1      -7.201  13.451  17.414  0.00  0.00    +0.000 C 
ATOM     22  O   UNL     1      -6.694  12.147  17.648  0.00  0.00    +0.000 OA
ENDBRANCH  20  22
ENDBRANCH  14  20
ENDBRANCH  10  16
ENDBRANCH   9  11
ENDBRANCH   8   9
ENDBRANCH   1   8
BRANCH   1  23
ATOM     23  O   UNL     1       2.244   7.571  20.258  0.00  0.00    +0.000 OA
BRANCH  23  24
ATOM     24  C   UNL     1       2.157   6.220  20.008  0.00  0.00    +0.000 A 
ATOM     25  C   UNL     1       1.317   5.362  20.740  0.00  0.00    +0.000 A 
ATOM     26  C   UNL     1       1.263   4.003  20.472  0.00  0.00    +0.000 A 
ATOM     27  C   UNL     1       2.068   3.451  19.485  0.00  0.00    +0.000 A 
ATOM     28  C   UNL     1       2.893   4.301  18.728  0.00  0.00    +0.000 A 
ATOM     29  S   UNL     1       3.892   3.819  17.421  0.00  0.00    +0.000 S 
ATOM     30  C   UNL     1       4.367   5.421  17.075  0.00  0.00    +0.000 A 
ATOM     31  C   UNL     1       3.871   6.297  18.024  0.00  0.00    +0.000 A 
ATOM     32  C   UNL     1       2.964   5.675  18.965  0.00  0.00    +0.000 A 
BRANCH  30  33
ATOM     33  C   UNL     1       5.168   5.698  15.894  0.00  0.00    +0.000 C 
ATOM     34  N   UNL     1       5.861   4.758  15.316  0.00  0.00    +0.000 NA
ATOM     35  N   UNL     1       5.260   6.914  15.285  0.00  0.00    +0.000 N 
ATOM     36  H   UNL     1       5.728   3.876  15.827  0.00  0.00    +0.000 HD
ATOM     37  H   UNL     1       5.254   7.719  15.898  0.00  0.00    +0.000 HD
ATOM     38  H   UNL     1       6.038   6.921  14.630  0.00  0.00    +0.000 HD
ENDBRANCH  30  33
ENDBRANCH  23  24
ENDBRANCH   1  23
TORSDOF 10
ENDMDL
MODEL 6
REMARK VINA RESULT:      -7.3      3.906     10.642
REMARK  Name = 
REMARK  12 active torsions:
REMARK  status: ('A' for Active; 'I' for Inactive)
REMARK    1  A    between atoms: C_1  and  O_2
REMARK    2  A    between atoms: O_2  and  C_3
REMARK    3  A    between atoms: C_3  and  C_4
REMARK    4  A    between atoms: C_6  and  N_7
REMARK    5  A    between atoms: C_8  and  O_10
REMARK    6  A    between atoms: O_10  and  C_11
REMARK    7  A    between atoms: C_11  and  C_12
REMARK    8  A    between atoms: C_12  and  O_13
REMARK    9  A    between atoms: C_12  and  C_26
REMARK   10  A    between atoms: O_13  and  C_14
REMARK   11  A    between atoms: C_20  and  C_21
REMARK   12  A    between atoms: N_32  and  C_33
REMARK                            x       y       z     vdW  Elec       q    Type
REMARK                         _______ _______ _______ _____ _____    ______ ____
ROOT
ATOM      1  C   UNL     1       3.252   4.610  18.211  0.00  0.00    +0.000 C 
ENDROOT
BRANCH   1   2
ATOM      2  C   UNL     1       2.562   3.945  19.395  0.00  0.00    +0.000 A 
ATOM      3  C   UNL     1       3.329   3.267  20.363  0.00  0.00    +0.000 A 
ATOM      4  C   UNL     1       2.722   2.619  21.438  0.00  0.00    +0.000 A 
ATOM      5  C   UNL     1       1.332   2.636  21.567  0.00  0.00    +0.000 A 
ATOM      6  C   UNL     1       0.552   3.309  20.622  0.00  0.00    +0.000 A 
ATOM      7  C   UNL     1       1.168   3.956  19.546  0.00  0.00    +0.000 A 
ENDBRANCH   1   2
BRANCH   1   8
ATOM      8  C   UNL     1       3.616   6.070  18.555  0.00  0.00    +0.000 C 
BRANCH   8   9
ATOM      9  O   UNL     1       2.846   7.066  17.834  0.00  0.00    +0.000 OA
BRANCH   9  11
ATOM     10  N   UNL     1       1.460   8.919  17.911  0.00  0.00    +0.000 N 
ATOM     11  C   UNL     1       2.082   7.849  18.629  0.00  0.00    +0.000 C 
ATOM     12  O   UNL     1       1.966   7.711  19.837  0.00  0.00    +0.000 OA
ATOM     13  H   UNL     1       1.655   8.971  16.919  0.00  0.00    +0.000 HD
BRANCH  10  16
ATOM     14  C   UNL     1      -0.029  11.594  19.781  0.00  0.00    +0.000 A 
ATOM     15  C   UNL     1       1.073  10.750  19.531  0.00  0.00    +0.000 A 
ATOM     16  C   UNL     1       0.679   9.890  18.533  0.00  0.00    +0.000 A 
ATOM     17  N   UNL     1      -0.635  10.234  18.275  0.00  0.00    +0.000 N 
ATOM     18  C   UNL     1      -1.501   9.800  17.205  0.00  0.00    +0.000 C 
ATOM     19  N   UNL     1      -1.091  11.234  19.055  0.00  0.00    +0.000 NA
BRANCH  14  20
ATOM     20  C   UNL     1      -0.061  12.777  20.698  0.00  0.00    +0.000 C 
BRANCH  20  22
ATOM     21  C   UNL     1      -1.045  12.690  22.839  0.00  0.00    +0.000 C 
ATOM     22  O   UNL     1       0.090  12.353  22.057  0.00  0.00    +0.000 OA
ENDBRANCH  20  22
ENDBRANCH  14  20
ENDBRANCH  10  16
ENDBRANCH   9  11
ENDBRANCH   8   9
ENDBRANCH   1   8
BRANCH   1  23
ATOM     23  O   UNL     1       4.449   3.882  17.867  0.00  0.00    +0.000 OA
BRANCH  23  24
ATOM     24  C   UNL     1       5.540   4.612  17.452  0.00  0.00    +0.000 A 
ATOM     25  C   UNL     1       6.314   5.391  18.330  0.00  0.00    +0.000 A 
ATOM     26  C   UNL     1       7.399   6.125  17.878  0.00  0.00    +0.000 A 
ATOM     27  C   UNL     1       7.728   6.131  16.529  0.00  0.00    +0.000 A 
ATOM     28  C   UNL     1       6.978   5.337  15.645  0.00  0.00    +0.000 A 
ATOM     29  S   UNL     1       7.280   5.153  13.967  0.00  0.00    +0.000 S 
ATOM     30  C   UNL     1       6.042   3.994  13.780  0.00  0.00    +0.000 A 
ATOM     31  C   UNL     1       5.324   3.846  14.952  0.00  0.00    +0.000 A 
ATOM     32  C   UNL     1       5.886   4.577  16.068  0.00  0.00    +0.000 A 
BRANCH  30  33
ATOM     33  C   UNL     1       5.882   3.307  12.508  0.00  0.00    +0.000 C 
ATOM     34  N   UNL     1       4.766   3.378  11.840  0.00  0.00    +0.000 NA
ATOM     35  N   UNL     1       6.850   2.563  11.901  0.00  0.00    +0.000 N 
ATOM     36  H   UNL     1       4.097   3.963  12.359  0.00  0.00    +0.000 HD
ATOM     37  H   UNL     1       7.447   2.025  12.514  0.00  0.00    +0.000 HD
ATOM     38  H   UNL     1       6.446   2.005  11.152  0.00  0.00    +0.000 HD
ENDBRANCH  30  33
ENDBRANCH  23  24
ENDBRANCH   1  23
TORSDOF 10
ENDMDL
MODEL 7
REMARK VINA RESULT:      -7.2      4.055     10.717
REMARK  Name = 
REMARK  12 active torsions:
REMARK  status: ('A' for Active; 'I' for Inactive)
REMARK    1  A    between atoms: C_1  and  O_2
REMARK    2  A    between atoms: O_2  and  C_3
REMARK    3  A    between atoms: C_3  and  C_4
REMARK    4  A    between atoms: C_6  and  N_7
REMARK    5  A    between atoms: C_8  and  O_10
REMARK    6  A    between atoms: O_10  and  C_11
REMARK    7  A    between atoms: C_11  and  C_12
REMARK    8  A    between atoms: C_12  and  O_13
REMARK    9  A    between atoms: C_12  and  C_26
REMARK   10  A    between atoms: O_13  and  C_14
REMARK   11  A    between atoms: C_20  and  C_21
REMARK   12  A    between atoms: N_32  and  C_33
REMARK                            x       y       z     vdW  Elec       q    Type
REMARK                         _______ _______ _______ _____ _____    ______ ____
ROOT
ATOM      1  C   UNL     1       3.343   3.930  17.949  0.00  0.00    +0.000 C 
ENDROOT
BRANCH   1   2
ATOM      2  C   UNL     1       2.633   3.483  19.221  0.00  0.00    +0.000 A 
ATOM      3  C   UNL     1       1.231   3.589  19.316  0.00  0.00    +0.000 A 
ATOM      4  C   UNL     1       0.559   3.221  20.481  0.00  0.00    +0.000 A 
ATOM      5  C   UNL     1       1.276   2.739  21.577  0.00  0.00    +0.000 A 
ATOM      6  C   UNL     1       2.666   2.618  21.502  0.00  0.00    +0.000 A 
ATOM      7  C   UNL     1       3.335   2.989  20.331  0.00  0.00    +0.000 A 
ENDBRANCH   1   2
BRANCH   1   8
ATOM      8  C   UNL     1       3.311   5.469  17.833  0.00  0.00    +0.000 C 
BRANCH   8   9
ATOM      9  O   UNL     1       3.216   6.164  19.103  0.00  0.00    +0.000 OA
BRANCH   9  11
ATOM     10  N   UNL     1       1.889   7.711  20.201  0.00  0.00    +0.000 N 
ATOM     11  C   UNL     1       2.625   7.378  19.020  0.00  0.00    +0.000 C 
ATOM     12  O   UNL     1       2.654   8.100  18.036  0.00  0.00    +0.000 OA
ATOM     13  H   UNL     1       1.891   7.024  20.944  0.00  0.00    +0.000 HD
BRANCH  10  16
ATOM     14  C   UNL     1      -0.178  10.631  19.920  0.00  0.00    +0.000 A 
ATOM     15  C   UNL     1       0.501   9.556  19.308  0.00  0.00    +0.000 A 
ATOM     16  C   UNL     1       1.145   8.882  20.320  0.00  0.00    +0.000 A 
ATOM     17  N   UNL     1       0.855   9.607  21.461  0.00  0.00    +0.000 N 
ATOM     18  C   UNL     1       1.107   9.276  22.843  0.00  0.00    +0.000 C 
ATOM     19  N   UNL     1       0.093  10.694  21.227  0.00  0.00    +0.000 NA
BRANCH  14  20
ATOM     20  C   UNL     1      -1.120  11.588  19.260  0.00  0.00    +0.000 C 
BRANCH  20  22
ATOM     21  C   UNL     1      -3.094  12.601  20.056  0.00  0.00    +0.000 C 
ATOM     22  O   UNL     1      -1.692  12.469  20.233  0.00  0.00    +0.000 OA
ENDBRANCH  20  22
ENDBRANCH  14  20
ENDBRANCH  10  16
ENDBRANCH   9  11
ENDBRANCH   8   9
ENDBRANCH   1   8
BRANCH   1  23
ATOM     23  O   UNL     1       4.711   3.474  17.964  0.00  0.00    +0.000 OA
BRANCH  23  24
ATOM     24  C   UNL     1       5.678   4.354  17.535  0.00  0.00    +0.000 A 
ATOM     25  C   UNL     1       6.388   5.192  18.414  0.00  0.00    +0.000 A 
ATOM     26  C   UNL     1       7.348   6.078  17.949  0.00  0.00    +0.000 A 
ATOM     27  C   UNL     1       7.609   6.178  16.589  0.00  0.00    +0.000 A 
ATOM     28  C   UNL     1       6.924   5.328  15.703  0.00  0.00    +0.000 A 
ATOM     29  S   UNL     1       7.167   5.250  14.007  0.00  0.00    +0.000 S 
ATOM     30  C   UNL     1       6.079   3.949  13.821  0.00  0.00    +0.000 A 
ATOM     31  C   UNL     1       5.443   3.664  15.015  0.00  0.00    +0.000 A 
ATOM     32  C   UNL     1       5.959   4.418  16.138  0.00  0.00    +0.000 A 
BRANCH  30  33
ATOM     33  C   UNL     1       5.947   3.296  12.528  0.00  0.00    +0.000 C 
ATOM     34  N   UNL     1       4.829   3.343  11.862  0.00  0.00    +0.000 NA
ATOM     35  N   UNL     1       6.945   2.613  11.898  0.00  0.00    +0.000 N 
ATOM     36  H   UNL     1       4.137   3.883  12.397  0.00  0.00    +0.000 HD
ATOM     37  H   UNL     1       7.564   2.080  12.496  0.00  0.00    +0.000 HD
ATOM     38  H   UNL     1       6.564   2.063  11.132  0.00  0.00    +0.000 HD
ENDBRANCH  30  33
ENDBRANCH  23  24
ENDBRANCH   1  23
TORSDOF 10
ENDMDL
MODEL 8
REMARK VINA RESULT:      -7.2      3.719      8.204
REMARK  Name = 
REMARK  12 active torsions:
REMARK  status: ('A' for Active; 'I' for Inactive)
REMARK    1  A    between atoms: C_1  and  O_2
REMARK    2  A    between atoms: O_2  and  C_3
REMARK    3  A    between atoms: C_3  and  C_4
REMARK    4  A    between atoms: C_6  and  N_7
REMARK    5  A    between atoms: C_8  and  O_10
REMARK    6  A    between atoms: O_10  and  C_11
REMARK    7  A    between atoms: C_11  and  C_12
REMARK    8  A    between atoms: C_12  and  O_13
REMARK    9  A    between atoms: C_12  and  C_26
REMARK   10  A    between atoms: O_13  and  C_14
REMARK   11  A    between atoms: C_20  and  C_21
REMARK   12  A    between atoms: N_32  and  C_33
REMARK                            x       y       z     vdW  Elec       q    Type
REMARK                         _______ _______ _______ _____ _____    ______ ____
ROOT
ATOM      1  C   UNL     1       0.037  10.310  19.940  0.00  0.00    +0.000 C 
ENDROOT
BRANCH   1   2
ATOM      2  C   UNL     1       0.998   9.266  19.387  0.00  0.00    +0.000 A 
ATOM      3  C   UNL     1       1.373   8.166  20.183  0.00  0.00    +0.000 A 
ATOM      4  C   UNL     1       2.279   7.214  19.716  0.00  0.00    +0.000 A 
ATOM      5  C   UNL     1       2.830   7.344  18.440  0.00  0.00    +0.000 A 
ATOM      6  C   UNL     1       2.466   8.423  17.630  0.00  0.00    +0.000 A 
ATOM      7  C   UNL     1       1.558   9.375  18.105  0.00  0.00    +0.000 A 
ENDBRANCH   1   2
BRANCH   1   8
ATOM      8  C   UNL     1       0.709  11.103  21.081  0.00  0.00    +0.000 C 
BRANCH   8   9
ATOM      9  O   UNL     1       0.128  10.879  22.392  0.00  0.00    +0.000 OA
BRANCH   9  11
ATOM     10  N   UNL     1      -0.505  13.103  22.510  0.00  0.00    +0.000 N 
ATOM     11  C   UNL     1      -0.874  11.733  22.700  0.00  0.00    +0.000 C 
ATOM     12  O   UNL     1      -1.960  11.400  23.146  0.00  0.00    +0.000 OA
ATOM     13  H   UNL     1       0.436  13.276  22.178  0.00  0.00    +0.000 HD
BRANCH  10  16
ATOM     14  C   UNL     1      -2.720  15.574  23.874  0.00  0.00    +0.000 A 
ATOM     15  C   UNL     1      -2.080  14.321  23.980  0.00  0.00    +0.000 A 
ATOM     16  C   UNL     1      -1.352  14.162  22.824  0.00  0.00    +0.000 A 
ATOM     17  N   UNL     1      -1.628  15.295  22.081  0.00  0.00    +0.000 N 
ATOM     18  C   UNL     1      -1.007  15.764  20.865  0.00  0.00    +0.000 C 
ATOM     19  N   UNL     1      -2.491  16.136  22.685  0.00  0.00    +0.000 NA
BRANCH  14  20
ATOM     20  C   UNL     1      -3.532  16.257  24.930  0.00  0.00    +0.000 C 
BRANCH  20  22
ATOM     21  C   UNL     1      -5.509  17.431  24.407  0.00  0.00    +0.000 C 
ATOM     22  O   UNL     1      -4.927  16.154  24.623  0.00  0.00    +0.000 OA
ENDBRANCH  20  22
ENDBRANCH  14  20
ENDBRANCH  10  16
ENDBRANCH   9  11
ENDBRANCH   8   9
ENDBRANCH   1   8
BRANCH   1  23
ATOM     23  O   UNL     1      -0.362  11.216  18.892  0.00  0.00    +0.000 OA
BRANCH  23  24
ATOM     24  C   UNL     1      -1.586  11.003  18.300  0.00  0.00    +0.000 A 
ATOM     25  C   UNL     1      -1.747  10.221  17.142  0.00  0.00    +0.000 A 
ATOM     26  C   UNL     1      -2.992  10.036  16.563  0.00  0.00    +0.000 A 
ATOM     27  C   UNL     1      -4.114  10.651  17.101  0.00  0.00    +0.000 A 
ATOM     28  C   UNL     1      -3.972  11.415  18.272  0.00  0.00    +0.000 A 
ATOM     29  S   UNL     1      -5.247  12.181  19.126  0.00  0.00    +0.000 S 
ATOM     30  C   UNL     1      -4.213  12.708  20.377  0.00  0.00    +0.000 A 
ATOM     31  C   UNL     1      -2.894  12.415  20.082  0.00  0.00    +0.000 A 
ATOM     32  C   UNL     1      -2.734  11.613  18.888  0.00  0.00    +0.000 A 
BRANCH  30  33
ATOM     33  C   UNL     1      -4.774  13.349  21.556  0.00  0.00    +0.000 C 
ATOM     34  N   UNL     1      -4.988  12.675  22.650  0.00  0.00    +0.000 NA
ATOM     35  N   UNL     1      -5.104  14.669  21.639  0.00  0.00    +0.000 N 
ATOM     36  H   UNL     1      -4.703  11.697  22.507  0.00  0.00    +0.000 HD
ATOM     37  H   UNL     1      -5.489  15.084  20.801  0.00  0.00    +0.000 HD
ATOM     38  H   UNL     1      -5.677  14.836  22.463  0.00  0.00    +0.000 HD
ENDBRANCH  30  33
ENDBRANCH  23  24
ENDBRANCH   1  23
TORSDOF 10
ENDMDL
MODEL 9
REMARK VINA RESULT:      -7.2      1.620      2.106
REMARK  Name = 
REMARK  12 active torsions:
REMARK  status: ('A' for Active; 'I' for Inactive)
REMARK    1  A    between atoms: C_1  and  O_2
REMARK    2  A    between atoms: O_2  and  C_3
REMARK    3  A    between atoms: C_3  and  C_4
REMARK    4  A    between atoms: C_6  and  N_7
REMARK    5  A    between atoms: C_8  and  O_10
REMARK    6  A    between atoms: O_10  and  C_11
REMARK    7  A    between atoms: C_11  and  C_12
REMARK    8  A    between atoms: C_12  and  O_13
REMARK    9  A    between atoms: C_12  and  C_26
REMARK   10  A    between atoms: O_13  and  C_14
REMARK   11  A    between atoms: C_20  and  C_21
REMARK   12  A    between atoms: N_32  and  C_33
REMARK                            x       y       z     vdW  Elec       q    Type
REMARK                         _______ _______ _______ _____ _____    ______ ____
ROOT
ATOM      1  C   UNL     1      -0.245  10.441  19.472  0.00  0.00    +0.000 C 
ENDROOT
BRANCH   1   2
ATOM      2  C   UNL     1       0.719  11.616  19.573  0.00  0.00    +0.000 A 
ATOM      3  C   UNL     1       1.623  11.873  18.523  0.00  0.00    +0.000 A 
ATOM      4  C   UNL     1       2.541  12.920  18.604  0.00  0.00    +0.000 A 
ATOM      5  C   UNL     1       2.574  13.731  19.738  0.00  0.00    +0.000 A 
ATOM      6  C   UNL     1       1.682  13.499  20.788  0.00  0.00    +0.000 A 
ATOM      7  C   UNL     1       0.764  12.447  20.702  0.00  0.00    +0.000 A 
ENDBRANCH   1   2
BRANCH   1   8
ATOM      8  C   UNL     1      -0.007   9.453  20.634  0.00  0.00    +0.000 C 
BRANCH   8   9
ATOM      9  O   UNL     1       1.375   9.044  20.801  0.00  0.00    +0.000 OA
BRANCH   9  11
ATOM     10  N   UNL     1       2.145   6.879  20.526  0.00  0.00    +0.000 N 
ATOM     11  C   UNL     1       1.783   8.117  19.906  0.00  0.00    +0.000 C 
ATOM     12  O   UNL     1       1.894   8.309  18.706  0.00  0.00    +0.000 OA
ATOM     13  H   UNL     1       2.059   6.836  21.534  0.00  0.00    +0.000 HD
BRANCH  10  16
ATOM     14  C   UNL     1       3.975   4.429  18.649  0.00  0.00    +0.000 A 
ATOM     15  C   UNL     1       3.864   5.740  19.157  0.00  0.00    +0.000 A 
ATOM     16  C   UNL     1       2.656   5.799  19.811  0.00  0.00    +0.000 A 
ATOM     17  N   UNL     1       2.098   4.548  19.623  0.00  0.00    +0.000 N 
ATOM     18  C   UNL     1       0.925   3.969  20.234  0.00  0.00    +0.000 C 
ATOM     19  N   UNL     1       2.865   3.723  18.883  0.00  0.00    +0.000 NA
BRANCH  14  20
ATOM     20  C   UNL     1       5.163   3.832  17.963  0.00  0.00    +0.000 C 
BRANCH  20  22
ATOM     21  C   UNL     1       7.335   4.726  17.756  0.00  0.00    +0.000 C 
ATOM     22  O   UNL     1       5.971   4.864  17.386  0.00  0.00    +0.000 OA
ENDBRANCH  20  22
ENDBRANCH  14  20
ENDBRANCH  10  16
ENDBRANCH   9  11
ENDBRANCH   8   9
ENDBRANCH   1   8
BRANCH   1  23
ATOM     23  O   UNL     1      -1.606  10.917  19.513  0.00  0.00    +0.000 OA
BRANCH  23  24
ATOM     24  C   UNL     1      -2.336  10.856  18.348  0.00  0.00    +0.000 A 
ATOM     25  C   UNL     1      -1.882  10.184  17.199  0.00  0.00    +0.000 A 
ATOM     26  C   UNL     1      -2.636  10.153  16.036  0.00  0.00    +0.000 A 
ATOM     27  C   UNL     1      -3.853  10.817  15.971  0.00  0.00    +0.000 A 
ATOM     28  C   UNL     1      -4.330  11.472  17.120  0.00  0.00    +0.000 A 
ATOM     29  S   UNL     1      -5.838  12.275  17.258  0.00  0.00    +0.000 S 
ATOM     30  C   UNL     1      -5.609  12.613  18.915  0.00  0.00    +0.000 A 
ATOM     31  C   UNL     1      -4.345  12.232  19.325  0.00  0.00    +0.000 A 
ATOM     32  C   UNL     1      -3.601  11.514  18.311  0.00  0.00    +0.000 A 
BRANCH  30  33
ATOM     33  C   UNL     1      -6.690  13.205  19.687  0.00  0.00    +0.000 C 
ATOM     34  N   UNL     1      -6.988  14.467  19.570  0.00  0.00    +0.000 NA
ATOM     35  N   UNL     1      -7.481  12.523  20.564  0.00  0.00    +0.000 N 
ATOM     36  H   UNL     1      -6.356  14.902  18.885  0.00  0.00    +0.000 HD
ATOM     37  H   UNL     1      -7.024  11.798  21.102  0.00  0.00    +0.000 HD
ATOM     38  H   UNL     1      -8.006  13.175  21.143  0.00  0.00    +0.000 HD
ENDBRANCH  30  33
ENDBRANCH  23  24
ENDBRANCH   1  23
TORSDOF 10
ENDMDL
