MODEL 1
REMARK VINA RESULT:      -7.9      0.000      0.000
REMARK  Name = 
REMARK  10 active torsions:
REMARK  status: ('A' for Active; 'I' for Inactive)
REMARK    1  A    between atoms: C_2  and  O_3
REMARK    2  A    between atoms: C_2  and  O_18
REMARK    3  A    between atoms: O_3  and  C_4
REMARK    4  A    between atoms: C_4  and  C_5
REMARK    5  A    between atoms: C_5  and  C_6
REMARK    6  A    between atoms: C_11  and  N_12
REMARK    7  A    between atoms: O_18  and  C_19
REMARK    8  A    between atoms: C_19  and  C_20
REMARK    9  A    between atoms: C_23  and  O_24
REMARK   10  A    between atoms: O_24  and  C_25
REMARK                            x       y       z     vdW  Elec       q    Type
REMARK                         _______ _______ _______ _____ _____    ______ ____
ROOT
ATOM      1  O   UNL     1       2.723   6.698  19.192  0.00  0.00    +0.000 OA
ATOM      2  C   UNL     1       2.185   6.606  20.281  0.00  0.00    +0.000 C 
ENDROOT
BRANCH   2   3
ATOM      3  O   UNL     1       2.016   5.450  20.975  0.00  0.00    +0.000 OA
BRANCH   3   4
ATOM      4  C   UNL     1       1.122   4.501  20.375  0.00  0.00    +0.000 C 
BRANCH   4   5
ATOM      5  C   UNL     1       1.325   3.042  20.806  0.00  0.00    +0.000 C 
BRANCH   5   6
ATOM      6  C   UNL     1       2.171   2.283  19.759  0.00  0.00    +0.000 C 
ATOM      7  C   UNL     1       1.654   2.413  18.318  0.00  0.00    +0.000 C 
ATOM      8  C   UNL     1       2.360   3.436  17.442  0.00  0.00    +0.000 C 
ATOM      9  N   UNL     1       3.685   3.742  17.902  0.00  0.00    +0.000 N 
ATOM     10  C   UNL     1       4.635   4.486  17.254  0.00  0.00    +0.000 A 
ATOM     11  C   UNL     1       5.706   4.488  18.133  0.00  0.00    +0.000 A 
ATOM     12  N   UNL     1       5.421   3.764  19.273  0.00  0.00    +0.000 NA
ATOM     13  C   UNL     1       4.196   3.331  19.095  0.00  0.00    +0.000 A 
ATOM     14  O   UNL     1       3.560   2.547  19.958  0.00  0.00    +0.000 OA
BRANCH  11  15
ATOM     15  N   UNL     1       6.986   5.139  17.947  0.00  0.00    +0.000 N 
ATOM     16  O   UNL     1       7.018   6.366  18.140  0.00  0.00    +0.000 OA
ATOM     17  O   UNL     1       7.952   4.440  17.614  0.00  0.00    +0.000 OA
ENDBRANCH  11  15
ENDBRANCH   5   6
ENDBRANCH   4   5
ENDBRANCH   3   4
ENDBRANCH   2   3
BRANCH   2  18
ATOM     18  O   UNL     1       1.606   7.611  20.984  0.00  0.00    +0.000 OA
BRANCH  18  19
ATOM     19  C   UNL     1       1.124   8.729  20.223  0.00  0.00    +0.000 C 
BRANCH  19  20
ATOM     20  C   UNL     1       0.423   9.756  21.087  0.00  0.00    +0.000 A 
ATOM     21  C   UNL     1       0.314  11.091  20.682  0.00  0.00    +0.000 A 
ATOM     22  C   UNL     1      -0.388  12.017  21.466  0.00  0.00    +0.000 A 
ATOM     23  C   UNL     1      -1.009  11.632  22.656  0.00  0.00    +0.000 A 
ATOM     24  C   UNL     1      -0.877  10.314  23.083  0.00  0.00    +0.000 A 
ATOM     25  C   UNL     1      -0.183   9.380  22.296  0.00  0.00    +0.000 A 
BRANCH  23  26
ATOM     26  O   UNL     1      -1.651  12.638  23.309  0.00  0.00    +0.000 OA
BRANCH  26  27
ATOM     27  C   UNL     1      -3.068  12.646  23.399  0.00  0.00    +0.000 C 
ATOM     28  F   UNL     1      -3.574  11.785  24.306  0.00  0.00    +0.000 F 
ATOM     29  F   UNL     1      -3.495  13.893  23.694  0.00  0.00    +0.000 F 
ATOM     30  F   UNL     1      -3.573  12.309  22.189  0.00  0.00    +0.000 F 
ENDBRANCH  26  27
ENDBRANCH  23  26
ENDBRANCH  19  20
ENDBRANCH  18  19
ENDBRANCH   2  18
TORSDOF 10
ENDMDL
MODEL 2
REMARK VINA RESULT:      -7.5      0.523      1.257
REMARK  Name = 
REMARK  10 active torsions:
REMARK  status: ('A' for Active; 'I' for Inactive)
REMARK    1  A    between atoms: C_2  and  O_3
REMARK    2  A    between atoms: C_2  and  O_18
REMARK    3  A    between atoms: O_3  and  C_4
REMARK    4  A    between atoms: C_4  and  C_5
REMARK    5  A    between atoms: C_5  and  C_6
REMARK    6  A    between atoms: C_11  and  N_12
REMARK    7  A    between atoms: O_18  and  C_19
REMARK    8  A    between atoms: C_19  and  C_20
REMARK    9  A    between atoms: C_23  and  O_24
REMARK   10  A    between atoms: O_24  and  C_25
REMARK                            x       y       z     vdW  Elec       q    Type
REMARK                         _______ _______ _______ _____ _____    ______ ____
ROOT
ATOM      1  O   UNL     1       3.181   6.682  19.326  0.00  0.00    +0.000 OA
ATOM      2  C   UNL     1       2.214   6.606  20.064  0.00  0.00    +0.000 C 
ENDROOT
BRANCH   2   3
ATOM      3  O   UNL     1       1.483   5.481  20.282  0.00  0.00    +0.000 OA
BRANCH   3   4
ATOM      4  C   UNL     1       2.013   4.590  21.275  0.00  0.00    +0.000 C 
BRANCH   4   5
ATOM      5  C   UNL     1       1.442   3.166  21.252  0.00  0.00    +0.000 C 
BRANCH   5   6
ATOM      6  C   UNL     1       2.135   2.324  20.157  0.00  0.00    +0.000 C 
ATOM      7  C   UNL     1       1.458   2.399  18.781  0.00  0.00    +0.000 C 
ATOM      8  C   UNL     1       2.087   3.350  17.774  0.00  0.00    +0.000 C 
ATOM      9  N   UNL     1       3.466   3.630  18.060  0.00  0.00    +0.000 N 
ATOM     10  C   UNL     1       4.355   4.305  17.268  0.00  0.00    +0.000 A 
ATOM     11  C   UNL     1       5.521   4.312  18.016  0.00  0.00    +0.000 A 
ATOM     12  N   UNL     1       5.350   3.658  19.219  0.00  0.00    +0.000 NA
ATOM     13  C   UNL     1       4.099   3.262  19.208  0.00  0.00    +0.000 A 
ATOM     14  O   UNL     1       3.545   2.546  20.179  0.00  0.00    +0.000 OA
BRANCH  11  15
ATOM     15  N   UNL     1       6.790   4.905  17.648  0.00  0.00    +0.000 N 
ATOM     16  O   UNL     1       6.754   5.807  16.793  0.00  0.00    +0.000 OA
ATOM     17  O   UNL     1       7.813   4.482  18.200  0.00  0.00    +0.000 OA
ENDBRANCH  11  15
ENDBRANCH   5   6
ENDBRANCH   4   5
ENDBRANCH   3   4
ENDBRANCH   2   3
BRANCH   2  18
ATOM     18  O   UNL     1       1.646   7.622  20.761  0.00  0.00    +0.000 OA
BRANCH  18  19
ATOM     19  C   UNL     1       1.233   8.767  20.001  0.00  0.00    +0.000 C 
BRANCH  19  20
ATOM     20  C   UNL     1       0.506   9.791  20.848  0.00  0.00    +0.000 A 
ATOM     21  C   UNL     1      -0.157   9.419  22.023  0.00  0.00    +0.000 A 
ATOM     22  C   UNL     1      -0.776  10.386  22.826  0.00  0.00    +0.000 A 
ATOM     23  C   UNL     1      -0.734  11.741  22.487  0.00  0.00    +0.000 A 
ATOM     24  C   UNL     1      -0.105  12.115  21.303  0.00  0.00    +0.000 A 
ATOM     25  C   UNL     1       0.525  11.150  20.500  0.00  0.00    +0.000 A 
BRANCH  23  26
ATOM     26  O   UNL     1      -1.379  12.561  23.359  0.00  0.00    +0.000 OA
BRANCH  26  27
ATOM     27  C   UNL     1      -2.798  12.587  23.405  0.00  0.00    +0.000 C 
ATOM     28  F   UNL     1      -3.393  12.676  22.197  0.00  0.00    +0.000 F 
ATOM     29  F   UNL     1      -3.250  11.481  24.035  0.00  0.00    +0.000 F 
ATOM     30  F   UNL     1      -3.181  13.664  24.130  0.00  0.00    +0.000 F 
ENDBRANCH  26  27
ENDBRANCH  23  26
ENDBRANCH  19  20
ENDBRANCH  18  19
ENDBRANCH   2  18
TORSDOF 10
ENDMDL
MODEL 3
REMARK VINA RESULT:      -7.5      2.326      3.014
REMARK  Name = 
REMARK  10 active torsions:
REMARK  status: ('A' for Active; 'I' for Inactive)
REMARK    1  A    between atoms: C_2  and  O_3
REMARK    2  A    between atoms: C_2  and  O_18
REMARK    3  A    between atoms: O_3  and  C_4
REMARK    4  A    between atoms: C_4  and  C_5
REMARK    5  A    between atoms: C_5  and  C_6
REMARK    6  A    between atoms: C_11  and  N_12
REMARK    7  A    between atoms: O_18  and  C_19
REMARK    8  A    between atoms: C_19  and  C_20
REMARK    9  A    between atoms: C_23  and  O_24
REMARK   10  A    between atoms: O_24  and  C_25
REMARK                            x       y       z     vdW  Elec       q    Type
REMARK                         _______ _______ _______ _____ _____    ______ ____
ROOT
ATOM      1  O   UNL     1       1.313   4.998  17.600  0.00  0.00    +0.000 OA
ATOM      2  C   UNL     1       1.812   5.063  18.710  0.00  0.00    +0.000 C 
ENDROOT
BRANCH   2   3
ATOM      3  O   UNL     1       1.587   4.183  19.721  0.00  0.00    +0.000 OA
BRANCH   3   4
ATOM      4  C   UNL     1       2.646   4.074  20.684  0.00  0.00    +0.000 C 
BRANCH   4   5
ATOM      5  C   UNL     1       3.048   2.641  21.061  0.00  0.00    +0.000 C 
BRANCH   5   6
ATOM      6  C   UNL     1       4.140   2.117  20.102  0.00  0.00    +0.000 C 
ATOM      7  C   UNL     1       3.595   1.349  18.887  0.00  0.00    +0.000 C 
ATOM      8  C   UNL     1       3.503   2.131  17.586  0.00  0.00    +0.000 C 
ATOM      9  N   UNL     1       4.388   3.260  17.551  0.00  0.00    +0.000 N 
ATOM     10  C   UNL     1       4.667   4.060  16.476  0.00  0.00    +0.000 A 
ATOM     11  C   UNL     1       5.550   4.999  16.986  0.00  0.00    +0.000 A 
ATOM     12  N   UNL     1       5.806   4.773  18.323  0.00  0.00    +0.000 NA
ATOM     13  C   UNL     1       5.088   3.718  18.626  0.00  0.00    +0.000 A 
ATOM     14  O   UNL     1       5.091   3.145  19.824  0.00  0.00    +0.000 OA
BRANCH  11  15
ATOM     15  N   UNL     1       6.167   6.096  16.270  0.00  0.00    +0.000 N 
ATOM     16  O   UNL     1       7.404   6.187  16.353  0.00  0.00    +0.000 OA
ATOM     17  O   UNL     1       5.433   6.859  15.629  0.00  0.00    +0.000 OA
ENDBRANCH  11  15
ENDBRANCH   5   6
ENDBRANCH   4   5
ENDBRANCH   3   4
ENDBRANCH   2   3
BRANCH   2  18
ATOM     18  O   UNL     1       2.633   6.039  19.172  0.00  0.00    +0.000 OA
BRANCH  18  19
ATOM     19  C   UNL     1       2.837   7.165  18.306  0.00  0.00    +0.000 C 
BRANCH  19  20
ATOM     20  C   UNL     1       2.051   8.382  18.749  0.00  0.00    +0.000 A 
ATOM     21  C   UNL     1       1.802   9.442  17.870  0.00  0.00    +0.000 A 
ATOM     22  C   UNL     1       1.023  10.535  18.276  0.00  0.00    +0.000 A 
ATOM     23  C   UNL     1       0.465  10.587  19.555  0.00  0.00    +0.000 A 
ATOM     24  C   UNL     1       0.735   9.552  20.446  0.00  0.00    +0.000 A 
ATOM     25  C   UNL     1       1.506   8.451  20.040  0.00  0.00    +0.000 A 
BRANCH  23  26
ATOM     26  O   UNL     1      -0.264  11.708  19.808  0.00  0.00    +0.000 OA
BRANCH  26  27
ATOM     27  C   UNL     1      -1.530  11.894  19.192  0.00  0.00    +0.000 C 
ATOM     28  F   UNL     1      -1.493  12.598  18.042  0.00  0.00    +0.000 F 
ATOM     29  F   UNL     1      -2.096  10.691  18.951  0.00  0.00    +0.000 F 
ATOM     30  F   UNL     1      -2.329  12.564  20.056  0.00  0.00    +0.000 F 
ENDBRANCH  26  27
ENDBRANCH  23  26
ENDBRANCH  19  20
ENDBRANCH  18  19
ENDBRANCH   2  18
TORSDOF 10
ENDMDL
MODEL 4
REMARK VINA RESULT:      -7.4      7.258     10.073
REMARK  Name = 
REMARK  10 active torsions:
REMARK  status: ('A' for Active; 'I' for Inactive)
REMARK    1  A    between atoms: C_2  and  O_3
REMARK    2  A    between atoms: C_2  and  O_18
REMARK    3  A    between atoms: O_3  and  C_4
REMARK    4  A    between atoms: C_4  and  C_5
REMARK    5  A    between atoms: C_5  and  C_6
REMARK    6  A    between atoms: C_11  and  N_12
REMARK    7  A    between atoms: O_18  and  C_19
REMARK    8  A    between atoms: C_19  and  C_20
REMARK    9  A    between atoms: C_23  and  O_24
REMARK   10  A    between atoms: O_24  and  C_25
REMARK                            x       y       z     vdW  Elec       q    Type
REMARK                         _______ _______ _______ _____ _____    ______ ____
ROOT
ATOM      1  O   UNL     1       7.776   6.401  18.567  0.00  0.00    +0.000 OA
ATOM      2  C   UNL     1       7.434   6.925  17.521  0.00  0.00    +0.000 C 
ENDROOT
BRANCH   2   3
ATOM      3  O   UNL     1       7.607   8.237  17.211  0.00  0.00    +0.000 OA
BRANCH   3   4
ATOM      4  C   UNL     1       8.350   9.000  18.174  0.00  0.00    +0.000 C 
BRANCH   4   5
ATOM      5  C   UNL     1       8.643  10.453  17.775  0.00  0.00    +0.000 C 
BRANCH   5   6
ATOM      6  C   UNL     1       9.598  11.111  18.797  0.00  0.00    +0.000 C 
ATOM      7  C   UNL     1      11.002  11.407  18.248  0.00  0.00    +0.000 C 
ATOM      8  C   UNL     1      11.262  12.838  17.806  0.00  0.00    +0.000 C 
ATOM      9  N   UNL     1      10.375  13.782  18.426  0.00  0.00    +0.000 N 
ATOM     10  C   UNL     1      10.451  15.147  18.373  0.00  0.00    +0.000 A 
ATOM     11  C   UNL     1       9.355  15.566  19.111  0.00  0.00    +0.000 A 
ATOM     12  N   UNL     1       8.641  14.492  19.602  0.00  0.00    +0.000 NA
ATOM     13  C   UNL     1       9.287  13.436  19.169  0.00  0.00    +0.000 A 
ATOM     14  O   UNL     1       8.942  12.188  19.466  0.00  0.00    +0.000 OA
BRANCH  11  15
ATOM     15  N   UNL     1       8.952  16.931  19.376  0.00  0.00    +0.000 N 
ATOM     16  O   UNL     1       9.567  17.526  20.278  0.00  0.00    +0.000 OA
ATOM     17  O   UNL     1       8.036  17.411  18.696  0.00  0.00    +0.000 OA
ENDBRANCH  11  15
ENDBRANCH   5   6
ENDBRANCH   4   5
ENDBRANCH   3   4
ENDBRANCH   2   3
BRANCH   2  18
ATOM     18  O   UNL     1       6.774   6.331  16.496  0.00  0.00    +0.000 OA
BRANCH  18  19
ATOM     19  C   UNL     1       5.411   6.734  16.294  0.00  0.00    +0.000 C 
BRANCH  19  20
ATOM     20  C   UNL     1       4.437   5.901  17.101  0.00  0.00    +0.000 A 
ATOM     21  C   UNL     1       3.387   6.497  17.808  0.00  0.00    +0.000 A 
ATOM     22  C   UNL     1       2.459   5.709  18.503  0.00  0.00    +0.000 A 
ATOM     23  C   UNL     1       2.547   4.315  18.495  0.00  0.00    +0.000 A 
ATOM     24  C   UNL     1       3.609   3.716  17.822  0.00  0.00    +0.000 A 
ATOM     25  C   UNL     1       4.534   4.502  17.116  0.00  0.00    +0.000 A 
BRANCH  23  26
ATOM     26  O   UNL     1       1.580   3.684  19.214  0.00  0.00    +0.000 OA
BRANCH  26  27
ATOM     27  C   UNL     1       1.432   3.944  20.602  0.00  0.00    +0.000 C 
ATOM     28  F   UNL     1       2.592   4.171  21.253  0.00  0.00    +0.000 F 
ATOM     29  F   UNL     1       0.617   5.006  20.777  0.00  0.00    +0.000 F 
ATOM     30  F   UNL     1       0.844   2.868  21.176  0.00  0.00    +0.000 F 
ENDBRANCH  26  27
ENDBRANCH  23  26
ENDBRANCH  19  20
ENDBRANCH  18  19
ENDBRANCH   2  18
TORSDOF 10
ENDMDL
MODEL 5
REMARK VINA RESULT:      -7.4      5.023      8.763
REMARK  Name = 
REMARK  10 active torsions:
REMARK  status: ('A' for Active; 'I' for Inactive)
REMARK    1  A    between atoms: C_2  and  O_3
REMARK    2  A    between atoms: C_2  and  O_18
REMARK    3  A    between atoms: O_3  and  C_4
REMARK    4  A    between atoms: C_4  and  C_5
REMARK    5  A    between atoms: C_5  and  C_6
REMARK    6  A    between atoms: C_11  and  N_12
REMARK    7  A    between atoms: O_18  and  C_19
REMARK    8  A    between atoms: C_19  and  C_20
REMARK    9  A    between atoms: C_23  and  O_24
REMARK   10  A    between atoms: O_24  and  C_25
REMARK                            x       y       z     vdW  Elec       q    Type
REMARK                         _______ _______ _______ _____ _____    ______ ____
ROOT
ATOM      1  O   UNL     1       1.867   2.031  20.448  0.00  0.00    +0.000 OA
ATOM      2  C   UNL     1       2.685   2.933  20.500  0.00  0.00    +0.000 C 
ENDROOT
BRANCH   2   3
ATOM      3  O   UNL     1       2.485   4.135  21.100  0.00  0.00    +0.000 OA
BRANCH   3   4
ATOM      4  C   UNL     1       1.426   4.929  20.543  0.00  0.00    +0.000 C 
BRANCH   4   5
ATOM      5  C   UNL     1       1.726   5.560  19.176  0.00  0.00    +0.000 C 
BRANCH   5   6
ATOM      6  C   UNL     1       2.526   6.870  19.351  0.00  0.00    +0.000 C 
ATOM      7  C   UNL     1       2.715   7.671  18.053  0.00  0.00    +0.000 C 
ATOM      8  C   UNL     1       1.767   8.840  17.841  0.00  0.00    +0.000 C 
ATOM      9  N   UNL     1       1.205   9.330  19.068  0.00  0.00    +0.000 N 
ATOM     10  C   UNL     1       0.456  10.462  19.241  0.00  0.00    +0.000 A 
ATOM     11  C   UNL     1       0.155  10.453  20.594  0.00  0.00    +0.000 A 
ATOM     12  N   UNL     1       0.708   9.356  21.224  0.00  0.00    +0.000 NA
ATOM     13  C   UNL     1       1.332   8.705  20.272  0.00  0.00    +0.000 A 
ATOM     14  O   UNL     1       2.040   7.601  20.477  0.00  0.00    +0.000 OA
BRANCH  11  15
ATOM     15  N   UNL     1      -0.627  11.432  21.321  0.00  0.00    +0.000 N 
ATOM     16  O   UNL     1      -0.997  11.109  22.463  0.00  0.00    +0.000 OA
ATOM     17  O   UNL     1      -0.871  12.511  20.767  0.00  0.00    +0.000 OA
ENDBRANCH  11  15
ENDBRANCH   5   6
ENDBRANCH   4   5
ENDBRANCH   3   4
ENDBRANCH   2   3
BRANCH   2  18
ATOM     18  O   UNL     1       3.917   2.941  19.933  0.00  0.00    +0.000 OA
BRANCH  18  19
ATOM     19  C   UNL     1       3.960   3.029  18.501  0.00  0.00    +0.000 C 
BRANCH  19  20
ATOM     20  C   UNL     1       4.902   4.113  18.018  0.00  0.00    +0.000 A 
ATOM     21  C   UNL     1       5.913   4.615  18.844  0.00  0.00    +0.000 A 
ATOM     22  C   UNL     1       6.812   5.577  18.364  0.00  0.00    +0.000 A 
ATOM     23  C   UNL     1       6.735   6.045  17.050  0.00  0.00    +0.000 A 
ATOM     24  C   UNL     1       5.711   5.575  16.232  0.00  0.00    +0.000 A 
ATOM     25  C   UNL     1       4.814   4.604  16.706  0.00  0.00    +0.000 A 
BRANCH  23  26
ATOM     26  O   UNL     1       7.672   6.976  16.726  0.00  0.00    +0.000 OA
BRANCH  26  27
ATOM     27  C   UNL     1       7.929   8.068  17.597  0.00  0.00    +0.000 C 
ATOM     28  F   UNL     1       8.435   7.717  18.797  0.00  0.00    +0.000 F 
ATOM     29  F   UNL     1       8.780   8.931  16.999  0.00  0.00    +0.000 F 
ATOM     30  F   UNL     1       6.764   8.720  17.818  0.00  0.00    +0.000 F 
ENDBRANCH  26  27
ENDBRANCH  23  26
ENDBRANCH  19  20
ENDBRANCH  18  19
ENDBRANCH   2  18
TORSDOF 10
ENDMDL
MODEL 6
REMARK VINA RESULT:      -7.3      5.006      8.648
REMARK  Name = 
REMARK  10 active torsions:
REMARK  status: ('A' for Active; 'I' for Inactive)
REMARK    1  A    between atoms: C_2  and  O_3
REMARK    2  A    between atoms: C_2  and  O_18
REMARK    3  A    between atoms: O_3  and  C_4
REMARK    4  A    between atoms: C_4  and  C_5
REMARK    5  A    between atoms: C_5  and  C_6
REMARK    6  A    between atoms: C_11  and  N_12
REMARK    7  A    between atoms: O_18  and  C_19
REMARK    8  A    between atoms: C_19  and  C_20
REMARK    9  A    between atoms: C_23  and  O_24
REMARK   10  A    between atoms: O_24  and  C_25
REMARK                            x       y       z     vdW  Elec       q    Type
REMARK                         _______ _______ _______ _____ _____    ______ ____
ROOT
ATOM      1  O   UNL     1       1.643   1.667  18.688  0.00  0.00    +0.000 OA
ATOM      2  C   UNL     1       2.645   2.351  18.803  0.00  0.00    +0.000 C 
ENDROOT
BRANCH   2   3
ATOM      3  O   UNL     1       2.965   3.091  19.897  0.00  0.00    +0.000 OA
BRANCH   3   4
ATOM      4  C   UNL     1       1.862   3.762  20.525  0.00  0.00    +0.000 C 
BRANCH   4   5
ATOM      5  C   UNL     1       1.349   5.011  19.795  0.00  0.00    +0.000 C 
BRANCH   5   6
ATOM      6  C   UNL     1       2.340   6.183  19.971  0.00  0.00    +0.000 C 
ATOM      7  C   UNL     1       2.575   7.006  18.695  0.00  0.00    +0.000 C 
ATOM      8  C   UNL     1       1.798   8.309  18.583  0.00  0.00    +0.000 C 
ATOM      9  N   UNL     1       1.380   8.818  19.859  0.00  0.00    +0.000 N 
ATOM     10  C   UNL     1       0.816  10.037  20.118  0.00  0.00    +0.000 A 
ATOM     11  C   UNL     1       0.589  10.010  21.485  0.00  0.00    +0.000 A 
ATOM     12  N   UNL     1       1.008   8.818  22.040  0.00  0.00    +0.000 NA
ATOM     13  C   UNL     1       1.479   8.127  21.028  0.00  0.00    +0.000 A 
ATOM     14  O   UNL     1       2.027   6.924  21.150  0.00  0.00    +0.000 OA
BRANCH  11  15
ATOM     15  N   UNL     1      -0.002  11.057  22.292  0.00  0.00    +0.000 N 
ATOM     16  O   UNL     1       0.013  12.204  21.811  0.00  0.00    +0.000 OA
ATOM     17  O   UNL     1      -0.478  10.747  23.391  0.00  0.00    +0.000 OA
ENDBRANCH  11  15
ENDBRANCH   5   6
ENDBRANCH   4   5
ENDBRANCH   3   4
ENDBRANCH   2   3
BRANCH   2  18
ATOM     18  O   UNL     1       3.599   2.553  17.861  0.00  0.00    +0.000 OA
BRANCH  18  19
ATOM     19  C   UNL     1       3.431   3.701  17.016  0.00  0.00    +0.000 C 
BRANCH  19  20
ATOM     20  C   UNL     1       4.664   4.579  16.983  0.00  0.00    +0.000 A 
ATOM     21  C   UNL     1       4.968   5.360  15.862  0.00  0.00    +0.000 A 
ATOM     22  C   UNL     1       6.081   6.212  15.869  0.00  0.00    +0.000 A 
ATOM     23  C   UNL     1       6.903   6.316  16.993  0.00  0.00    +0.000 A 
ATOM     24  C   UNL     1       6.628   5.517  18.100  0.00  0.00    +0.000 A 
ATOM     25  C   UNL     1       5.507   4.670  18.101  0.00  0.00    +0.000 A 
BRANCH  23  26
ATOM     26  O   UNL     1       7.945   7.179  16.853  0.00  0.00    +0.000 OA
BRANCH  26  27
ATOM     27  C   UNL     1       8.062   8.306  17.709  0.00  0.00    +0.000 C 
ATOM     28  F   UNL     1       8.673   8.052  18.885  0.00  0.00    +0.000 F 
ATOM     29  F   UNL     1       8.734   9.289  17.071  0.00  0.00    +0.000 F 
ATOM     30  F   UNL     1       6.818   8.764  17.984  0.00  0.00    +0.000 F 
ENDBRANCH  26  27
ENDBRANCH  23  26
ENDBRANCH  19  20
ENDBRANCH  18  19
ENDBRANCH   2  18
TORSDOF 10
ENDMDL
MODEL 7
REMARK VINA RESULT:      -7.3      2.577      3.080
REMARK  Name = 
REMARK  10 active torsions:
REMARK  status: ('A' for Active; 'I' for Inactive)
REMARK    1  A    between atoms: C_2  and  O_3
REMARK    2  A    between atoms: C_2  and  O_18
REMARK    3  A    between atoms: O_3  and  C_4
REMARK    4  A    between atoms: C_4  and  C_5
REMARK    5  A    between atoms: C_5  and  C_6
REMARK    6  A    between atoms: C_11  and  N_12
REMARK    7  A    between atoms: O_18  and  C_19
REMARK    8  A    between atoms: C_19  and  C_20
REMARK    9  A    between atoms: C_23  and  O_24
REMARK   10  A    between atoms: O_24  and  C_25
REMARK                            x       y       z     vdW  Elec       q    Type
REMARK                         _______ _______ _______ _____ _____    ______ ____
ROOT
ATOM      1  O   UNL     1       1.368   7.404  21.507  0.00  0.00    +0.000 OA
ATOM      2  C   UNL     1       1.674   7.184  20.348  0.00  0.00    +0.000 C 
ENDROOT
BRANCH   2   3
ATOM      3  O   UNL     1       2.025   5.971  19.849  0.00  0.00    +0.000 OA
BRANCH   3   4
ATOM      4  C   UNL     1       1.250   4.863  20.332  0.00  0.00    +0.000 C 
BRANCH   4   5
ATOM      5  C   UNL     1       2.033   3.812  21.132  0.00  0.00    +0.000 C 
BRANCH   5   6
ATOM      6  C   UNL     1       2.696   2.792  20.180  0.00  0.00    +0.000 C 
ATOM      7  C   UNL     1       1.915   2.543  18.881  0.00  0.00    +0.000 C 
ATOM      8  C   UNL     1       2.406   3.288  17.649  0.00  0.00    +0.000 C 
ATOM      9  N   UNL     1       3.781   3.686  17.752  0.00  0.00    +0.000 N 
ATOM     10  C   UNL     1       4.565   4.219  16.764  0.00  0.00    +0.000 A 
ATOM     11  C   UNL     1       5.780   4.439  17.392  0.00  0.00    +0.000 A 
ATOM     12  N   UNL     1       5.741   4.046  18.714  0.00  0.00    +0.000 NA
ATOM     13  C   UNL     1       4.521   3.599  18.892  0.00  0.00    +0.000 A 
ATOM     14  O   UNL     1       4.087   3.079  20.035  0.00  0.00    +0.000 OA
BRANCH  11  15
ATOM     15  N   UNL     1       6.978   4.999  16.801  0.00  0.00    +0.000 N 
ATOM     16  O   UNL     1       6.836   6.044  16.143  0.00  0.00    +0.000 OA
ATOM     17  O   UNL     1       8.050   4.411  16.990  0.00  0.00    +0.000 OA
ENDBRANCH  11  15
ENDBRANCH   5   6
ENDBRANCH   4   5
ENDBRANCH   3   4
ENDBRANCH   2   3
BRANCH   2  18
ATOM     18  O   UNL     1       1.778   8.099  19.352  0.00  0.00    +0.000 OA
BRANCH  18  19
ATOM     19  C   UNL     1       1.596   9.473  19.725  0.00  0.00    +0.000 C 
BRANCH  19  20
ATOM     20  C   UNL     1       0.336  10.070  19.131  0.00  0.00    +0.000 A 
ATOM     21  C   UNL     1      -0.190   9.596  17.924  0.00  0.00    +0.000 A 
ATOM     22  C   UNL     1      -1.388  10.118  17.418  0.00  0.00    +0.000 A 
ATOM     23  C   UNL     1      -2.094  11.107  18.107  0.00  0.00    +0.000 A 
ATOM     24  C   UNL     1      -1.560  11.607  19.292  0.00  0.00    +0.000 A 
ATOM     25  C   UNL     1      -0.365  11.079  19.808  0.00  0.00    +0.000 A 
BRANCH  23  26
ATOM     26  O   UNL     1      -3.236  11.517  17.494  0.00  0.00    +0.000 OA
BRANCH  26  27
ATOM     27  C   UNL     1      -4.494  10.993  17.895  0.00  0.00    +0.000 C 
ATOM     28  F   UNL     1      -4.488   9.670  18.156  0.00  0.00    +0.000 F 
ATOM     29  F   UNL     1      -4.930  11.654  18.990  0.00  0.00    +0.000 F 
ATOM     30  F   UNL     1      -5.383  11.210  16.897  0.00  0.00    +0.000 F 
ENDBRANCH  26  27
ENDBRANCH  23  26
ENDBRANCH  19  20
ENDBRANCH  18  19
ENDBRANCH   2  18
TORSDOF 10
ENDMDL
MODEL 8
REMARK VINA RESULT:      -7.3      6.963      9.906
REMARK  Name = 
REMARK  10 active torsions:
REMARK  status: ('A' for Active; 'I' for Inactive)
REMARK    1  A    between atoms: C_2  and  O_3
REMARK    2  A    between atoms: C_2  and  O_18
REMARK    3  A    between atoms: O_3  and  C_4
REMARK    4  A    between atoms: C_4  and  C_5
REMARK    5  A    between atoms: C_5  and  C_6
REMARK    6  A    between atoms: C_11  and  N_12
REMARK    7  A    between atoms: O_18  and  C_19
REMARK    8  A    between atoms: C_19  and  C_20
REMARK    9  A    between atoms: C_23  and  O_24
REMARK   10  A    between atoms: O_24  and  C_25
REMARK                            x       y       z     vdW  Elec       q    Type
REMARK                         _______ _______ _______ _____ _____    ______ ____
ROOT
ATOM      1  O   UNL     1       7.371   6.083  18.786  0.00  0.00    +0.000 OA
ATOM      2  C   UNL     1       7.368   6.528  17.652  0.00  0.00    +0.000 C 
ENDROOT
BRANCH   2   3
ATOM      3  O   UNL     1       7.500   7.840  17.326  0.00  0.00    +0.000 OA
BRANCH   3   4
ATOM      4  C   UNL     1       8.395   8.590  18.161  0.00  0.00    +0.000 C 
BRANCH   4   5
ATOM      5  C   UNL     1       8.366  10.111  17.956  0.00  0.00    +0.000 C 
BRANCH   5   6
ATOM      6  C   UNL     1       9.564  10.775  18.671  0.00  0.00    +0.000 C 
ATOM      7  C   UNL     1      10.568  11.450  17.724  0.00  0.00    +0.000 C 
ATOM      8  C   UNL     1      10.438  12.958  17.573  0.00  0.00    +0.000 C 
ATOM      9  N   UNL     1       9.772  13.574  18.686  0.00  0.00    +0.000 N 
ATOM     10  C   UNL     1       9.645  14.913  18.936  0.00  0.00    +0.000 A 
ATOM     11  C   UNL     1       8.906  14.959  20.108  0.00  0.00    +0.000 A 
ATOM     12  N   UNL     1       8.600  13.691  20.559  0.00  0.00    +0.000 NA
ATOM     13  C   UNL     1       9.140  12.885  19.676  0.00  0.00    +0.000 A 
ATOM     14  O   UNL     1       9.110  11.561  19.773  0.00  0.00    +0.000 OA
BRANCH  11  15
ATOM     15  N   UNL     1       8.477  16.144  20.823  0.00  0.00    +0.000 N 
ATOM     16  O   UNL     1       7.464  16.718  20.387  0.00  0.00    +0.000 OA
ATOM     17  O   UNL     1       9.135  16.500  21.808  0.00  0.00    +0.000 OA
ENDBRANCH  11  15
ENDBRANCH   5   6
ENDBRANCH   4   5
ENDBRANCH   3   4
ENDBRANCH   2   3
BRANCH   2  18
ATOM     18  O   UNL     1       7.178   5.824  16.508  0.00  0.00    +0.000 OA
BRANCH  18  19
ATOM     19  C   UNL     1       5.918   6.008  15.845  0.00  0.00    +0.000 C 
BRANCH  19  20
ATOM     20  C   UNL     1       4.757   5.467  16.654  0.00  0.00    +0.000 A 
ATOM     21  C   UNL     1       3.912   6.322  17.371  0.00  0.00    +0.000 A 
ATOM     22  C   UNL     1       2.808   5.812  18.067  0.00  0.00    +0.000 A 
ATOM     23  C   UNL     1       2.512   4.447  18.050  0.00  0.00    +0.000 A 
ATOM     24  C   UNL     1       3.365   3.585  17.366  0.00  0.00    +0.000 A 
ATOM     25  C   UNL     1       4.467   4.094  16.659  0.00  0.00    +0.000 A 
BRANCH  23  26
ATOM     26  O   UNL     1       1.412   4.099  18.771  0.00  0.00    +0.000 OA
BRANCH  26  27
ATOM     27  C   UNL     1       1.481   4.008  20.186  0.00  0.00    +0.000 C 
ATOM     28  F   UNL     1       2.735   3.955  20.681  0.00  0.00    +0.000 F 
ATOM     29  F   UNL     1       0.837   5.059  20.738  0.00  0.00    +0.000 F 
ATOM     30  F   UNL     1       0.841   2.879  20.572  0.00  0.00    +0.000 F 
ENDBRANCH  26  27
ENDBRANCH  23  26
ENDBRANCH  19  20
ENDBRANCH  18  19
ENDBRANCH   2  18
TORSDOF 10
ENDMDL
MODEL 9
REMARK VINA RESULT:      -7.3      1.325      1.796
REMARK  Name = 
REMARK  10 active torsions:
REMARK  status: ('A' for Active; 'I' for Inactive)
REMARK    1  A    between atoms: C_2  and  O_3
REMARK    2  A    between atoms: C_2  and  O_18
REMARK    3  A    between atoms: O_3  and  C_4
REMARK    4  A    between atoms: C_4  and  C_5
REMARK    5  A    between atoms: C_5  and  C_6
REMARK    6  A    between atoms: C_11  and  N_12
REMARK    7  A    between atoms: O_18  and  C_19
REMARK    8  A    between atoms: C_19  and  C_20
REMARK    9  A    between atoms: C_23  and  O_24
REMARK   10  A    between atoms: O_24  and  C_25
REMARK                            x       y       z     vdW  Elec       q    Type
REMARK                         _______ _______ _______ _____ _____    ______ ____
ROOT
ATOM      1  O   UNL     1       2.546   6.367  18.107  0.00  0.00    +0.000 OA
ATOM      2  C   UNL     1       2.357   6.631  19.282  0.00  0.00    +0.000 C 
ENDROOT
BRANCH   2   3
ATOM      3  O   UNL     1       2.294   5.720  20.288  0.00  0.00    +0.000 OA
BRANCH   3   4
ATOM      4  C   UNL     1       1.334   4.668  20.100  0.00  0.00    +0.000 C 
BRANCH   4   5
ATOM      5  C   UNL     1       1.609   3.380  20.889  0.00  0.00    +0.000 C 
BRANCH   5   6
ATOM      6  C   UNL     1       2.505   2.425  20.068  0.00  0.00    +0.000 C 
ATOM      7  C   UNL     1       2.013   2.176  18.635  0.00  0.00    +0.000 C 
ATOM      8  C   UNL     1       2.695   2.983  17.541  0.00  0.00    +0.000 C 
ATOM      9  N   UNL     1       3.997   3.450  17.924  0.00  0.00    +0.000 N 
ATOM     10  C   UNL     1       4.929   4.053  17.124  0.00  0.00    +0.000 A 
ATOM     11  C   UNL     1       5.981   4.317  17.986  0.00  0.00    +0.000 A 
ATOM     12  N   UNL     1       5.703   3.882  19.266  0.00  0.00    +0.000 NA
ATOM     13  C   UNL     1       4.500   3.366  19.188  0.00  0.00    +0.000 A 
ATOM     14  O   UNL     1       3.878   2.790  20.210  0.00  0.00    +0.000 OA
BRANCH  11  15
ATOM     15  N   UNL     1       7.238   4.957  17.658  0.00  0.00    +0.000 N 
ATOM     16  O   UNL     1       7.880   4.466  16.713  0.00  0.00    +0.000 OA
ATOM     17  O   UNL     1       7.585   5.937  18.328  0.00  0.00    +0.000 OA
ENDBRANCH  11  15
ENDBRANCH   5   6
ENDBRANCH   4   5
ENDBRANCH   3   4
ENDBRANCH   2   3
BRANCH   2  18
ATOM     18  O   UNL     1       2.120   7.859  19.807  0.00  0.00    +0.000 OA
BRANCH  18  19
ATOM     19  C   UNL     1       1.586   8.846  18.911  0.00  0.00    +0.000 C 
BRANCH  19  20
ATOM     20  C   UNL     1       0.601   9.772  19.594  0.00  0.00    +0.000 A 
ATOM     21  C   UNL     1       0.417   9.739  20.981  0.00  0.00    +0.000 A 
ATOM     22  C   UNL     1      -0.455  10.642  21.604  0.00  0.00    +0.000 A 
ATOM     23  C   UNL     1      -1.147  11.604  20.865  0.00  0.00    +0.000 A 
ATOM     24  C   UNL     1      -0.995  11.622  19.481  0.00  0.00    +0.000 A 
ATOM     25  C   UNL     1      -0.114  10.726  18.854  0.00  0.00    +0.000 A 
BRANCH  23  26
ATOM     26  O   UNL     1      -1.957  12.409  21.604  0.00  0.00    +0.000 OA
BRANCH  26  27
ATOM     27  C   UNL     1      -1.416  13.509  22.320  0.00  0.00    +0.000 C 
ATOM     28  F   UNL     1      -2.255  14.557  22.449  0.00  0.00    +0.000 F 
ATOM     29  F   UNL     1      -1.032  13.102  23.550  0.00  0.00    +0.000 F 
ATOM     30  F   UNL     1      -0.315  13.944  21.664  0.00  0.00    +0.000 F 
ENDBRANCH  26  27
ENDBRANCH  23  26
ENDBRANCH  19  20
ENDBRANCH  18  19
ENDBRANCH   2  18
TORSDOF 10
ENDMDL
