MODEL 1
REMARK VINA RESULT:      -7.9      0.000      0.000
REMARK  Name = 
REMARK  11 active torsions:
REMARK  status: ('A' for Active; 'I' for Inactive)
REMARK    1  A    between atoms: C_1  and  C_2
REMARK    2  A    between atoms: N_6  and  C_7
REMARK    3  A    between atoms: C_7  and  C_8
REMARK    4  A    between atoms: C_8  and  C_9
REMARK    5  A    between atoms: C_9  and  O_10
REMARK    6  A    between atoms: O_10  and  C_11
REMARK    7  A    between atoms: C_14  and  C_15
REMARK    8  A    between atoms: C_15  and  C_17
REMARK    9  A    between atoms: C_17  and  C_18
REMARK   10  A    between atoms: C_17  and  C_19
REMARK   11  A    between atoms: C_17  and  N_20
REMARK                            x       y       z     vdW  Elec       q    Type
REMARK                         _______ _______ _______ _____ _____    ______ ____
ROOT
ATOM      1  C   UNL     1       7.541   6.833  18.073  0.00  0.00    +0.000 A 
ATOM      2  C   UNL     1       7.679   5.460  18.245  0.00  0.00    +0.000 A 
ATOM      3  C   UNL     1       6.685   4.594  17.803  0.00  0.00    +0.000 A 
ATOM      4  C   UNL     1       5.533   5.078  17.158  0.00  0.00    +0.000 A 
ATOM      5  C   UNL     1       5.426   6.450  16.939  0.00  0.00    +0.000 A 
ATOM      6  C   UNL     1       6.432   7.321  17.388  0.00  0.00    +0.000 A 
ENDROOT
BRANCH   4   7
ATOM      7  C   UNL     1       4.476   4.053  16.893  0.00  0.00    +0.000 C 
ATOM      8  O   UNL     1       4.440   3.642  15.722  0.00  0.00    +0.000 OA
BRANCH   7   9
ATOM      9  C   UNL     1       3.434   3.542  17.928  0.00  0.00    +0.000 C 
ATOM     10  C   UNL     1       2.125   4.310  17.558  0.00  0.00    +0.000 C 
ATOM     11  C   UNL     1       3.023   2.065  17.805  0.00  0.00    +0.000 C 
BRANCH   9  12
ATOM     12  N   UNL     1       3.817   3.836  19.342  0.00  0.00    +0.000 NA
ATOM     13  C   UNL     1       3.720   2.745  20.333  0.00  0.00    +0.000 C 
ATOM     14  C   UNL     1       2.349   2.629  21.010  0.00  0.00    +0.000 C 
ATOM     15  O   UNL     1       2.005   3.854  21.668  0.00  0.00    +0.000 OA
ATOM     16  C   UNL     1       1.996   4.944  20.743  0.00  0.00    +0.000 C 
ATOM     17  C   UNL     1       3.322   5.075  19.971  0.00  0.00    +0.000 C 
ENDBRANCH   9  12
ENDBRANCH   7   9
ENDBRANCH   4   7
BRANCH   1  18
ATOM     18  O   UNL     1       8.399   7.781  18.563  0.00  0.00    +0.000 OA
BRANCH  18  19
ATOM     19  C   UNL     1       8.197   9.087  18.027  0.00  0.00    +0.000 C 
BRANCH  19  20
ATOM     20  C   UNL     1       9.313  10.019  18.468  0.00  0.00    +0.000 C 
BRANCH  20  21
ATOM     21  C   UNL     1       8.910  11.480  18.239  0.00  0.00    +0.000 C 
BRANCH  21  27
ATOM     22  C   UNL     1      11.082  12.967  17.008  0.00  0.00    +0.000 C 
ATOM     23  C   UNL     1      10.504  13.405  18.356  0.00  0.00    +0.000 C 
ATOM     24  C   UNL     1      11.614  13.720  19.359  0.00  0.00    +0.000 C 
ATOM     25  C   UNL     1      11.860  12.387  20.033  0.00  0.00    +0.000 C 
ATOM     26  C   UNL     1      10.479  11.773  20.117  0.00  0.00    +0.000 C 
ATOM     27  N   UNL     1       9.686  12.407  19.059  0.00  0.00    +0.000 NA
ENDBRANCH  21  27
ENDBRANCH  20  21
ENDBRANCH  19  20
ENDBRANCH  18  19
ENDBRANCH   1  18
TORSDOF 8
ENDMDL
MODEL 2
REMARK VINA RESULT:      -7.9      0.916      1.659
REMARK  Name = 
REMARK  11 active torsions:
REMARK  status: ('A' for Active; 'I' for Inactive)
REMARK    1  A    between atoms: C_1  and  C_2
REMARK    2  A    between atoms: N_6  and  C_7
REMARK    3  A    between atoms: C_7  and  C_8
REMARK    4  A    between atoms: C_8  and  C_9
REMARK    5  A    between atoms: C_9  and  O_10
REMARK    6  A    between atoms: O_10  and  C_11
REMARK    7  A    between atoms: C_14  and  C_15
REMARK    8  A    between atoms: C_15  and  C_17
REMARK    9  A    between atoms: C_17  and  C_18
REMARK   10  A    between atoms: C_17  and  C_19
REMARK   11  A    between atoms: C_17  and  N_20
REMARK                            x       y       z     vdW  Elec       q    Type
REMARK                         _______ _______ _______ _____ _____    ______ ____
ROOT
ATOM      1  C   UNL     1       7.150   6.931  18.013  0.00  0.00    +0.000 A 
ATOM      2  C   UNL     1       6.114   7.166  17.115  0.00  0.00    +0.000 A 
ATOM      3  C   UNL     1       5.048   6.278  17.026  0.00  0.00    +0.000 A 
ATOM      4  C   UNL     1       4.979   5.140  17.849  0.00  0.00    +0.000 A 
ATOM      5  C   UNL     1       5.992   4.939  18.785  0.00  0.00    +0.000 A 
ATOM      6  C   UNL     1       7.068   5.838  18.870  0.00  0.00    +0.000 A 
ENDROOT
BRANCH   4   7
ATOM      7  C   UNL     1       3.870   4.190  17.526  0.00  0.00    +0.000 C 
ATOM      8  O   UNL     1       4.053   3.514  16.502  0.00  0.00    +0.000 OA
BRANCH   7   9
ATOM      9  C   UNL     1       2.541   4.049  18.322  0.00  0.00    +0.000 C 
ATOM     10  C   UNL     1       2.592   5.219  19.356  0.00  0.00    +0.000 C 
ATOM     11  C   UNL     1       1.247   4.327  17.537  0.00  0.00    +0.000 C 
BRANCH   9  12
ATOM     12  N   UNL     1       2.419   2.741  19.035  0.00  0.00    +0.000 NA
ATOM     13  C   UNL     1       1.395   2.616  20.093  0.00  0.00    +0.000 C 
ATOM     14  C   UNL     1       1.878   3.028  21.489  0.00  0.00    +0.000 C 
ATOM     15  O   UNL     1       3.015   2.250  21.881  0.00  0.00    +0.000 OA
ATOM     16  C   UNL     1       4.081   2.394  20.939  0.00  0.00    +0.000 C 
ATOM     17  C   UNL     1       3.646   2.066  19.499  0.00  0.00    +0.000 C 
ENDBRANCH   9  12
ENDBRANCH   7   9
ENDBRANCH   4   7
BRANCH   1  18
ATOM     18  O   UNL     1       8.297   7.675  18.108  0.00  0.00    +0.000 OA
BRANCH  18  19
ATOM     19  C   UNL     1       8.115   9.065  17.849  0.00  0.00    +0.000 C 
BRANCH  19  20
ATOM     20  C   UNL     1       9.114   9.887  18.646  0.00  0.00    +0.000 C 
BRANCH  20  21
ATOM     21  C   UNL     1       9.073  11.354  18.202  0.00  0.00    +0.000 C 
BRANCH  21  27
ATOM     22  C   UNL     1      11.384  12.732  17.103  0.00  0.00    +0.000 C 
ATOM     23  C   UNL     1      10.766  13.181  18.429  0.00  0.00    +0.000 C 
ATOM     24  C   UNL     1      11.842  13.417  19.490  0.00  0.00    +0.000 C 
ATOM     25  C   UNL     1      11.980  12.062  20.150  0.00  0.00    +0.000 C 
ATOM     26  C   UNL     1      10.563  11.527  20.157  0.00  0.00    +0.000 C 
ATOM     27  N   UNL     1       9.860  12.222  19.074  0.00  0.00    +0.000 NA
ENDBRANCH  21  27
ENDBRANCH  20  21
ENDBRANCH  19  20
ENDBRANCH  18  19
ENDBRANCH   1  18
TORSDOF 8
ENDMDL
MODEL 3
REMARK VINA RESULT:      -7.7      1.395      1.870
REMARK  Name = 
REMARK  11 active torsions:
REMARK  status: ('A' for Active; 'I' for Inactive)
REMARK    1  A    between atoms: C_1  and  C_2
REMARK    2  A    between atoms: N_6  and  C_7
REMARK    3  A    between atoms: C_7  and  C_8
REMARK    4  A    between atoms: C_8  and  C_9
REMARK    5  A    between atoms: C_9  and  O_10
REMARK    6  A    between atoms: O_10  and  C_11
REMARK    7  A    between atoms: C_14  and  C_15
REMARK    8  A    between atoms: C_15  and  C_17
REMARK    9  A    between atoms: C_17  and  C_18
REMARK   10  A    between atoms: C_17  and  C_19
REMARK   11  A    between atoms: C_17  and  N_20
REMARK                            x       y       z     vdW  Elec       q    Type
REMARK                         _______ _______ _______ _____ _____    ______ ____
ROOT
ATOM      1  C   UNL     1       7.393   7.470  17.660  0.00  0.00    +0.000 A 
ATOM      2  C   UNL     1       7.872   6.449  18.475  0.00  0.00    +0.000 A 
ATOM      3  C   UNL     1       7.085   5.333  18.736  0.00  0.00    +0.000 A 
ATOM      4  C   UNL     1       5.804   5.197  18.170  0.00  0.00    +0.000 A 
ATOM      5  C   UNL     1       5.353   6.196  17.311  0.00  0.00    +0.000 A 
ATOM      6  C   UNL     1       6.150   7.323  17.051  0.00  0.00    +0.000 A 
ENDROOT
BRANCH   4   7
ATOM      7  C   UNL     1       5.009   4.034  18.672  0.00  0.00    +0.000 C 
ATOM      8  O   UNL     1       5.451   3.518  19.711  0.00  0.00    +0.000 OA
BRANCH   7   9
ATOM      9  C   UNL     1       3.761   3.424  17.973  0.00  0.00    +0.000 C 
ATOM     10  C   UNL     1       4.095   3.519  16.450  0.00  0.00    +0.000 C 
ATOM     11  C   UNL     1       3.528   1.920  18.191  0.00  0.00    +0.000 C 
BRANCH   9  12
ATOM     12  N   UNL     1       2.499   4.170  18.268  0.00  0.00    +0.000 NA
ATOM     13  C   UNL     1       2.505   5.137  19.384  0.00  0.00    +0.000 C 
ATOM     14  C   UNL     1       2.149   4.529  20.746  0.00  0.00    +0.000 C 
ATOM     15  O   UNL     1       0.856   3.914  20.703  0.00  0.00    +0.000 OA
ATOM     16  C   UNL     1       0.807   2.901  19.695  0.00  0.00    +0.000 C 
ATOM     17  C   UNL     1       1.226   3.427  18.309  0.00  0.00    +0.000 C 
ENDBRANCH   9  12
ENDBRANCH   7   9
ENDBRANCH   4   7
BRANCH   1  18
ATOM     18  O   UNL     1       8.033   8.658  17.424  0.00  0.00    +0.000 OA
BRANCH  18  19
ATOM     19  C   UNL     1       8.725   9.184  18.555  0.00  0.00    +0.000 C 
BRANCH  19  20
ATOM     20  C   UNL     1       9.219  10.591  18.265  0.00  0.00    +0.000 C 
BRANCH  20  21
ATOM     21  C   UNL     1       9.494  11.340  19.575  0.00  0.00    +0.000 C 
BRANCH  21  27
ATOM     22  C   UNL     1      12.332  11.896  19.859  0.00  0.00    +0.000 C 
ATOM     23  C   UNL     1      11.416  12.877  19.124  0.00  0.00    +0.000 C 
ATOM     24  C   UNL     1      11.668  14.316  19.575  0.00  0.00    +0.000 C 
ATOM     25  C   UNL     1      10.717  14.486  20.740  0.00  0.00    +0.000 C 
ATOM     26  C   UNL     1       9.499  13.689  20.320  0.00  0.00    +0.000 C 
ATOM     27  N   UNL     1       9.974  12.701  19.347  0.00  0.00    +0.000 NA
ENDBRANCH  21  27
ENDBRANCH  20  21
ENDBRANCH  19  20
ENDBRANCH  18  19
ENDBRANCH   1  18
TORSDOF 8
ENDMDL
MODEL 4
REMARK VINA RESULT:      -7.6      1.199      1.822
REMARK  Name = 
REMARK  11 active torsions:
REMARK  status: ('A' for Active; 'I' for Inactive)
REMARK    1  A    between atoms: C_1  and  C_2
REMARK    2  A    between atoms: N_6  and  C_7
REMARK    3  A    between atoms: C_7  and  C_8
REMARK    4  A    between atoms: C_8  and  C_9
REMARK    5  A    between atoms: C_9  and  O_10
REMARK    6  A    between atoms: O_10  and  C_11
REMARK    7  A    between atoms: C_14  and  C_15
REMARK    8  A    between atoms: C_15  and  C_17
REMARK    9  A    between atoms: C_17  and  C_18
REMARK   10  A    between atoms: C_17  and  C_19
REMARK   11  A    between atoms: C_17  and  N_20
REMARK                            x       y       z     vdW  Elec       q    Type
REMARK                         _______ _______ _______ _____ _____    ______ ____
ROOT
ATOM      1  C   UNL     1       7.850   7.011  18.292  0.00  0.00    +0.000 A 
ATOM      2  C   UNL     1       7.756   5.727  18.819  0.00  0.00    +0.000 A 
ATOM      3  C   UNL     1       6.766   4.857  18.374  0.00  0.00    +0.000 A 
ATOM      4  C   UNL     1       5.856   5.242  17.373  0.00  0.00    +0.000 A 
ATOM      5  C   UNL     1       5.990   6.509  16.810  0.00  0.00    +0.000 A 
ATOM      6  C   UNL     1       6.989   7.385  17.263  0.00  0.00    +0.000 A 
ENDROOT
BRANCH   4   7
ATOM      7  C   UNL     1       4.747   4.271  17.118  0.00  0.00    +0.000 C 
ATOM      8  O   UNL     1       4.568   3.997  15.921  0.00  0.00    +0.000 OA
BRANCH   7   9
ATOM      9  C   UNL     1       3.812   3.662  18.202  0.00  0.00    +0.000 C 
ATOM     10  C   UNL     1       3.568   2.198  17.715  0.00  0.00    +0.000 C 
ATOM     11  C   UNL     1       4.428   3.471  19.599  0.00  0.00    +0.000 C 
BRANCH   9  12
ATOM     12  N   UNL     1       2.510   4.384  18.328  0.00  0.00    +0.000 NA
ATOM     13  C   UNL     1       2.503   5.850  18.145  0.00  0.00    +0.000 C 
ATOM     14  C   UNL     1       2.763   6.646  19.430  0.00  0.00    +0.000 C 
ATOM     15  O   UNL     1       1.790   6.322  20.430  0.00  0.00    +0.000 OA
ATOM     16  C   UNL     1       1.803   4.921  20.719  0.00  0.00    +0.000 C 
ATOM     17  C   UNL     1       1.621   4.057  19.459  0.00  0.00    +0.000 C 
ENDBRANCH   9  12
ENDBRANCH   7   9
ENDBRANCH   4   7
BRANCH   1  18
ATOM     18  O   UNL     1       8.709   7.984  18.730  0.00  0.00    +0.000 OA
BRANCH  18  19
ATOM     19  C   UNL     1       8.368   9.301  18.302  0.00  0.00    +0.000 C 
BRANCH  19  20
ATOM     20  C   UNL     1       9.173  10.333  19.075  0.00  0.00    +0.000 C 
BRANCH  20  21
ATOM     21  C   UNL     1       9.962  11.226  18.110  0.00  0.00    +0.000 C 
BRANCH  21  27
ATOM     22  C   UNL     1      12.333  11.903  19.648  0.00  0.00    +0.000 C 
ATOM     23  C   UNL     1      11.457  13.002  19.043  0.00  0.00    +0.000 C 
ATOM     24  C   UNL     1      11.175  14.109  20.059  0.00  0.00    +0.000 C 
ATOM     25  C   UNL     1       9.907  13.640  20.740  0.00  0.00    +0.000 C 
ATOM     26  C   UNL     1       9.126  12.985  19.620  0.00  0.00    +0.000 C 
ATOM     27  N   UNL     1      10.114  12.589  18.612  0.00  0.00    +0.000 NA
ENDBRANCH  21  27
ENDBRANCH  20  21
ENDBRANCH  19  20
ENDBRANCH  18  19
ENDBRANCH   1  18
TORSDOF 8
ENDMDL
MODEL 5
REMARK VINA RESULT:      -7.6      0.525      1.044
REMARK  Name = 
REMARK  11 active torsions:
REMARK  status: ('A' for Active; 'I' for Inactive)
REMARK    1  A    between atoms: C_1  and  C_2
REMARK    2  A    between atoms: N_6  and  C_7
REMARK    3  A    between atoms: C_7  and  C_8
REMARK    4  A    between atoms: C_8  and  C_9
REMARK    5  A    between atoms: C_9  and  O_10
REMARK    6  A    between atoms: O_10  and  C_11
REMARK    7  A    between atoms: C_14  and  C_15
REMARK    8  A    between atoms: C_15  and  C_17
REMARK    9  A    between atoms: C_17  and  C_18
REMARK   10  A    between atoms: C_17  and  C_19
REMARK   11  A    between atoms: C_17  and  N_20
REMARK                            x       y       z     vdW  Elec       q    Type
REMARK                         _______ _______ _______ _____ _____    ______ ____
ROOT
ATOM      1  C   UNL     1       7.239   7.179  17.371  0.00  0.00    +0.000 A 
ATOM      2  C   UNL     1       5.998   7.311  16.756  0.00  0.00    +0.000 A 
ATOM      3  C   UNL     1       5.113   6.238  16.726  0.00  0.00    +0.000 A 
ATOM      4  C   UNL     1       5.438   5.011  17.330  0.00  0.00    +0.000 A 
ATOM      5  C   UNL     1       6.658   4.903  17.992  0.00  0.00    +0.000 A 
ATOM      6  C   UNL     1       7.550   5.987  18.019  0.00  0.00    +0.000 A 
ENDROOT
BRANCH   4   7
ATOM      7  C   UNL     1       4.468   3.901  17.071  0.00  0.00    +0.000 C 
ATOM      8  O   UNL     1       4.512   3.437  15.921  0.00  0.00    +0.000 OA
BRANCH   7   9
ATOM      9  C   UNL     1       3.419   3.364  18.087  0.00  0.00    +0.000 C 
ATOM     10  C   UNL     1       2.082   4.037  17.644  0.00  0.00    +0.000 C 
ATOM     11  C   UNL     1       3.103   1.861  18.003  0.00  0.00    +0.000 C 
BRANCH   9  12
ATOM     12  N   UNL     1       3.732   3.728  19.502  0.00  0.00    +0.000 NA
ATOM     13  C   UNL     1       3.660   2.668  20.528  0.00  0.00    +0.000 C 
ATOM     14  C   UNL     1       2.273   2.495  21.159  0.00  0.00    +0.000 C 
ATOM     15  O   UNL     1       1.835   3.719  21.759  0.00  0.00    +0.000 OA
ATOM     16  C   UNL     1       1.797   4.774  20.795  0.00  0.00    +0.000 C 
ATOM     17  C   UNL     1       3.142   4.957  20.067  0.00  0.00    +0.000 C 
ENDBRANCH   9  12
ENDBRANCH   7   9
ENDBRANCH   4   7
BRANCH   1  18
ATOM     18  O   UNL     1       8.227   8.127  17.366  0.00  0.00    +0.000 OA
BRANCH  18  19
ATOM     19  C   UNL     1       7.844   9.375  17.942  0.00  0.00    +0.000 C 
BRANCH  19  20
ATOM     20  C   UNL     1       8.981   9.943  18.775  0.00  0.00    +0.000 C 
BRANCH  20  21
ATOM     21  C   UNL     1       9.729  11.027  17.988  0.00  0.00    +0.000 C 
BRANCH  21  27
ATOM     22  C   UNL     1      11.194  13.232  16.789  0.00  0.00    +0.000 C 
ATOM     23  C   UNL     1      10.601  13.362  18.194  0.00  0.00    +0.000 C 
ATOM     24  C   UNL     1      11.612  13.966  19.169  0.00  0.00    +0.000 C 
ATOM     25  C   UNL     1      12.333  12.753  19.716  0.00  0.00    +0.000 C 
ATOM     26  C   UNL     1      11.242  11.706  19.811  0.00  0.00    +0.000 C 
ATOM     27  N   UNL     1      10.211  12.105  18.847  0.00  0.00    +0.000 NA
ENDBRANCH  21  27
ENDBRANCH  20  21
ENDBRANCH  19  20
ENDBRANCH  18  19
ENDBRANCH   1  18
TORSDOF 8
ENDMDL
MODEL 6
REMARK VINA RESULT:      -7.5      1.169      1.812
REMARK  Name = 
REMARK  11 active torsions:
REMARK  status: ('A' for Active; 'I' for Inactive)
REMARK    1  A    between atoms: C_1  and  C_2
REMARK    2  A    between atoms: N_6  and  C_7
REMARK    3  A    between atoms: C_7  and  C_8
REMARK    4  A    between atoms: C_8  and  C_9
REMARK    5  A    between atoms: C_9  and  O_10
REMARK    6  A    between atoms: O_10  and  C_11
REMARK    7  A    between atoms: C_14  and  C_15
REMARK    8  A    between atoms: C_15  and  C_17
REMARK    9  A    between atoms: C_17  and  C_18
REMARK   10  A    between atoms: C_17  and  C_19
REMARK   11  A    between atoms: C_17  and  N_20
REMARK                            x       y       z     vdW  Elec       q    Type
REMARK                         _______ _______ _______ _____ _____    ______ ____
ROOT
ATOM      1  C   UNL     1       7.178   7.246  17.267  0.00  0.00    +0.000 A 
ATOM      2  C   UNL     1       7.351   6.258  18.231  0.00  0.00    +0.000 A 
ATOM      3  C   UNL     1       6.479   5.176  18.290  0.00  0.00    +0.000 A 
ATOM      4  C   UNL     1       5.422   5.043  17.372  0.00  0.00    +0.000 A 
ATOM      5  C   UNL     1       5.288   6.006  16.375  0.00  0.00    +0.000 A 
ATOM      6  C   UNL     1       6.169   7.098  16.320  0.00  0.00    +0.000 A 
ENDROOT
BRANCH   4   7
ATOM      7  C   UNL     1       4.468   3.927  17.661  0.00  0.00    +0.000 C 
ATOM      8  O   UNL     1       4.790   2.835  17.168  0.00  0.00    +0.000 OA
BRANCH   7   9
ATOM      9  C   UNL     1       3.134   4.061  18.450  0.00  0.00    +0.000 C 
ATOM     10  C   UNL     1       3.409   5.214  19.466  0.00  0.00    +0.000 C 
ATOM     11  C   UNL     1       1.923   4.573  17.652  0.00  0.00    +0.000 C 
BRANCH   9  12
ATOM     12  N   UNL     1       2.757   2.813  19.181  0.00  0.00    +0.000 NA
ATOM     13  C   UNL     1       1.332   2.423  19.208  0.00  0.00    +0.000 C 
ATOM     14  C   UNL     1       0.535   3.028  20.370  0.00  0.00    +0.000 C 
ATOM     15  O   UNL     1       1.116   2.660  21.626  0.00  0.00    +0.000 OA
ATOM     16  C   UNL     1       2.479   3.087  21.702  0.00  0.00    +0.000 C 
ATOM     17  C   UNL     1       3.325   2.575  20.522  0.00  0.00    +0.000 C 
ENDBRANCH   9  12
ENDBRANCH   7   9
ENDBRANCH   4   7
BRANCH   1  18
ATOM     18  O   UNL     1       7.905   8.404  17.184  0.00  0.00    +0.000 OA
BRANCH  18  19
ATOM     19  C   UNL     1       8.518   8.799  18.410  0.00  0.00    +0.000 C 
BRANCH  19  20
ATOM     20  C   UNL     1       8.732  10.303  18.434  0.00  0.00    +0.000 C 
BRANCH  20  21
ATOM     21  C   UNL     1       9.562  10.704  19.659  0.00  0.00    +0.000 C 
BRANCH  21  27
ATOM     22  C   UNL     1      10.357  13.276  20.753  0.00  0.00    +0.000 C 
ATOM     23  C   UNL     1      11.395  12.339  20.132  0.00  0.00    +0.000 C 
ATOM     24  C   UNL     1      12.326  13.094  19.183  0.00  0.00    +0.000 C 
ATOM     25  C   UNL     1      11.615  12.996  17.850  0.00  0.00    +0.000 C 
ATOM     26  C   UNL     1      11.002  11.612  17.877  0.00  0.00    +0.000 C 
ATOM     27  N   UNL     1      10.864  11.256  19.293  0.00  0.00    +0.000 NA
ENDBRANCH  21  27
ENDBRANCH  20  21
ENDBRANCH  19  20
ENDBRANCH  18  19
ENDBRANCH   1  18
TORSDOF 8
ENDMDL
MODEL 7
REMARK VINA RESULT:      -7.5      1.439      1.900
REMARK  Name = 
REMARK  11 active torsions:
REMARK  status: ('A' for Active; 'I' for Inactive)
REMARK    1  A    between atoms: C_1  and  C_2
REMARK    2  A    between atoms: N_6  and  C_7
REMARK    3  A    between atoms: C_7  and  C_8
REMARK    4  A    between atoms: C_8  and  C_9
REMARK    5  A    between atoms: C_9  and  O_10
REMARK    6  A    between atoms: O_10  and  C_11
REMARK    7  A    between atoms: C_14  and  C_15
REMARK    8  A    between atoms: C_15  and  C_17
REMARK    9  A    between atoms: C_17  and  C_18
REMARK   10  A    between atoms: C_17  and  C_19
REMARK   11  A    between atoms: C_17  and  N_20
REMARK                            x       y       z     vdW  Elec       q    Type
REMARK                         _______ _______ _______ _____ _____    ______ ____
ROOT
ATOM      1  C   UNL     1       7.500   7.426  17.561  0.00  0.00    +0.000 A 
ATOM      2  C   UNL     1       7.932   6.476  18.482  0.00  0.00    +0.000 A 
ATOM      3  C   UNL     1       7.129   5.385  18.794  0.00  0.00    +0.000 A 
ATOM      4  C   UNL     1       5.879   5.203  18.176  0.00  0.00    +0.000 A 
ATOM      5  C   UNL     1       5.477   6.126  17.214  0.00  0.00    +0.000 A 
ATOM      6  C   UNL     1       6.290   7.228  16.903  0.00  0.00    +0.000 A 
ENDROOT
BRANCH   4   7
ATOM      7  C   UNL     1       5.054   4.085  18.731  0.00  0.00    +0.000 C 
ATOM      8  O   UNL     1       5.465   3.629  19.810  0.00  0.00    +0.000 OA
BRANCH   7   9
ATOM      9  C   UNL     1       3.812   3.451  18.043  0.00  0.00    +0.000 C 
ATOM     10  C   UNL     1       4.163   3.485  16.521  0.00  0.00    +0.000 C 
ATOM     11  C   UNL     1       3.573   1.956  18.317  0.00  0.00    +0.000 C 
BRANCH   9  12
ATOM     12  N   UNL     1       2.550   4.210  18.294  0.00  0.00    +0.000 NA
ATOM     13  C   UNL     1       2.549   5.231  19.362  0.00  0.00    +0.000 C 
ATOM     14  C   UNL     1       2.185   4.690  20.750  0.00  0.00    +0.000 C 
ATOM     15  O   UNL     1       0.892   4.073  20.729  0.00  0.00    +0.000 OA
ATOM     16  C   UNL     1       0.849   3.013  19.771  0.00  0.00    +0.000 C 
ATOM     17  C   UNL     1       1.275   3.470  18.364  0.00  0.00    +0.000 C 
ENDBRANCH   9  12
ENDBRANCH   7   9
ENDBRANCH   4   7
BRANCH   1  18
ATOM     18  O   UNL     1       8.156   8.590  17.261  0.00  0.00    +0.000 OA
BRANCH  18  19
ATOM     19  C   UNL     1       8.090   9.580  18.286  0.00  0.00    +0.000 C 
BRANCH  19  20
ATOM     20  C   UNL     1       9.402  10.340  18.373  0.00  0.00    +0.000 C 
BRANCH  20  21
ATOM     21  C   UNL     1       9.598  10.908  19.784  0.00  0.00    +0.000 C 
BRANCH  21  27
ATOM     22  C   UNL     1       9.340  13.802  19.850  0.00  0.00    +0.000 C 
ATOM     23  C   UNL     1      10.636  13.124  20.301  0.00  0.00    +0.000 C 
ATOM     24  C   UNL     1      11.860  13.816  19.702  0.00  0.00    +0.000 C 
ATOM     25  C   UNL     1      12.070  13.078  18.397  0.00  0.00    +0.000 C 
ATOM     26  C   UNL     1      11.702  11.649  18.735  0.00  0.00    +0.000 C 
ATOM     27  N   UNL     1      10.805  11.723  19.893  0.00  0.00    +0.000 NA
ENDBRANCH  21  27
ENDBRANCH  20  21
ENDBRANCH  19  20
ENDBRANCH  18  19
ENDBRANCH   1  18
TORSDOF 8
ENDMDL
MODEL 8
REMARK VINA RESULT:      -7.3      1.580      2.342
REMARK  Name = 
REMARK  11 active torsions:
REMARK  status: ('A' for Active; 'I' for Inactive)
REMARK    1  A    between atoms: C_1  and  C_2
REMARK    2  A    between atoms: N_6  and  C_7
REMARK    3  A    between atoms: C_7  and  C_8
REMARK    4  A    between atoms: C_8  and  C_9
REMARK    5  A    between atoms: C_9  and  O_10
REMARK    6  A    between atoms: O_10  and  C_11
REMARK    7  A    between atoms: C_14  and  C_15
REMARK    8  A    between atoms: C_15  and  C_17
REMARK    9  A    between atoms: C_17  and  C_18
REMARK   10  A    between atoms: C_17  and  C_19
REMARK   11  A    between atoms: C_17  and  N_20
REMARK                            x       y       z     vdW  Elec       q    Type
REMARK                         _______ _______ _______ _____ _____    ______ ____
ROOT
ATOM      1  C   UNL     1       6.500   6.885  17.570  0.00  0.00    +0.000 A 
ATOM      2  C   UNL     1       5.246   7.244  17.087  0.00  0.00    +0.000 A 
ATOM      3  C   UNL     1       4.105   6.597  17.549  0.00  0.00    +0.000 A 
ATOM      4  C   UNL     1       4.187   5.587  18.524  0.00  0.00    +0.000 A 
ATOM      5  C   UNL     1       5.440   5.271  19.044  0.00  0.00    +0.000 A 
ATOM      6  C   UNL     1       6.590   5.925  18.573  0.00  0.00    +0.000 A 
ENDROOT
BRANCH   4   7
ATOM      7  C   UNL     1       2.905   4.867  18.800  0.00  0.00    +0.000 C 
ATOM      8  O   UNL     1       2.227   5.355  19.718  0.00  0.00    +0.000 OA
BRANCH   7   9
ATOM      9  C   UNL     1       2.424   3.573  18.082  0.00  0.00    +0.000 C 
ATOM     10  C   UNL     1       0.948   3.888  17.680  0.00  0.00    +0.000 C 
ATOM     11  C   UNL     1       3.097   3.254  16.736  0.00  0.00    +0.000 C 
BRANCH   9  12
ATOM     12  N   UNL     1       2.469   2.364  18.960  0.00  0.00    +0.000 NA
ATOM     13  C   UNL     1       1.361   2.151  19.912  0.00  0.00    +0.000 C 
ATOM     14  C   UNL     1       1.565   2.820  21.277  0.00  0.00    +0.000 C 
ATOM     15  O   UNL     1       2.771   2.353  21.893  0.00  0.00    +0.000 OA
ATOM     16  C   UNL     1       3.903   2.607  21.056  0.00  0.00    +0.000 C 
ATOM     17  C   UNL     1       3.733   2.025  19.641  0.00  0.00    +0.000 C 
ENDBRANCH   9  12
ENDBRANCH   7   9
ENDBRANCH   4   7
BRANCH   1  18
ATOM     18  O   UNL     1       7.694   7.374  17.108  0.00  0.00    +0.000 OA
BRANCH  18  19
ATOM     19  C   UNL     1       8.464   8.060  18.093  0.00  0.00    +0.000 C 
BRANCH  19  20
ATOM     20  C   UNL     1       8.234   9.558  17.996  0.00  0.00    +0.000 C 
BRANCH  20  21
ATOM     21  C   UNL     1       9.297  10.315  18.801  0.00  0.00    +0.000 C 
BRANCH  21  27
ATOM     22  C   UNL     1      11.400  11.894  20.038  0.00  0.00    +0.000 C 
ATOM     23  C   UNL     1      11.244  11.859  18.515  0.00  0.00    +0.000 C 
ATOM     24  C   UNL     1      11.323  13.264  17.918  0.00  0.00    +0.000 C 
ATOM     25  C   UNL     1       9.882  13.729  17.935  0.00  0.00    +0.000 C 
ATOM     26  C   UNL     1       9.101  12.470  17.621  0.00  0.00    +0.000 C 
ATOM     27  N   UNL     1       9.962  11.349  18.012  0.00  0.00    +0.000 NA
ENDBRANCH  21  27
ENDBRANCH  20  21
ENDBRANCH  19  20
ENDBRANCH  18  19
ENDBRANCH   1  18
TORSDOF 8
ENDMDL
MODEL 9
REMARK VINA RESULT:      -7.3      1.302      1.951
REMARK  Name = 
REMARK  11 active torsions:
REMARK  status: ('A' for Active; 'I' for Inactive)
REMARK    1  A    between atoms: C_1  and  C_2
REMARK    2  A    between atoms: N_6  and  C_7
REMARK    3  A    between atoms: C_7  and  C_8
REMARK    4  A    between atoms: C_8  and  C_9
REMARK    5  A    between atoms: C_9  and  O_10
REMARK    6  A    between atoms: O_10  and  C_11
REMARK    7  A    between atoms: C_14  and  C_15
REMARK    8  A    between atoms: C_15  and  C_17
REMARK    9  A    between atoms: C_17  and  C_18
REMARK   10  A    between atoms: C_17  and  C_19
REMARK   11  A    between atoms: C_17  and  N_20
REMARK                            x       y       z     vdW  Elec       q    Type
REMARK                         _______ _______ _______ _____ _____    ______ ____
ROOT
ATOM      1  C   UNL     1       8.012   7.542  18.334  0.00  0.00    +0.000 A 
ATOM      2  C   UNL     1       8.052   6.263  18.879  0.00  0.00    +0.000 A 
ATOM      3  C   UNL     1       7.095   5.319  18.524  0.00  0.00    +0.000 A 
ATOM      4  C   UNL     1       6.083   5.623  17.596  0.00  0.00    +0.000 A 
ATOM      5  C   UNL     1       6.081   6.887  17.012  0.00  0.00    +0.000 A 
ATOM      6  C   UNL     1       7.048   7.838  17.374  0.00  0.00    +0.000 A 
ENDROOT
BRANCH   4   7
ATOM      7  C   UNL     1       5.029   4.572  17.440  0.00  0.00    +0.000 C 
ATOM      8  O   UNL     1       5.216   3.793  16.493  0.00  0.00    +0.000 OA
BRANCH   7   9
ATOM      9  C   UNL     1       3.748   4.442  18.312  0.00  0.00    +0.000 C 
ATOM     10  C   UNL     1       3.986   5.443  19.488  0.00  0.00    +0.000 C 
ATOM     11  C   UNL     1       2.441   4.947  17.677  0.00  0.00    +0.000 C 
BRANCH   9  12
ATOM     12  N   UNL     1       3.540   3.063  18.849  0.00  0.00    +0.000 NA
ATOM     13  C   UNL     1       2.313   2.339  18.457  0.00  0.00    +0.000 C 
ATOM     14  C   UNL     1       1.112   2.590  19.377  0.00  0.00    +0.000 C 
ATOM     15  O   UNL     1       1.425   2.228  20.727  0.00  0.00    +0.000 OA
ATOM     16  C   UNL     1       2.558   2.960  21.201  0.00  0.00    +0.000 C 
ATOM     17  C   UNL     1       3.785   2.812  20.282  0.00  0.00    +0.000 C 
ENDBRANCH   9  12
ENDBRANCH   7   9
ENDBRANCH   4   7
BRANCH   1  18
ATOM     18  O   UNL     1       8.832   8.580  18.692  0.00  0.00    +0.000 OA
BRANCH  18  19
ATOM     19  C   UNL     1       8.366   9.862  18.278  0.00  0.00    +0.000 C 
BRANCH  19  20
ATOM     20  C   UNL     1       9.533  10.821  18.114  0.00  0.00    +0.000 C 
BRANCH  20  21
ATOM     21  C   UNL     1       9.025  12.259  17.950  0.00  0.00    +0.000 C 
BRANCH  21  27
ATOM     22  C   UNL     1       8.276  15.063  18.091  0.00  0.00    +0.000 C 
ATOM     23  C   UNL     1       9.602  14.579  18.683  0.00  0.00    +0.000 C 
ATOM     24  C   UNL     1      10.758  15.494  18.276  0.00  0.00    +0.000 C 
ATOM     25  C   UNL     1      11.248  14.879  16.983  0.00  0.00    +0.000 C 
ATOM     26  C   UNL     1      11.086  13.391  17.216  0.00  0.00    +0.000 C 
ATOM     27  N   UNL     1      10.054  13.251  18.248  0.00  0.00    +0.000 NA
ENDBRANCH  21  27
ENDBRANCH  20  21
ENDBRANCH  19  20
ENDBRANCH  18  19
ENDBRANCH   1  18
TORSDOF 8
ENDMDL
