MODEL 1
REMARK VINA RESULT:      -7.8      0.000      0.000
REMARK  Name = 
REMARK  4 active torsions:
REMARK  status: ('A' for Active; 'I' for Inactive)
REMARK    1  A    between atoms: C_1  and  S_2
REMARK    2  A    between atoms: S_2  and  C_3
REMARK    3  A    between atoms: C_6  and  C_7
REMARK    4  A    between atoms: C_7  and  C_8
REMARK                            x       y       z     vdW  Elec       q    Type
REMARK                         _______ _______ _______ _____ _____    ______ ____
ROOT
ATOM      1  C   UNL     1       4.202   5.180  17.712  0.00  0.00    +0.000 C 
ATOM      2  C   UNL     1       5.219   4.789  18.801  0.00  0.00    +0.000 C 
ATOM      3  O   UNL     1       5.879   5.509  19.532  0.00  0.00    +0.000 OA
ATOM      4  N   UNL     1       5.068   3.422  19.025  0.00  0.00    +0.000 N 
ATOM      5  C   UNL     1       3.730   3.121  18.741  0.00  0.00    +0.000 A 
ATOM      6  C   UNL     1       3.108   1.963  19.165  0.00  0.00    +0.000 A 
ATOM      7  C   UNL     1       1.724   1.898  19.017  0.00  0.00    +0.000 A 
ATOM      8  C   UNL     1       1.040   2.992  18.448  0.00  0.00    +0.000 A 
ATOM      9  C   UNL     1       1.715   4.140  17.959  0.00  0.00    +0.000 A 
ATOM     10  C   UNL     1       3.087   4.218  18.125  0.00  0.00    +0.000 A 
ATOM     11  H   UNL     1       5.709   2.846  18.493  0.00  0.00    +0.000 HD
ENDROOT
BRANCH   1  12
ATOM     12  C   UNL     1       4.160   6.710  17.485  0.00  0.00    +0.000 C 
BRANCH  12  16
ATOM     13  C   UNL     1       1.087   8.912  19.813  0.00  0.00    +0.000 A 
ATOM     14  C   UNL     1       1.380   9.252  18.487  0.00  0.00    +0.000 A 
ATOM     15  C   UNL     1       2.342   8.536  17.723  0.00  0.00    +0.000 A 
ATOM     16  C   UNL     1       3.023   7.439  18.254  0.00  0.00    +0.000 A 
ATOM     17  C   UNL     1       2.680   7.073  19.573  0.00  0.00    +0.000 A 
ATOM     18  C   UNL     1       1.740   7.807  20.341  0.00  0.00    +0.000 A 
BRANCH  13  20
ATOM     19  C   UNL     1       0.087   9.423  22.448  0.00  0.00    +0.000 C 
ATOM     20  S   UNL     1      -0.020   9.987  20.718  0.00  0.00    +0.000 S 
ENDBRANCH  13  20
ENDBRANCH  12  16
ENDBRANCH   1  12
TORSDOF 3
ENDMDL
MODEL 2
REMARK VINA RESULT:      -7.8      3.566      4.721
REMARK  Name = 
REMARK  4 active torsions:
REMARK  status: ('A' for Active; 'I' for Inactive)
REMARK    1  A    between atoms: C_1  and  S_2
REMARK    2  A    between atoms: S_2  and  C_3
REMARK    3  A    between atoms: C_6  and  C_7
REMARK    4  A    between atoms: C_7  and  C_8
REMARK                            x       y       z     vdW  Elec       q    Type
REMARK                         _______ _______ _______ _____ _____    ______ ____
ROOT
ATOM      1  C   UNL     1       5.551   4.758  15.773  0.00  0.00    +0.000 C 
ATOM      2  C   UNL     1       7.003   5.054  16.191  0.00  0.00    +0.000 C 
ATOM      3  O   UNL     1       7.585   4.749  17.220  0.00  0.00    +0.000 OA
ATOM      4  N   UNL     1       7.667   5.507  15.054  0.00  0.00    +0.000 N 
ATOM      5  C   UNL     1       7.037   4.902  13.960  0.00  0.00    +0.000 A 
ATOM      6  C   UNL     1       7.608   4.824  12.704  0.00  0.00    +0.000 A 
ATOM      7  C   UNL     1       6.981   3.996  11.775  0.00  0.00    +0.000 A 
ATOM      8  C   UNL     1       5.816   3.297  12.151  0.00  0.00    +0.000 A 
ATOM      9  C   UNL     1       5.214   3.451  13.427  0.00  0.00    +0.000 A 
ATOM     10  C   UNL     1       5.846   4.254  14.361  0.00  0.00    +0.000 A 
ATOM     11  H   UNL     1       7.693   6.516  14.968  0.00  0.00    +0.000 HD
ENDROOT
BRANCH   1  12
ATOM     12  C   UNL     1       4.746   4.094  16.916  0.00  0.00    +0.000 C 
BRANCH  12  16
ATOM     13  C   UNL     1       2.346   6.898  19.385  0.00  0.00    +0.000 A 
ATOM     14  C   UNL     1       3.042   7.335  18.252  0.00  0.00    +0.000 A 
ATOM     15  C   UNL     1       3.791   6.442  17.438  0.00  0.00    +0.000 A 
ATOM     16  C   UNL     1       3.844   5.076  17.718  0.00  0.00    +0.000 A 
ATOM     17  C   UNL     1       3.095   4.637  18.830  0.00  0.00    +0.000 A 
ATOM     18  C   UNL     1       2.372   5.537  19.655  0.00  0.00    +0.000 A 
BRANCH  13  20
ATOM     19  C   UNL     1       1.096   9.472  19.268  0.00  0.00    +0.000 C 
ATOM     20  S   UNL     1       1.577   8.141  20.416  0.00  0.00    +0.000 S 
ENDBRANCH  13  20
ENDBRANCH  12  16
ENDBRANCH   1  12
TORSDOF 3
ENDMDL
MODEL 3
REMARK VINA RESULT:      -7.8      3.493      4.774
REMARK  Name = 
REMARK  4 active torsions:
REMARK  status: ('A' for Active; 'I' for Inactive)
REMARK    1  A    between atoms: C_1  and  S_2
REMARK    2  A    between atoms: S_2  and  C_3
REMARK    3  A    between atoms: C_6  and  C_7
REMARK    4  A    between atoms: C_7  and  C_8
REMARK                            x       y       z     vdW  Elec       q    Type
REMARK                         _______ _______ _______ _____ _____    ______ ____
ROOT
ATOM      1  C   UNL     1       5.395   4.767  15.801  0.00  0.00    +0.000 C 
ATOM      2  C   UNL     1       6.819   4.971  16.352  0.00  0.00    +0.000 C 
ATOM      3  O   UNL     1       7.296   4.591  17.409  0.00  0.00    +0.000 OA
ATOM      4  N   UNL     1       7.598   5.442  15.298  0.00  0.00    +0.000 N 
ATOM      5  C   UNL     1       7.036   4.919  14.127  0.00  0.00    +0.000 A 
ATOM      6  C   UNL     1       7.708   4.871  12.921  0.00  0.00    +0.000 A 
ATOM      7  C   UNL     1       7.126   4.118  11.903  0.00  0.00    +0.000 A 
ATOM      8  C   UNL     1       5.902   3.462  12.144  0.00  0.00    +0.000 A 
ATOM      9  C   UNL     1       5.201   3.587  13.372  0.00  0.00    +0.000 A 
ATOM     10  C   UNL     1       5.787   4.314  14.394  0.00  0.00    +0.000 A 
ATOM     11  H   UNL     1       7.676   6.452  15.265  0.00  0.00    +0.000 HD
ENDROOT
BRANCH   1  12
ATOM     12  C   UNL     1       4.466   4.092  16.838  0.00  0.00    +0.000 C 
BRANCH  12  16
ATOM     13  C   UNL     1       2.401   6.891  19.598  0.00  0.00    +0.000 A 
ATOM     14  C   UNL     1       2.651   5.561  19.959  0.00  0.00    +0.000 A 
ATOM     15  C   UNL     1       3.336   4.664  19.095  0.00  0.00    +0.000 A 
ATOM     16  C   UNL     1       3.817   5.077  17.851  0.00  0.00    +0.000 A 
ATOM     17  C   UNL     1       3.608   6.433  17.521  0.00  0.00    +0.000 A 
ATOM     18  C   UNL     1       2.900   7.318  18.375  0.00  0.00    +0.000 A 
BRANCH  13  20
ATOM     19  C   UNL     1       1.048   9.409  19.780  0.00  0.00    +0.000 C 
ATOM     20  S   UNL     1       1.391   7.873  20.700  0.00  0.00    +0.000 S 
ENDBRANCH  13  20
ENDBRANCH  12  16
ENDBRANCH   1  12
TORSDOF 3
ENDMDL
MODEL 4
REMARK VINA RESULT:      -7.5      1.901      3.275
REMARK  Name = 
REMARK  4 active torsions:
REMARK  status: ('A' for Active; 'I' for Inactive)
REMARK    1  A    between atoms: C_1  and  S_2
REMARK    2  A    between atoms: S_2  and  C_3
REMARK    3  A    between atoms: C_6  and  C_7
REMARK    4  A    between atoms: C_7  and  C_8
REMARK                            x       y       z     vdW  Elec       q    Type
REMARK                         _______ _______ _______ _____ _____    ______ ____
ROOT
ATOM      1  C   UNL     1       4.245   5.439  18.772  0.00  0.00    +0.000 C 
ATOM      2  C   UNL     1       4.797   4.125  19.355  0.00  0.00    +0.000 C 
ATOM      3  O   UNL     1       4.198   3.213  19.900  0.00  0.00    +0.000 OA
ATOM      4  N   UNL     1       6.110   4.004  18.906  0.00  0.00    +0.000 N 
ATOM      5  C   UNL     1       6.169   4.662  17.671  0.00  0.00    +0.000 A 
ATOM      6  C   UNL     1       7.189   4.472  16.759  0.00  0.00    +0.000 A 
ATOM      7  C   UNL     1       7.004   5.003  15.484  0.00  0.00    +0.000 A 
ATOM      8  C   UNL     1       5.813   5.699  15.193  0.00  0.00    +0.000 A 
ATOM      9  C   UNL     1       4.813   5.937  16.172  0.00  0.00    +0.000 A 
ATOM     10  C   UNL     1       4.982   5.392  17.433  0.00  0.00    +0.000 A 
ATOM     11  H   UNL     1       6.801   4.357  19.558  0.00  0.00    +0.000 HD
ENDROOT
BRANCH   1  12
ATOM     12  C   UNL     1       2.736   5.612  19.068  0.00  0.00    +0.000 C 
BRANCH  12  16
ATOM     13  C   UNL     1       1.165   9.765  19.118  0.00  0.00    +0.000 A 
ATOM     14  C   UNL     1       1.221   8.991  20.284  0.00  0.00    +0.000 A 
ATOM     15  C   UNL     1       1.748   7.672  20.286  0.00  0.00    +0.000 A 
ATOM     16  C   UNL     1       2.260   7.092  19.124  0.00  0.00    +0.000 A 
ATOM     17  C   UNL     1       2.249   7.899  17.967  0.00  0.00    +0.000 A 
ATOM     18  C   UNL     1       1.697   9.207  17.964  0.00  0.00    +0.000 A 
BRANCH  13  20
ATOM     19  C   UNL     1      -0.675  11.258  20.727  0.00  0.00    +0.000 C 
ATOM     20  S   UNL     1       0.334  11.346  19.212  0.00  0.00    +0.000 S 
ENDBRANCH  13  20
ENDBRANCH  12  16
ENDBRANCH   1  12
TORSDOF 3
ENDMDL
MODEL 5
REMARK VINA RESULT:      -7.4      3.818      5.177
REMARK  Name = 
REMARK  4 active torsions:
REMARK  status: ('A' for Active; 'I' for Inactive)
REMARK    1  A    between atoms: C_1  and  S_2
REMARK    2  A    between atoms: S_2  and  C_3
REMARK    3  A    between atoms: C_6  and  C_7
REMARK    4  A    between atoms: C_7  and  C_8
REMARK                            x       y       z     vdW  Elec       q    Type
REMARK                         _______ _______ _______ _____ _____    ______ ____
ROOT
ATOM      1  C   UNL     1       5.651   4.413  15.589  0.00  0.00    +0.000 C 
ATOM      2  C   UNL     1       7.048   4.824  16.089  0.00  0.00    +0.000 C 
ATOM      3  O   UNL     1       7.642   4.466  17.093  0.00  0.00    +0.000 OA
ATOM      4  N   UNL     1       7.675   5.488  15.037  0.00  0.00    +0.000 N 
ATOM      5  C   UNL     1       7.145   4.951  13.858  0.00  0.00    +0.000 A 
ATOM      6  C   UNL     1       7.746   5.095  12.622  0.00  0.00    +0.000 A 
ATOM      7  C   UNL     1       7.243   4.319  11.580  0.00  0.00    +0.000 A 
ATOM      8  C   UNL     1       6.163   3.447  11.829  0.00  0.00    +0.000 A 
ATOM      9  C   UNL     1       5.522   3.372  13.093  0.00  0.00    +0.000 A 
ATOM     10  C   UNL     1       6.033   4.124  14.137  0.00  0.00    +0.000 A 
ATOM     11  H   UNL     1       7.580   6.496  15.073  0.00  0.00    +0.000 HD
ENDROOT
BRANCH   1  12
ATOM     12  C   UNL     1       4.909   3.523  16.616  0.00  0.00    +0.000 C 
BRANCH  12  16
ATOM     13  C   UNL     1       2.253   5.562  19.531  0.00  0.00    +0.000 A 
ATOM     14  C   UNL     1       3.592   5.940  19.375  0.00  0.00    +0.000 A 
ATOM     15  C   UNL     1       4.444   5.314  18.425  0.00  0.00    +0.000 A 
ATOM     16  C   UNL     1       3.975   4.305  17.582  0.00  0.00    +0.000 A 
ATOM     17  C   UNL     1       2.611   3.969  17.710  0.00  0.00    +0.000 A 
ATOM     18  C   UNL     1       1.771   4.579  18.679  0.00  0.00    +0.000 A 
BRANCH  13  20
ATOM     19  C   UNL     1       1.533   8.107  20.629  0.00  0.00    +0.000 C 
ATOM     20  S   UNL     1       1.331   6.312  20.868  0.00  0.00    +0.000 S 
ENDBRANCH  13  20
ENDBRANCH  12  16
ENDBRANCH   1  12
TORSDOF 3
ENDMDL
MODEL 6
REMARK VINA RESULT:      -7.4      0.301      1.133
REMARK  Name = 
REMARK  4 active torsions:
REMARK  status: ('A' for Active; 'I' for Inactive)
REMARK    1  A    between atoms: C_1  and  S_2
REMARK    2  A    between atoms: S_2  and  C_3
REMARK    3  A    between atoms: C_6  and  C_7
REMARK    4  A    between atoms: C_7  and  C_8
REMARK                            x       y       z     vdW  Elec       q    Type
REMARK                         _______ _______ _______ _____ _____    ______ ____
ROOT
ATOM      1  C   UNL     1       4.170   5.075  17.564  0.00  0.00    +0.000 C 
ATOM      2  C   UNL     1       5.218   4.697  18.627  0.00  0.00    +0.000 C 
ATOM      3  O   UNL     1       5.949   5.425  19.279  0.00  0.00    +0.000 OA
ATOM      4  N   UNL     1       5.007   3.358  18.945  0.00  0.00    +0.000 N 
ATOM      5  C   UNL     1       3.643   3.112  18.743  0.00  0.00    +0.000 A 
ATOM      6  C   UNL     1       2.984   2.018  19.269  0.00  0.00    +0.000 A 
ATOM      7  C   UNL     1       1.593   2.020  19.189  0.00  0.00    +0.000 A 
ATOM      8  C   UNL     1       0.939   3.112  18.583  0.00  0.00    +0.000 A 
ATOM      9  C   UNL     1       1.647   4.189  17.990  0.00  0.00    +0.000 A 
ATOM     10  C   UNL     1       3.028   4.203  18.087  0.00  0.00    +0.000 A 
ATOM     11  H   UNL     1       5.591   2.715  18.423  0.00  0.00    +0.000 HD
ENDROOT
BRANCH   1  12
ATOM     12  C   UNL     1       4.195   6.588  17.240  0.00  0.00    +0.000 C 
BRANCH  12  16
ATOM     13  C   UNL     1       1.181   8.914  19.525  0.00  0.00    +0.000 A 
ATOM     14  C   UNL     1       1.845   7.820  20.095  0.00  0.00    +0.000 A 
ATOM     15  C   UNL     1       2.831   7.086  19.383  0.00  0.00    +0.000 A 
ATOM     16  C   UNL     1       3.205   7.439  18.085  0.00  0.00    +0.000 A 
ATOM     17  C   UNL     1       2.569   8.575  17.541  0.00  0.00    +0.000 A 
ATOM     18  C   UNL     1       1.565   9.288  18.246  0.00  0.00    +0.000 A 
BRANCH  13  20
ATOM     19  C   UNL     1      -0.168   8.755  22.047  0.00  0.00    +0.000 C 
ATOM     20  S   UNL     1      -0.152   9.653  20.461  0.00  0.00    +0.000 S 
ENDBRANCH  13  20
ENDBRANCH  12  16
ENDBRANCH   1  12
TORSDOF 3
ENDMDL
MODEL 7
REMARK VINA RESULT:      -7.4      1.595      1.777
REMARK  Name = 
REMARK  4 active torsions:
REMARK  status: ('A' for Active; 'I' for Inactive)
REMARK    1  A    between atoms: C_1  and  S_2
REMARK    2  A    between atoms: S_2  and  C_3
REMARK    3  A    between atoms: C_6  and  C_7
REMARK    4  A    between atoms: C_7  and  C_8
REMARK                            x       y       z     vdW  Elec       q    Type
REMARK                         _______ _______ _______ _____ _____    ______ ____
ROOT
ATOM      1  C   UNL     1       2.777   5.696  17.889  0.00  0.00    +0.000 C 
ATOM      2  C   UNL     1       3.878   4.833  17.245  0.00  0.00    +0.000 C 
ATOM      3  O   UNL     1       5.050   5.107  17.043  0.00  0.00    +0.000 OA
ATOM      4  N   UNL     1       3.383   3.534  17.170  0.00  0.00    +0.000 N 
ATOM      5  C   UNL     1       2.484   3.390  18.234  0.00  0.00    +0.000 A 
ATOM      6  C   UNL     1       2.054   2.164  18.702  0.00  0.00    +0.000 A 
ATOM      7  C   UNL     1       1.351   2.158  19.906  0.00  0.00    +0.000 A 
ATOM      8  C   UNL     1       1.114   3.377  20.571  0.00  0.00    +0.000 A 
ATOM      9  C   UNL     1       1.509   4.629  20.031  0.00  0.00    +0.000 A 
ATOM     10  C   UNL     1       2.227   4.638  18.847  0.00  0.00    +0.000 A 
ATOM     11  H   UNL     1       2.956   3.308  16.278  0.00  0.00    +0.000 HD
ENDROOT
BRANCH   1  12
ATOM     12  C   UNL     1       3.265   7.136  18.176  0.00  0.00    +0.000 C 
BRANCH  12  16
ATOM     13  C   UNL     1       0.267  10.038  19.694  0.00  0.00    +0.000 A 
ATOM     14  C   UNL     1       0.584   9.960  18.332  0.00  0.00    +0.000 A 
ATOM     15  C   UNL     1       1.520   9.016  17.831  0.00  0.00    +0.000 A 
ATOM     16  C   UNL     1       2.153   8.101  18.675  0.00  0.00    +0.000 A 
ATOM     17  C   UNL     1       1.787   8.153  20.036  0.00  0.00    +0.000 A 
ATOM     18  C   UNL     1       0.871   9.115  20.536  0.00  0.00    +0.000 A 
BRANCH  13  20
ATOM     19  C   UNL     1       0.269  12.472  21.203  0.00  0.00    +0.000 C 
ATOM     20  S   UNL     1      -0.802  11.372  20.221  0.00  0.00    +0.000 S 
ENDBRANCH  13  20
ENDBRANCH  12  16
ENDBRANCH   1  12
TORSDOF 3
ENDMDL
MODEL 8
REMARK VINA RESULT:      -7.3      1.955      2.488
REMARK  Name = 
REMARK  4 active torsions:
REMARK  status: ('A' for Active; 'I' for Inactive)
REMARK    1  A    between atoms: C_1  and  S_2
REMARK    2  A    between atoms: S_2  and  C_3
REMARK    3  A    between atoms: C_6  and  C_7
REMARK    4  A    between atoms: C_7  and  C_8
REMARK                            x       y       z     vdW  Elec       q    Type
REMARK                         _______ _______ _______ _____ _____    ______ ____
ROOT
ATOM      1  C   UNL     1       2.493   5.517  18.236  0.00  0.00    +0.000 C 
ATOM      2  C   UNL     1       3.219   4.501  17.334  0.00  0.00    +0.000 C 
ATOM      3  O   UNL     1       4.250   4.638  16.696  0.00  0.00    +0.000 OA
ATOM      4  N   UNL     1       2.644   3.257  17.581  0.00  0.00    +0.000 N 
ATOM      5  C   UNL     1       2.191   3.286  18.906  0.00  0.00    +0.000 A 
ATOM      6  C   UNL     1       1.880   2.148  19.625  0.00  0.00    +0.000 A 
ATOM      7  C   UNL     1       1.671   2.303  20.994  0.00  0.00    +0.000 A 
ATOM      8  C   UNL     1       1.778   3.586  21.566  0.00  0.00    +0.000 A 
ATOM      9  C   UNL     1       2.031   4.747  20.790  0.00  0.00    +0.000 A 
ATOM     10  C   UNL     1       2.263   4.595  19.433  0.00  0.00    +0.000 A 
ATOM     11  H   UNL     1       1.905   3.011  16.932  0.00  0.00    +0.000 HD
ENDROOT
BRANCH   1  12
ATOM     12  C   UNL     1       3.149   6.917  18.173  0.00  0.00    +0.000 C 
BRANCH  12  16
ATOM     13  C   UNL     1       0.348  10.099  19.495  0.00  0.00    +0.000 A 
ATOM     14  C   UNL     1       0.897   9.185  20.403  0.00  0.00    +0.000 A 
ATOM     15  C   UNL     1       1.816   8.180  19.996  0.00  0.00    +0.000 A 
ATOM     16  C   UNL     1       2.237   8.074  18.670  0.00  0.00    +0.000 A 
ATOM     17  C   UNL     1       1.720   9.033  17.773  0.00  0.00    +0.000 A 
ATOM     18  C   UNL     1       0.782  10.017  18.179  0.00  0.00    +0.000 A 
BRANCH  13  20
ATOM     19  C   UNL     1      -1.936  11.599  18.639  0.00  0.00    +0.000 C 
ATOM     20  S   UNL     1      -0.917  11.209  20.099  0.00  0.00    +0.000 S 
ENDBRANCH  13  20
ENDBRANCH  12  16
ENDBRANCH   1  12
TORSDOF 3
ENDMDL
MODEL 9
REMARK VINA RESULT:      -7.3      1.934      3.266
REMARK  Name = 
REMARK  4 active torsions:
REMARK  status: ('A' for Active; 'I' for Inactive)
REMARK    1  A    between atoms: C_1  and  S_2
REMARK    2  A    between atoms: S_2  and  C_3
REMARK    3  A    between atoms: C_6  and  C_7
REMARK    4  A    between atoms: C_7  and  C_8
REMARK                            x       y       z     vdW  Elec       q    Type
REMARK                         _______ _______ _______ _____ _____    ______ ____
ROOT
ATOM      1  C   UNL     1       4.317   5.320  18.653  0.00  0.00    +0.000 C 
ATOM      2  C   UNL     1       4.964   4.052  19.242  0.00  0.00    +0.000 C 
ATOM      3  O   UNL     1       4.436   3.118  19.822  0.00  0.00    +0.000 OA
ATOM      4  N   UNL     1       6.268   3.999  18.754  0.00  0.00    +0.000 N 
ATOM      5  C   UNL     1       6.250   4.635  17.507  0.00  0.00    +0.000 A 
ATOM      6  C   UNL     1       7.251   4.486  16.567  0.00  0.00    +0.000 A 
ATOM      7  C   UNL     1       6.997   4.980  15.289  0.00  0.00    +0.000 A 
ATOM      8  C   UNL     1       5.759   5.600  15.023  0.00  0.00    +0.000 A 
ATOM      9  C   UNL     1       4.776   5.798  16.028  0.00  0.00    +0.000 A 
ATOM     10  C   UNL     1       5.015   5.289  17.293  0.00  0.00    +0.000 A 
ATOM     11  H   UNL     1       6.956   4.405  19.378  0.00  0.00    +0.000 HD
ENDROOT
BRANCH   1  12
ATOM     12  C   UNL     1       2.810   5.410  18.993  0.00  0.00    +0.000 C 
BRANCH  12  16
ATOM     13  C   UNL     1       1.407   9.619  19.165  0.00  0.00    +0.000 A 
ATOM     14  C   UNL     1       1.845   9.044  17.966  0.00  0.00    +0.000 A 
ATOM     15  C   UNL     1       2.269   7.690  17.893  0.00  0.00    +0.000 A 
ATOM     16  C   UNL     1       2.245   6.859  19.015  0.00  0.00    +0.000 A 
ATOM     17  C   UNL     1       1.752   7.433  20.205  0.00  0.00    +0.000 A 
ATOM     18  C   UNL     1       1.355   8.793  20.279  0.00  0.00    +0.000 A 
BRANCH  13  20
ATOM     19  C   UNL     1      -0.674  11.503  18.599  0.00  0.00    +0.000 C 
ATOM     20  S   UNL     1       1.054  11.373  19.163  0.00  0.00    +0.000 S 
ENDBRANCH  13  20
ENDBRANCH  12  16
ENDBRANCH   1  12
TORSDOF 3
ENDMDL
