MODEL 1
REMARK VINA RESULT:      -6.7      0.000      0.000
REMARK  Name = 
REMARK  8 active torsions:
REMARK  status: ('A' for Active; 'I' for Inactive)
REMARK    1  A    between atoms: C_1  and  C_2
REMARK    2  A    between atoms: C_3  and  C_4
REMARK    3  A    between atoms: C_4  and  C_5
REMARK    4  A    between atoms: C_5  and  O_6
REMARK    5  A    between atoms: N_9  and  C_10
REMARK    6  A    between atoms: N_16  and  S_17
REMARK    7  A    between atoms: S_17  and  C_20
REMARK    8  A    between atoms: C_23  and  N_24
REMARK                            x       y       z     vdW  Elec       q    Type
REMARK                         _______ _______ _______ _____ _____    ______ ____
ROOT
ATOM      1  C   UNL     1       5.887   7.689  17.407  0.00  0.00    +0.000 C 
ATOM      2  C   UNL     1       4.622   7.091  17.925  0.00  0.00    +0.000 A 
ATOM      3  C   UNL     1       3.374   7.586  17.798  0.00  0.00    +0.000 A 
ATOM      4  C   UNL     1       2.399   6.597  18.317  0.00  0.00    +0.000 A 
ATOM      5  O   UNL     1       1.189   6.738  18.253  0.00  0.00    +0.000 OA
ATOM      6  N   UNL     1       3.150   5.586  18.883  0.00  0.00    +0.000 N 
ATOM      7  N   UNL     1       4.551   5.901  18.738  0.00  0.00    +0.000 N 
ENDROOT
BRANCH   6   8
ATOM      8  C   UNL     1       2.617   4.475  19.542  0.00  0.00    +0.000 A 
ATOM      9  C   UNL     1       2.605   4.436  20.941  0.00  0.00    +0.000 A 
ATOM     10  C   UNL     1       1.973   3.381  21.600  0.00  0.00    +0.000 A 
ATOM     11  C   UNL     1       1.406   2.339  20.866  0.00  0.00    +0.000 A 
ATOM     12  C   UNL     1       1.469   2.349  19.472  0.00  0.00    +0.000 A 
ATOM     13  C   UNL     1       2.062   3.424  18.809  0.00  0.00    +0.000 A 
ENDBRANCH   6   8
BRANCH   7  14
ATOM     14  S   UNL     1       5.744   4.671  18.620  0.00  0.00    +0.000 S 
ATOM     15  O   UNL     1       7.017   5.137  19.130  0.00  0.00    +0.000 OA
ATOM     16  O   UNL     1       5.209   3.409  19.082  0.00  0.00    +0.000 OA
BRANCH  14  17
ATOM     17  C   UNL     1       6.015   4.468  16.859  0.00  0.00    +0.000 A 
ATOM     18  C   UNL     1       7.238   4.748  16.245  0.00  0.00    +0.000 A 
ATOM     19  C   UNL     1       7.380   4.546  14.866  0.00  0.00    +0.000 A 
ATOM     20  C   UNL     1       6.301   4.051  14.114  0.00  0.00    +0.000 A 
ATOM     21  C   UNL     1       5.076   3.761  14.733  0.00  0.00    +0.000 A 
ATOM     22  C   UNL     1       4.938   3.972  16.107  0.00  0.00    +0.000 A 
BRANCH  20  23
ATOM     23  N   UNL     1       6.454   3.827  12.673  0.00  0.00    +0.000 N 
ATOM     24  O   UNL     1       5.682   3.016  12.130  0.00  0.00    +0.000 OA
ATOM     25  O   UNL     1       7.340   4.456  12.079  0.00  0.00    +0.000 OA
ENDBRANCH  20  23
ENDBRANCH  14  17
ENDBRANCH   7  14
BRANCH   3  26
ATOM     26  C   UNL     1       2.885   8.877  17.220  0.00  0.00    +0.000 C 
BRANCH  26  27
ATOM     27  C   UNL     1       2.011   9.671  18.198  0.00  0.00    +0.000 C 
BRANCH  27  28
ATOM     28  O   UNL     1       0.669   9.738  17.723  0.00  0.00    +0.000 OA
ATOM     29  H   UNL     1       0.089   9.580  18.489  0.00  0.00    +0.000 HD
ENDBRANCH  27  28
ENDBRANCH  26  27
ENDBRANCH   3  26
TORSDOF 7
ENDMDL
MODEL 2
REMARK VINA RESULT:      -6.5      0.166      1.103
REMARK  Name = 
REMARK  8 active torsions:
REMARK  status: ('A' for Active; 'I' for Inactive)
REMARK    1  A    between atoms: C_1  and  C_2
REMARK    2  A    between atoms: C_3  and  C_4
REMARK    3  A    between atoms: C_4  and  C_5
REMARK    4  A    between atoms: C_5  and  O_6
REMARK    5  A    between atoms: N_9  and  C_10
REMARK    6  A    between atoms: N_16  and  S_17
REMARK    7  A    between atoms: S_17  and  C_20
REMARK    8  A    between atoms: C_23  and  N_24
REMARK                            x       y       z     vdW  Elec       q    Type
REMARK                         _______ _______ _______ _____ _____    ______ ____
ROOT
ATOM      1  C   UNL     1       5.857   7.666  17.376  0.00  0.00    +0.000 C 
ATOM      2  C   UNL     1       4.613   7.054  17.928  0.00  0.00    +0.000 A 
ATOM      3  C   UNL     1       3.357   7.533  17.829  0.00  0.00    +0.000 A 
ATOM      4  C   UNL     1       2.406   6.535  18.377  0.00  0.00    +0.000 A 
ATOM      5  O   UNL     1       1.193   6.661  18.343  0.00  0.00    +0.000 OA
ATOM      6  N   UNL     1       3.184   5.537  18.929  0.00  0.00    +0.000 N 
ATOM      7  N   UNL     1       4.576   5.868  18.748  0.00  0.00    +0.000 N 
ENDROOT
BRANCH   6   8
ATOM      8  C   UNL     1       2.680   4.423  19.606  0.00  0.00    +0.000 A 
ATOM      9  C   UNL     1       2.635   4.421  21.005  0.00  0.00    +0.000 A 
ATOM     10  C   UNL     1       2.031   3.358  21.679  0.00  0.00    +0.000 A 
ATOM     11  C   UNL     1       1.526   2.274  20.960  0.00  0.00    +0.000 A 
ATOM     12  C   UNL     1       1.624   2.249  19.568  0.00  0.00    +0.000 A 
ATOM     13  C   UNL     1       2.188   3.329  18.890  0.00  0.00    +0.000 A 
ENDBRANCH   6   8
BRANCH   7  14
ATOM     14  S   UNL     1       5.781   4.652  18.606  0.00  0.00    +0.000 S 
ATOM     15  O   UNL     1       7.075   5.158  19.016  0.00  0.00    +0.000 OA
ATOM     16  O   UNL     1       5.298   3.403  19.153  0.00  0.00    +0.000 OA
BRANCH  14  17
ATOM     17  C   UNL     1       5.946   4.378  16.842  0.00  0.00    +0.000 A 
ATOM     18  C   UNL     1       4.903   3.891  16.052  0.00  0.00    +0.000 A 
ATOM     19  C   UNL     1       5.101   3.721  14.675  0.00  0.00    +0.000 A 
ATOM     20  C   UNL     1       6.339   4.054  14.098  0.00  0.00    +0.000 A 
ATOM     21  C   UNL     1       7.383   4.552  14.891  0.00  0.00    +0.000 A 
ATOM     22  C   UNL     1       7.181   4.712  16.264  0.00  0.00    +0.000 A 
BRANCH  20  23
ATOM     23  N   UNL     1       6.541   3.888  12.655  0.00  0.00    +0.000 N 
ATOM     24  O   UNL     1       7.432   4.571  12.116  0.00  0.00    +0.000 OA
ATOM     25  O   UNL     1       5.819   3.081  12.056  0.00  0.00    +0.000 OA
ENDBRANCH  20  23
ENDBRANCH  14  17
ENDBRANCH   7  14
BRANCH   3  26
ATOM     26  C   UNL     1       2.837   8.816  17.258  0.00  0.00    +0.000 C 
BRANCH  26  27
ATOM     27  C   UNL     1       2.088   9.665  18.291  0.00  0.00    +0.000 C 
BRANCH  27  28
ATOM     28  O   UNL     1       0.983  10.329  17.682  0.00  0.00    +0.000 OA
ATOM     29  H   UNL     1       0.576  10.887  18.367  0.00  0.00    +0.000 HD
ENDBRANCH  27  28
ENDBRANCH  26  27
ENDBRANCH   3  26
TORSDOF 7
ENDMDL
MODEL 3
REMARK VINA RESULT:      -6.4      1.578      4.364
REMARK  Name = 
REMARK  8 active torsions:
REMARK  status: ('A' for Active; 'I' for Inactive)
REMARK    1  A    between atoms: C_1  and  C_2
REMARK    2  A    between atoms: C_3  and  C_4
REMARK    3  A    between atoms: C_4  and  C_5
REMARK    4  A    between atoms: C_5  and  O_6
REMARK    5  A    between atoms: N_9  and  C_10
REMARK    6  A    between atoms: N_16  and  S_17
REMARK    7  A    between atoms: S_17  and  C_20
REMARK    8  A    between atoms: C_23  and  N_24
REMARK                            x       y       z     vdW  Elec       q    Type
REMARK                         _______ _______ _______ _____ _____    ______ ____
ROOT
ATOM      1  C   UNL     1       4.415   2.414  18.948  0.00  0.00    +0.000 C 
ATOM      2  C   UNL     1       3.419   3.506  19.150  0.00  0.00    +0.000 A 
ATOM      3  C   UNL     1       2.213   3.411  19.745  0.00  0.00    +0.000 A 
ATOM      4  C   UNL     1       1.620   4.764  19.875  0.00  0.00    +0.000 A 
ATOM      5  O   UNL     1       0.570   4.994  20.451  0.00  0.00    +0.000 OA
ATOM      6  N   UNL     1       2.469   5.614  19.194  0.00  0.00    +0.000 N 
ATOM      7  N   UNL     1       3.564   4.851  18.647  0.00  0.00    +0.000 N 
ENDROOT
BRANCH   6   8
ATOM      8  C   UNL     1       2.248   6.983  19.021  0.00  0.00    +0.000 A 
ATOM      9  C   UNL     1       2.274   7.535  17.735  0.00  0.00    +0.000 A 
ATOM     10  C   UNL     1       1.944   8.879  17.550  0.00  0.00    +0.000 A 
ATOM     11  C   UNL     1       1.646   9.681  18.650  0.00  0.00    +0.000 A 
ATOM     12  C   UNL     1       1.676   9.145  19.938  0.00  0.00    +0.000 A 
ATOM     13  C   UNL     1       1.963   7.793  20.123  0.00  0.00    +0.000 A 
ENDBRANCH   6   8
BRANCH   7  14
ATOM     14  S   UNL     1       5.115   5.546  18.404  0.00  0.00    +0.000 S 
ATOM     15  O   UNL     1       5.031   6.991  18.357  0.00  0.00    +0.000 OA
ATOM     16  O   UNL     1       6.087   4.917  19.271  0.00  0.00    +0.000 OA
BRANCH  14  17
ATOM     17  C   UNL     1       5.571   5.070  16.736  0.00  0.00    +0.000 A 
ATOM     18  C   UNL     1       4.660   4.523  15.831  0.00  0.00    +0.000 A 
ATOM     19  C   UNL     1       5.086   4.193  14.537  0.00  0.00    +0.000 A 
ATOM     20  C   UNL     1       6.418   4.428  14.156  0.00  0.00    +0.000 A 
ATOM     21  C   UNL     1       7.330   4.986  15.063  0.00  0.00    +0.000 A 
ATOM     22  C   UNL     1       6.901   5.305  16.354  0.00  0.00    +0.000 A 
BRANCH  20  23
ATOM     23  N   UNL     1       6.860   4.095  12.797  0.00  0.00    +0.000 N 
ATOM     24  O   UNL     1       7.687   4.853  12.259  0.00  0.00    +0.000 OA
ATOM     25  O   UNL     1       6.389   3.080  12.266  0.00  0.00    +0.000 OA
ENDBRANCH  20  23
ENDBRANCH  14  17
ENDBRANCH   7  14
BRANCH   3  26
ATOM     26  C   UNL     1       1.472   2.223  20.276  0.00  0.00    +0.000 C 
BRANCH  26  27
ATOM     27  C   UNL     1       1.402   2.204  21.807  0.00  0.00    +0.000 C 
BRANCH  27  28
ATOM     28  O   UNL     1       2.547   2.843  22.365  0.00  0.00    +0.000 OA
ATOM     29  H   UNL     1       3.221   2.880  21.664  0.00  0.00    +0.000 HD
ENDBRANCH  27  28
ENDBRANCH  26  27
ENDBRANCH   3  26
TORSDOF 7
ENDMDL
MODEL 4
REMARK VINA RESULT:      -6.4      1.689      4.215
REMARK  Name = 
REMARK  8 active torsions:
REMARK  status: ('A' for Active; 'I' for Inactive)
REMARK    1  A    between atoms: C_1  and  C_2
REMARK    2  A    between atoms: C_3  and  C_4
REMARK    3  A    between atoms: C_4  and  C_5
REMARK    4  A    between atoms: C_5  and  O_6
REMARK    5  A    between atoms: N_9  and  C_10
REMARK    6  A    between atoms: N_16  and  S_17
REMARK    7  A    between atoms: S_17  and  C_20
REMARK    8  A    between atoms: C_23  and  N_24
REMARK                            x       y       z     vdW  Elec       q    Type
REMARK                         _______ _______ _______ _____ _____    ______ ____
ROOT
ATOM      1  C   UNL     1       4.671   2.736  18.564  0.00  0.00    +0.000 C 
ATOM      2  C   UNL     1       3.610   3.733  18.890  0.00  0.00    +0.000 A 
ATOM      3  C   UNL     1       2.458   3.510  19.553  0.00  0.00    +0.000 A 
ATOM      4  C   UNL     1       1.773   4.803  19.797  0.00  0.00    +0.000 A 
ATOM      5  O   UNL     1       0.750   4.918  20.451  0.00  0.00    +0.000 OA
ATOM      6  N   UNL     1       2.505   5.753  19.113  0.00  0.00    +0.000 N 
ATOM      7  N   UNL     1       3.617   5.109  18.456  0.00  0.00    +0.000 N 
ENDROOT
BRANCH   6   8
ATOM      8  C   UNL     1       2.169   7.107  19.033  0.00  0.00    +0.000 A 
ATOM      9  C   UNL     1       2.047   7.720  17.781  0.00  0.00    +0.000 A 
ATOM     10  C   UNL     1       1.603   9.041  17.695  0.00  0.00    +0.000 A 
ATOM     11  C   UNL     1       1.337   9.763  18.857  0.00  0.00    +0.000 A 
ATOM     12  C   UNL     1       1.514   9.170  20.108  0.00  0.00    +0.000 A 
ATOM     13  C   UNL     1       1.916   7.837  20.196  0.00  0.00    +0.000 A 
ENDBRANCH   6   8
BRANCH   7  14
ATOM     14  S   UNL     1       5.090   5.939  18.155  0.00  0.00    +0.000 S 
ATOM     15  O   UNL     1       4.856   7.356  17.970  0.00  0.00    +0.000 OA
ATOM     16  O   UNL     1       6.109   5.500  19.083  0.00  0.00    +0.000 OA
BRANCH  14  17
ATOM     17  C   UNL     1       5.618   5.359  16.543  0.00  0.00    +0.000 A 
ATOM     18  C   UNL     1       6.955   5.360  16.139  0.00  0.00    +0.000 A 
ATOM     19  C   UNL     1       7.293   4.873  14.870  0.00  0.00    +0.000 A 
ATOM     20  C   UNL     1       6.291   4.374  14.019  0.00  0.00    +0.000 A 
ATOM     21  C   UNL     1       4.950   4.365  14.429  0.00  0.00    +0.000 A 
ATOM     22  C   UNL     1       4.618   4.860  15.692  0.00  0.00    +0.000 A 
BRANCH  20  23
ATOM     23  N   UNL     1       6.648   3.852  12.696  0.00  0.00    +0.000 N 
ATOM     24  O   UNL     1       6.071   2.820  12.309  0.00  0.00    +0.000 OA
ATOM     25  O   UNL     1       7.499   4.467  12.039  0.00  0.00    +0.000 OA
ENDBRANCH  20  23
ENDBRANCH  14  17
ENDBRANCH   7  14
BRANCH   3  26
ATOM     26  C   UNL     1       1.848   2.241  20.062  0.00  0.00    +0.000 C 
BRANCH  26  27
ATOM     27  C   UNL     1       2.180   1.971  21.534  0.00  0.00    +0.000 C 
BRANCH  27  28
ATOM     28  O   UNL     1       1.324   2.731  22.384  0.00  0.00    +0.000 OA
ATOM     29  H   UNL     1       1.414   3.662  22.117  0.00  0.00    +0.000 HD
ENDBRANCH  27  28
ENDBRANCH  26  27
ENDBRANCH   3  26
TORSDOF 7
ENDMDL
MODEL 5
REMARK VINA RESULT:      -6.4      0.379      1.351
REMARK  Name = 
REMARK  8 active torsions:
REMARK  status: ('A' for Active; 'I' for Inactive)
REMARK    1  A    between atoms: C_1  and  C_2
REMARK    2  A    between atoms: C_3  and  C_4
REMARK    3  A    between atoms: C_4  and  C_5
REMARK    4  A    between atoms: C_5  and  O_6
REMARK    5  A    between atoms: N_9  and  C_10
REMARK    6  A    between atoms: N_16  and  S_17
REMARK    7  A    between atoms: S_17  and  C_20
REMARK    8  A    between atoms: C_23  and  N_24
REMARK                            x       y       z     vdW  Elec       q    Type
REMARK                         _______ _______ _______ _____ _____    ______ ____
ROOT
ATOM      1  C   UNL     1       5.876   7.662  17.401  0.00  0.00    +0.000 C 
ATOM      2  C   UNL     1       4.604   7.087  17.931  0.00  0.00    +0.000 A 
ATOM      3  C   UNL     1       3.364   7.600  17.806  0.00  0.00    +0.000 A 
ATOM      4  C   UNL     1       2.376   6.630  18.338  0.00  0.00    +0.000 A 
ATOM      5  O   UNL     1       1.168   6.789  18.280  0.00  0.00    +0.000 OA
ATOM      6  N   UNL     1       3.115   5.613  18.908  0.00  0.00    +0.000 N 
ATOM      7  N   UNL     1       4.519   5.905  18.753  0.00  0.00    +0.000 N 
ENDROOT
BRANCH   6   8
ATOM      8  C   UNL     1       2.568   4.515  19.579  0.00  0.00    +0.000 A 
ATOM      9  C   UNL     1       2.064   3.434  18.849  0.00  0.00    +0.000 A 
ATOM     10  C   UNL     1       1.620   2.292  19.517  0.00  0.00    +0.000 A 
ATOM     11  C   UNL     1       1.627   2.253  20.911  0.00  0.00    +0.000 A 
ATOM     12  C   UNL     1       2.076   3.354  21.641  0.00  0.00    +0.000 A 
ATOM     13  C   UNL     1       2.560   4.480  20.976  0.00  0.00    +0.000 A 
ENDBRANCH   6   8
BRANCH   7  14
ATOM     14  S   UNL     1       5.693   4.656  18.639  0.00  0.00    +0.000 S 
ATOM     15  O   UNL     1       6.993   5.129  19.067  0.00  0.00    +0.000 OA
ATOM     16  O   UNL     1       5.167   3.424  19.185  0.00  0.00    +0.000 OA
BRANCH  14  17
ATOM     17  C   UNL     1       5.880   4.367  16.880  0.00  0.00    +0.000 A 
ATOM     18  C   UNL     1       4.840   3.893  16.077  0.00  0.00    +0.000 A 
ATOM     19  C   UNL     1       5.056   3.709  14.704  0.00  0.00    +0.000 A 
ATOM     20  C   UNL     1       6.308   4.016  14.144  0.00  0.00    +0.000 A 
ATOM     21  C   UNL     1       7.349   4.500  14.949  0.00  0.00    +0.000 A 
ATOM     22  C   UNL     1       7.130   4.673  16.318  0.00  0.00    +0.000 A 
BRANCH  20  23
ATOM     23  N   UNL     1       6.529   3.836  12.705  0.00  0.00    +0.000 N 
ATOM     24  O   UNL     1       5.849   2.974  12.121  0.00  0.00    +0.000 OA
ATOM     25  O   UNL     1       7.377   4.551  12.155  0.00  0.00    +0.000 OA
ENDBRANCH  20  23
ENDBRANCH  14  17
ENDBRANCH   7  14
BRANCH   3  26
ATOM     26  C   UNL     1       2.891   8.894  17.221  0.00  0.00    +0.000 C 
BRANCH  26  27
ATOM     27  C   UNL     1       2.095   9.741  18.220  0.00  0.00    +0.000 C 
BRANCH  27  28
ATOM     28  O   UNL     1       2.041  11.098  17.787  0.00  0.00    +0.000 OA
ATOM     29  H   UNL     1       2.958  11.420  17.747  0.00  0.00    +0.000 HD
ENDBRANCH  27  28
ENDBRANCH  26  27
ENDBRANCH   3  26
TORSDOF 7
ENDMDL
MODEL 6
REMARK VINA RESULT:      -6.2      8.833     10.727
REMARK  Name = 
REMARK  8 active torsions:
REMARK  status: ('A' for Active; 'I' for Inactive)
REMARK    1  A    between atoms: C_1  and  C_2
REMARK    2  A    between atoms: C_3  and  C_4
REMARK    3  A    between atoms: C_4  and  C_5
REMARK    4  A    between atoms: C_5  and  O_6
REMARK    5  A    between atoms: N_9  and  C_10
REMARK    6  A    between atoms: N_16  and  S_17
REMARK    7  A    between atoms: S_17  and  C_20
REMARK    8  A    between atoms: C_23  and  N_24
REMARK                            x       y       z     vdW  Elec       q    Type
REMARK                         _______ _______ _______ _____ _____    ______ ____
ROOT
ATOM      1  C   UNL     1      -3.299  10.204  16.965  0.00  0.00    +0.000 C 
ATOM      2  C   UNL     1      -3.475  11.153  18.103  0.00  0.00    +0.000 A 
ATOM      3  C   UNL     1      -4.630  11.687  18.547  0.00  0.00    +0.000 A 
ATOM      4  C   UNL     1      -4.372  12.447  19.795  0.00  0.00    +0.000 A 
ATOM      5  O   UNL     1      -5.247  12.969  20.466  0.00  0.00    +0.000 OA
ATOM      6  N   UNL     1      -3.001  12.450  19.958  0.00  0.00    +0.000 N 
ATOM      7  N   UNL     1      -2.394  11.724  18.869  0.00  0.00    +0.000 N 
ENDROOT
BRANCH   6   8
ATOM      8  C   UNL     1      -2.327  13.111  20.988  0.00  0.00    +0.000 A 
ATOM      9  C   UNL     1      -2.075  12.446  22.194  0.00  0.00    +0.000 A 
ATOM     10  C   UNL     1      -1.306  13.065  23.181  0.00  0.00    +0.000 A 
ATOM     11  C   UNL     1      -0.838  14.365  22.986  0.00  0.00    +0.000 A 
ATOM     12  C   UNL     1      -1.138  15.050  21.808  0.00  0.00    +0.000 A 
ATOM     13  C   UNL     1      -1.870  14.418  20.803  0.00  0.00    +0.000 A 
ENDBRANCH   6   8
BRANCH   7  14
ATOM     14  S   UNL     1      -0.904  10.892  19.059  0.00  0.00    +0.000 S 
ATOM     15  O   UNL     1      -0.877  10.160  20.308  0.00  0.00    +0.000 OA
ATOM     16  O   UNL     1      -0.547  10.218  17.830  0.00  0.00    +0.000 OA
BRANCH  14  17
ATOM     17  C   UNL     1       0.316  12.189  19.275  0.00  0.00    +0.000 A 
ATOM     18  C   UNL     1       0.464  13.245  18.373  0.00  0.00    +0.000 A 
ATOM     19  C   UNL     1       1.428  14.232  18.619  0.00  0.00    +0.000 A 
ATOM     20  C   UNL     1       2.226  14.162  19.773  0.00  0.00    +0.000 A 
ATOM     21  C   UNL     1       2.070  13.106  20.683  0.00  0.00    +0.000 A 
ATOM     22  C   UNL     1       1.113  12.121  20.428  0.00  0.00    +0.000 A 
BRANCH  20  23
ATOM     23  N   UNL     1       3.225  15.203  20.037  0.00  0.00    +0.000 N 
ATOM     24  O   UNL     1       2.869  16.388  19.909  0.00  0.00    +0.000 OA
ATOM     25  O   UNL     1       4.362  14.845  20.371  0.00  0.00    +0.000 OA
ENDBRANCH  20  23
ENDBRANCH  14  17
ENDBRANCH   7  14
BRANCH   3  26
ATOM     26  C   UNL     1      -6.025  11.595  18.011  0.00  0.00    +0.000 C 
BRANCH  26  27
ATOM     27  C   UNL     1      -6.850  10.497  18.689  0.00  0.00    +0.000 C 
BRANCH  27  28
ATOM     28  O   UNL     1      -7.639  11.046  19.742  0.00  0.00    +0.000 OA
ATOM     29  H   UNL     1      -7.059  11.639  20.251  0.00  0.00    +0.000 HD
ENDBRANCH  27  28
ENDBRANCH  26  27
ENDBRANCH   3  26
TORSDOF 7
ENDMDL
MODEL 7
REMARK VINA RESULT:      -6.2      1.607      4.209
REMARK  Name = 
REMARK  8 active torsions:
REMARK  status: ('A' for Active; 'I' for Inactive)
REMARK    1  A    between atoms: C_1  and  C_2
REMARK    2  A    between atoms: C_3  and  C_4
REMARK    3  A    between atoms: C_4  and  C_5
REMARK    4  A    between atoms: C_5  and  O_6
REMARK    5  A    between atoms: N_9  and  C_10
REMARK    6  A    between atoms: N_16  and  S_17
REMARK    7  A    between atoms: S_17  and  C_20
REMARK    8  A    between atoms: C_23  and  N_24
REMARK                            x       y       z     vdW  Elec       q    Type
REMARK                         _______ _______ _______ _____ _____    ______ ____
ROOT
ATOM      1  C   UNL     1       4.702   2.803  18.932  0.00  0.00    +0.000 C 
ATOM      2  C   UNL     1       3.639   3.824  19.165  0.00  0.00    +0.000 A 
ATOM      3  C   UNL     1       2.464   3.647  19.802  0.00  0.00    +0.000 A 
ATOM      4  C   UNL     1       1.783   4.956  19.949  0.00  0.00    +0.000 A 
ATOM      5  O   UNL     1       0.740   5.115  20.561  0.00  0.00    +0.000 OA
ATOM      6  N   UNL     1       2.546   5.860  19.236  0.00  0.00    +0.000 N 
ATOM      7  N   UNL     1       3.672   5.172  18.653  0.00  0.00    +0.000 N 
ENDROOT
BRANCH   6   8
ATOM      8  C   UNL     1       2.223   7.210  19.067  0.00  0.00    +0.000 A 
ATOM      9  C   UNL     1       2.194   7.762  17.782  0.00  0.00    +0.000 A 
ATOM     10  C   UNL     1       1.765   9.078  17.601  0.00  0.00    +0.000 A 
ATOM     11  C   UNL     1       1.422   9.857  18.706  0.00  0.00    +0.000 A 
ATOM     12  C   UNL     1       1.507   9.324  19.993  0.00  0.00    +0.000 A 
ATOM     13  C   UNL     1       1.894   7.996  20.173  0.00  0.00    +0.000 A 
ENDBRANCH   6   8
BRANCH   7  14
ATOM     14  S   UNL     1       5.161   5.973  18.354  0.00  0.00    +0.000 S 
ATOM     15  O   UNL     1       4.958   7.398  18.193  0.00  0.00    +0.000 OA
ATOM     16  O   UNL     1       6.177   5.497  19.267  0.00  0.00    +0.000 OA
BRANCH  14  17
ATOM     17  C   UNL     1       5.664   5.407  16.729  0.00  0.00    +0.000 A 
ATOM     18  C   UNL     1       6.991   5.435  16.296  0.00  0.00    +0.000 A 
ATOM     19  C   UNL     1       7.311   4.957  15.017  0.00  0.00    +0.000 A 
ATOM     20  C   UNL     1       6.300   4.440  14.189  0.00  0.00    +0.000 A 
ATOM     21  C   UNL     1       4.969   4.403  14.628  0.00  0.00    +0.000 A 
ATOM     22  C   UNL     1       4.656   4.889  15.900  0.00  0.00    +0.000 A 
BRANCH  20  23
ATOM     23  N   UNL     1       6.637   3.927  12.857  0.00  0.00    +0.000 N 
ATOM     24  O   UNL     1       7.529   4.517  12.221  0.00  0.00    +0.000 OA
ATOM     25  O   UNL     1       6.018   2.939  12.442  0.00  0.00    +0.000 OA
ENDBRANCH  20  23
ENDBRANCH  14  17
ENDBRANCH   7  14
BRANCH   3  26
ATOM     26  C   UNL     1       1.828   2.414  20.362  0.00  0.00    +0.000 C 
BRANCH  26  27
ATOM     27  C   UNL     1       1.192   1.531  19.282  0.00  0.00    +0.000 C 
BRANCH  27  28
ATOM     28  O   UNL     1       0.203   2.262  18.562  0.00  0.00    +0.000 OA
ATOM     29  H   UNL     1      -0.158   2.928  19.173  0.00  0.00    +0.000 HD
ENDBRANCH  27  28
ENDBRANCH  26  27
ENDBRANCH   3  26
TORSDOF 7
ENDMDL
MODEL 8
REMARK VINA RESULT:      -6.1      8.701     10.640
REMARK  Name = 
REMARK  8 active torsions:
REMARK  status: ('A' for Active; 'I' for Inactive)
REMARK    1  A    between atoms: C_1  and  C_2
REMARK    2  A    between atoms: C_3  and  C_4
REMARK    3  A    between atoms: C_4  and  C_5
REMARK    4  A    between atoms: C_5  and  O_6
REMARK    5  A    between atoms: N_9  and  C_10
REMARK    6  A    between atoms: N_16  and  S_17
REMARK    7  A    between atoms: S_17  and  C_20
REMARK    8  A    between atoms: C_23  and  N_24
REMARK                            x       y       z     vdW  Elec       q    Type
REMARK                         _______ _______ _______ _____ _____    ______ ____
ROOT
ATOM      1  C   UNL     1      -2.973  10.004  16.991  0.00  0.00    +0.000 C 
ATOM      2  C   UNL     1      -3.205  10.996  18.081  0.00  0.00    +0.000 A 
ATOM      3  C   UNL     1      -4.382  11.533  18.457  0.00  0.00    +0.000 A 
ATOM      4  C   UNL     1      -4.182  12.349  19.680  0.00  0.00    +0.000 A 
ATOM      5  O   UNL     1      -5.088  12.886  20.295  0.00  0.00    +0.000 OA
ATOM      6  N   UNL     1      -2.819  12.377  19.896  0.00  0.00    +0.000 N 
ATOM      7  N   UNL     1      -2.161  11.614  18.863  0.00  0.00    +0.000 N 
ENDROOT
BRANCH   6   8
ATOM      8  C   UNL     1      -2.193  13.089  20.922  0.00  0.00    +0.000 A 
ATOM      9  C   UNL     1      -1.776  14.407  20.701  0.00  0.00    +0.000 A 
ATOM     10  C   UNL     1      -1.253  15.156  21.756  0.00  0.00    +0.000 A 
ATOM     11  C   UNL     1      -1.094  14.574  23.013  0.00  0.00    +0.000 A 
ATOM     12  C   UNL     1      -1.455  13.242  23.219  0.00  0.00    +0.000 A 
ATOM     13  C   UNL     1      -2.018  12.503  22.178  0.00  0.00    +0.000 A 
ENDBRANCH   6   8
BRANCH   7  14
ATOM     14  S   UNL     1      -0.669  10.812  19.146  0.00  0.00    +0.000 S 
ATOM     15  O   UNL     1      -0.707  10.076  20.392  0.00  0.00    +0.000 OA
ATOM     16  O   UNL     1      -0.221  10.149  17.940  0.00  0.00    +0.000 OA
BRANCH  14  17
ATOM     17  C   UNL     1       0.508  12.131  19.441  0.00  0.00    +0.000 A 
ATOM     18  C   UNL     1       1.292  12.201  20.595  0.00  0.00    +0.000 A 
ATOM     19  C   UNL     1       2.205  13.254  20.747  0.00  0.00    +0.000 A 
ATOM     20  C   UNL     1       2.337  14.220  19.734  0.00  0.00    +0.000 A 
ATOM     21  C   UNL     1       1.556  14.144  18.572  0.00  0.00    +0.000 A 
ATOM     22  C   UNL     1       0.642  13.097  18.430  0.00  0.00    +0.000 A 
BRANCH  20  23
ATOM     23  N   UNL     1       3.302  15.313  19.888  0.00  0.00    +0.000 N 
ATOM     24  O   UNL     1       3.348  16.171  18.988  0.00  0.00    +0.000 OA
ATOM     25  O   UNL     1       4.013  15.322  20.902  0.00  0.00    +0.000 OA
ENDBRANCH  20  23
ENDBRANCH  14  17
ENDBRANCH   7  14
BRANCH   3  26
ATOM     26  C   UNL     1      -5.754  11.400  17.872  0.00  0.00    +0.000 C 
BRANCH  26  27
ATOM     27  C   UNL     1      -6.655  10.459  18.680  0.00  0.00    +0.000 C 
BRANCH  27  28
ATOM     28  O   UNL     1      -7.595  11.207  19.445  0.00  0.00    +0.000 OA
ATOM     29  H   UNL     1      -7.083  11.774  20.048  0.00  0.00    +0.000 HD
ENDBRANCH  27  28
ENDBRANCH  26  27
ENDBRANCH   3  26
TORSDOF 7
ENDMDL
MODEL 9
REMARK VINA RESULT:      -6.1      9.214     11.586
REMARK  Name = 
REMARK  8 active torsions:
REMARK  status: ('A' for Active; 'I' for Inactive)
REMARK    1  A    between atoms: C_1  and  C_2
REMARK    2  A    between atoms: C_3  and  C_4
REMARK    3  A    between atoms: C_4  and  C_5
REMARK    4  A    between atoms: C_5  and  O_6
REMARK    5  A    between atoms: N_9  and  C_10
REMARK    6  A    between atoms: N_16  and  S_17
REMARK    7  A    between atoms: S_17  and  C_20
REMARK    8  A    between atoms: C_23  and  N_24
REMARK                            x       y       z     vdW  Elec       q    Type
REMARK                         _______ _______ _______ _____ _____    ______ ____
ROOT
ATOM      1  C   UNL     1       6.072  15.377  22.208  0.00  0.00    +0.000 C 
ATOM      2  C   UNL     1       6.708  14.973  20.919  0.00  0.00    +0.000 A 
ATOM      3  C   UNL     1       6.310  15.306  19.675  0.00  0.00    +0.000 A 
ATOM      4  C   UNL     1       7.314  14.826  18.694  0.00  0.00    +0.000 A 
ATOM      5  O   UNL     1       7.260  15.058  17.498  0.00  0.00    +0.000 OA
ATOM      6  N   UNL     1       8.220  14.077  19.417  0.00  0.00    +0.000 N 
ATOM      7  N   UNL     1       7.826  14.069  20.805  0.00  0.00    +0.000 N 
ENDROOT
BRANCH   6   8
ATOM      8  C   UNL     1       9.304  13.391  18.862  0.00  0.00    +0.000 A 
ATOM      9  C   UNL     1       9.193  12.024  18.584  0.00  0.00    +0.000 A 
ATOM     10  C   UNL     1      10.233  11.362  17.928  0.00  0.00    +0.000 A 
ATOM     11  C   UNL     1      11.401  12.051  17.603  0.00  0.00    +0.000 A 
ATOM     12  C   UNL     1      11.535  13.400  17.932  0.00  0.00    +0.000 A 
ATOM     13  C   UNL     1      10.481  14.074  18.549  0.00  0.00    +0.000 A 
ENDBRANCH   6   8
BRANCH   7  14
ATOM     14  S   UNL     1       8.979  13.917  22.069  0.00  0.00    +0.000 S 
ATOM     15  O   UNL     1      10.036  13.000  21.695  0.00  0.00    +0.000 OA
ATOM     16  O   UNL     1       9.318  15.220  22.596  0.00  0.00    +0.000 OA
BRANCH  14  17
ATOM     17  C   UNL     1       8.101  13.074  23.386  0.00  0.00    +0.000 A 
ATOM     18  C   UNL     1       8.314  13.356  24.737  0.00  0.00    +0.000 A 
ATOM     19  C   UNL     1       7.575  12.669  25.710  0.00  0.00    +0.000 A 
ATOM     20  C   UNL     1       6.619  11.715  25.321  0.00  0.00    +0.000 A 
ATOM     21  C   UNL     1       6.400  11.439  23.964  0.00  0.00    +0.000 A 
ATOM     22  C   UNL     1       7.145  12.121  22.999  0.00  0.00    +0.000 A 
BRANCH  20  23
ATOM     23  N   UNL     1       5.837  11.006  26.339  0.00  0.00    +0.000 N 
ATOM     24  O   UNL     1       4.657  10.721  26.065  0.00  0.00    +0.000 OA
ATOM     25  O   UNL     1       6.394  10.729  27.410  0.00  0.00    +0.000 OA
ENDBRANCH  20  23
ENDBRANCH  14  17
ENDBRANCH   7  14
BRANCH   3  26
ATOM     26  C   UNL     1       5.108  16.060  19.197  0.00  0.00    +0.000 C 
BRANCH  26  27
ATOM     27  C   UNL     1       4.013  15.141  18.643  0.00  0.00    +0.000 C 
BRANCH  27  28
ATOM     28  O   UNL     1       4.098  15.067  17.222  0.00  0.00    +0.000 OA
ATOM     29  H   UNL     1       3.207  15.245  16.875  0.00  0.00    +0.000 HD
ENDBRANCH  27  28
ENDBRANCH  26  27
ENDBRANCH   3  26
TORSDOF 7
ENDMDL
