MODEL 1
REMARK VINA RESULT:      -8.6      0.000      0.000
REMARK  Name = 
REMARK  8 active torsions:
REMARK  status: ('A' for Active; 'I' for Inactive)
REMARK    1  A    between atoms: C_1  and  C_2
REMARK    2  A    between atoms: C_4  and  C_5
REMARK    3  A    between atoms: C_10  and  C_11
REMARK    4  A    between atoms: C_11  and  C_12
REMARK    5  A    between atoms: C_12  and  N_13
REMARK    6  A    between atoms: N_13  and  C_14
REMARK    7  A    between atoms: C_14  and  C_15
REMARK    8  A    between atoms: C_16  and  C_17
REMARK                            x       y       z     vdW  Elec       q    Type
REMARK                         _______ _______ _______ _____ _____    ______ ____
ROOT
ATOM      1  C   UNL     1       2.866   6.279  17.907  0.00  0.00    +0.000 C 
ENDROOT
BRANCH   1   2
ATOM      2  C   UNL     1       3.439   5.151  18.674  0.00  0.00    +0.000 A 
ATOM      3  C   UNL     1       4.760   4.729  18.800  0.00  0.00    +0.000 A 
ATOM      4  N   UNL     1       4.844   3.685  19.706  0.00  0.00    +0.000 NA
ATOM      5  C   UNL     1       3.612   3.452  20.094  0.00  0.00    +0.000 A 
ATOM      6  C   UNL     1       3.089   2.479  20.990  0.00  0.00    +0.000 A 
ATOM      7  C   UNL     1       1.771   2.457  21.261  0.00  0.00    +0.000 A 
ATOM      8  C   UNL     1       0.857   3.414  20.659  0.00  0.00    +0.000 A 
ATOM      9  C   UNL     1       1.341   4.320  19.793  0.00  0.00    +0.000 A 
ATOM     10  N   UNL     1       2.708   4.334  19.506  0.00  0.00    +0.000 N 
BRANCH   3  11
ATOM     11  C   UNL     1       5.922   5.270  18.078  0.00  0.00    +0.000 C 
ATOM     12  O   UNL     1       6.799   5.908  18.668  0.00  0.00    +0.000 OA
ATOM     13  N   UNL     1       5.988   5.023  16.715  0.00  0.00    +0.000 N 
ATOM     14  C   UNL     1       5.197   4.065  15.966  0.00  0.00    +0.000 C 
ATOM     15  C   UNL     1       6.130   3.653  14.839  0.00  0.00    +0.000 C 
ATOM     16  C   UNL     1       6.887   4.939  14.524  0.00  0.00    +0.000 C 
ATOM     17  C   UNL     1       6.960   5.676  15.860  0.00  0.00    +0.000 C 
ENDBRANCH   3  11
ENDBRANCH   1   2
BRANCH   1  18
ATOM     18  N   UNL     1       2.665   7.439  18.769  0.00  0.00    +0.000 NA
ATOM     19  H   UNL     1       1.780   7.308  19.272  0.00  0.00    +0.000 HD
BRANCH  18  20
ATOM     20  C   UNL     1       2.580   8.684  17.983  0.00  0.00    +0.000 C 
BRANCH  20  21
ATOM     21  C   UNL     1       1.158   9.244  17.872  0.00  0.00    +0.000 C 
BRANCH  21  27
ATOM     22  C   UNL     1       0.818  13.690  19.734  0.00  0.00    +0.000 C 
ATOM     23  C   UNL     1       0.665  12.217  19.944  0.00  0.00    +0.000 A 
ATOM     24  C   UNL     1       0.338  11.687  21.177  0.00  0.00    +0.000 A 
ATOM     25  C   UNL     1       0.240  10.308  21.261  0.00  0.00    +0.000 A 
ATOM     26  N   UNL     1       0.461   9.512  20.187  0.00  0.00    +0.000 NA
ATOM     27  C   UNL     1       0.804  10.116  19.036  0.00  0.00    +0.000 A 
ATOM     28  N   UNL     1       0.895  11.442  18.872  0.00  0.00    +0.000 NA
BRANCH  25  29
ATOM     29  C   UNL     1      -0.103   9.645  22.589  0.00  0.00    +0.000 C 
ATOM     30  F   UNL     1       0.999   9.241  23.289  0.00  0.00    +0.000 F 
ATOM     31  F   UNL     1      -0.788  10.466  23.434  0.00  0.00    +0.000 F 
ATOM     32  F   UNL     1      -0.869   8.525  22.446  0.00  0.00    +0.000 F 
ENDBRANCH  25  29
ENDBRANCH  21  27
ENDBRANCH  20  21
ENDBRANCH  18  20
ENDBRANCH   1  18
TORSDOF 7
ENDMDL
MODEL 2
REMARK VINA RESULT:      -8.6      1.440      4.359
REMARK  Name = 
REMARK  8 active torsions:
REMARK  status: ('A' for Active; 'I' for Inactive)
REMARK    1  A    between atoms: C_1  and  C_2
REMARK    2  A    between atoms: C_4  and  C_5
REMARK    3  A    between atoms: C_10  and  C_11
REMARK    4  A    between atoms: C_11  and  C_12
REMARK    5  A    between atoms: C_12  and  N_13
REMARK    6  A    between atoms: N_13  and  C_14
REMARK    7  A    between atoms: C_14  and  C_15
REMARK    8  A    between atoms: C_16  and  C_17
REMARK                            x       y       z     vdW  Elec       q    Type
REMARK                         _______ _______ _______ _____ _____    ______ ____
ROOT
ATOM      1  C   UNL     1       3.635   6.468  19.000  0.00  0.00    +0.000 C 
ENDROOT
BRANCH   1   2
ATOM      2  C   UNL     1       3.950   5.377  18.050  0.00  0.00    +0.000 A 
ATOM      3  C   UNL     1       3.216   4.246  17.705  0.00  0.00    +0.000 A 
ATOM      4  N   UNL     1       3.856   3.552  16.692  0.00  0.00    +0.000 NA
ATOM      5  C   UNL     1       4.962   4.216  16.450  0.00  0.00    +0.000 A 
ATOM      6  C   UNL     1       6.019   3.957  15.535  0.00  0.00    +0.000 A 
ATOM      7  C   UNL     1       7.050   4.816  15.442  0.00  0.00    +0.000 A 
ATOM      8  C   UNL     1       7.112   6.018  16.257  0.00  0.00    +0.000 A 
ATOM      9  C   UNL     1       6.128   6.256  17.140  0.00  0.00    +0.000 A 
ATOM     10  N   UNL     1       5.064   5.357  17.242  0.00  0.00    +0.000 N 
BRANCH   3  11
ATOM     11  C   UNL     1       1.954   3.803  18.319  0.00  0.00    +0.000 C 
ATOM     12  O   UNL     1       0.920   3.709  17.652  0.00  0.00    +0.000 OA
ATOM     13  N   UNL     1       1.984   3.491  19.669  0.00  0.00    +0.000 N 
ATOM     14  C   UNL     1       3.166   3.282  20.487  0.00  0.00    +0.000 C 
ATOM     15  C   UNL     1       2.694   2.274  21.522  0.00  0.00    +0.000 C 
ATOM     16  C   UNL     1       1.245   2.677  21.769  0.00  0.00    +0.000 C 
ATOM     17  C   UNL     1       0.776   3.251  20.433  0.00  0.00    +0.000 C 
ENDBRANCH   3  11
ENDBRANCH   1   2
BRANCH   1  18
ATOM     18  N   UNL     1       2.385   7.126  18.634  0.00  0.00    +0.000 NA
ATOM     19  H   UNL     1       1.873   6.500  18.004  0.00  0.00    +0.000 HD
BRANCH  18  20
ATOM     20  C   UNL     1       2.634   8.400  17.934  0.00  0.00    +0.000 C 
BRANCH  20  21
ATOM     21  C   UNL     1       1.369   9.234  17.708  0.00  0.00    +0.000 C 
BRANCH  21  27
ATOM     22  C   UNL     1       1.303  13.569  19.841  0.00  0.00    +0.000 C 
ATOM     23  C   UNL     1       1.009  12.106  19.943  0.00  0.00    +0.000 A 
ATOM     24  C   UNL     1       0.557  11.533  21.116  0.00  0.00    +0.000 A 
ATOM     25  C   UNL     1       0.333  10.166  21.101  0.00  0.00    +0.000 A 
ATOM     26  N   UNL     1       0.552   9.422  19.991  0.00  0.00    +0.000 NA
ATOM     27  C   UNL     1       1.020  10.061  18.905  0.00  0.00    +0.000 A 
ATOM     28  N   UNL     1       1.238  11.381  18.837  0.00  0.00    +0.000 NA
BRANCH  25  29
ATOM     29  C   UNL     1      -0.151   9.458  22.359  0.00  0.00    +0.000 C 
ATOM     30  F   UNL     1      -0.854   8.316  22.097  0.00  0.00    +0.000 F 
ATOM     31  F   UNL     1       0.866   9.076  23.183  0.00  0.00    +0.000 F 
ATOM     32  F   UNL     1      -0.984  10.226  23.119  0.00  0.00    +0.000 F 
ENDBRANCH  25  29
ENDBRANCH  21  27
ENDBRANCH  20  21
ENDBRANCH  18  20
ENDBRANCH   1  18
TORSDOF 7
ENDMDL
MODEL 3
REMARK VINA RESULT:      -8.5      1.740      4.256
REMARK  Name = 
REMARK  8 active torsions:
REMARK  status: ('A' for Active; 'I' for Inactive)
REMARK    1  A    between atoms: C_1  and  C_2
REMARK    2  A    between atoms: C_4  and  C_5
REMARK    3  A    between atoms: C_10  and  C_11
REMARK    4  A    between atoms: C_11  and  C_12
REMARK    5  A    between atoms: C_12  and  N_13
REMARK    6  A    between atoms: N_13  and  C_14
REMARK    7  A    between atoms: C_14  and  C_15
REMARK    8  A    between atoms: C_16  and  C_17
REMARK                            x       y       z     vdW  Elec       q    Type
REMARK                         _______ _______ _______ _____ _____    ______ ____
ROOT
ATOM      1  C   UNL     1       3.492   5.828  16.998  0.00  0.00    +0.000 C 
ENDROOT
BRANCH   1   2
ATOM      2  C   UNL     1       4.633   5.364  17.819  0.00  0.00    +0.000 A 
ATOM      3  C   UNL     1       4.819   4.167  18.504  0.00  0.00    +0.000 A 
ATOM      4  N   UNL     1       6.089   4.124  19.055  0.00  0.00    +0.000 NA
ATOM      5  C   UNL     1       6.648   5.271  18.748  0.00  0.00    +0.000 A 
ATOM      6  C   UNL     1       7.931   5.794  19.070  0.00  0.00    +0.000 A 
ATOM      7  C   UNL     1       8.298   7.002  18.603  0.00  0.00    +0.000 A 
ATOM      8  C   UNL     1       7.411   7.794  17.767  0.00  0.00    +0.000 A 
ATOM      9  C   UNL     1       6.189   7.316  17.479  0.00  0.00    +0.000 A 
ATOM     10  N   UNL     1       5.807   6.066  17.973  0.00  0.00    +0.000 N 
BRANCH   3  11
ATOM     11  C   UNL     1       3.829   3.090  18.665  0.00  0.00    +0.000 C 
ATOM     12  O   UNL     1       3.851   2.091  17.939  0.00  0.00    +0.000 OA
ATOM     13  N   UNL     1       2.885   3.245  19.669  0.00  0.00    +0.000 N 
ATOM     14  C   UNL     1       2.922   4.206  20.756  0.00  0.00    +0.000 C 
ATOM     15  C   UNL     1       2.199   3.482  21.879  0.00  0.00    +0.000 C 
ATOM     16  C   UNL     1       1.119   2.691  21.149  0.00  0.00    +0.000 C 
ATOM     17  C   UNL     1       1.738   2.368  19.790  0.00  0.00    +0.000 C 
ENDBRANCH   3  11
ENDBRANCH   1   2
BRANCH   1  18
ATOM     18  N   UNL     1       2.330   6.100  17.838  0.00  0.00    +0.000 NA
ATOM     19  H   UNL     1       1.528   6.267  17.221  0.00  0.00    +0.000 HD
BRANCH  18  20
ATOM     20  C   UNL     1       2.540   7.298  18.672  0.00  0.00    +0.000 C 
BRANCH  20  21
ATOM     21  C   UNL     1       2.194   8.610  17.960  0.00  0.00    +0.000 C 
BRANCH  21  27
ATOM     22  C   UNL     1       0.571  13.083  18.800  0.00  0.00    +0.000 C 
ATOM     23  C   UNL     1       0.675  11.667  19.271  0.00  0.00    +0.000 A 
ATOM     24  C   UNL     1       0.199  11.274  20.506  0.00  0.00    +0.000 A 
ATOM     25  C   UNL     1       0.364   9.941  20.847  0.00  0.00    +0.000 A 
ATOM     26  N   UNL     1       0.969   9.063  20.011  0.00  0.00    +0.000 NA
ATOM     27  C   UNL     1       1.427   9.544  18.843  0.00  0.00    +0.000 A 
ATOM     28  N   UNL     1       1.284  10.812  18.435  0.00  0.00    +0.000 NA
BRANCH  25  29
ATOM     29  C   UNL     1      -0.121   9.432  22.198  0.00  0.00    +0.000 C 
ATOM     30  F   UNL     1      -0.810   8.255  22.114  0.00  0.00    +0.000 F 
ATOM     31  F   UNL     1       0.894   9.195  23.076  0.00  0.00    +0.000 F 
ATOM     32  F   UNL     1      -0.967  10.300  22.824  0.00  0.00    +0.000 F 
ENDBRANCH  25  29
ENDBRANCH  21  27
ENDBRANCH  20  21
ENDBRANCH  18  20
ENDBRANCH   1  18
TORSDOF 7
ENDMDL
MODEL 4
REMARK VINA RESULT:      -8.4      2.772      5.138
REMARK  Name = 
REMARK  8 active torsions:
REMARK  status: ('A' for Active; 'I' for Inactive)
REMARK    1  A    between atoms: C_1  and  C_2
REMARK    2  A    between atoms: C_4  and  C_5
REMARK    3  A    between atoms: C_10  and  C_11
REMARK    4  A    between atoms: C_11  and  C_12
REMARK    5  A    between atoms: C_12  and  N_13
REMARK    6  A    between atoms: N_13  and  C_14
REMARK    7  A    between atoms: C_14  and  C_15
REMARK    8  A    between atoms: C_16  and  C_17
REMARK                            x       y       z     vdW  Elec       q    Type
REMARK                         _______ _______ _______ _____ _____    ______ ____
ROOT
ATOM      1  C   UNL     1       3.500   6.854  18.580  0.00  0.00    +0.000 C 
ENDROOT
BRANCH   1   2
ATOM      2  C   UNL     1       3.928   5.654  17.826  0.00  0.00    +0.000 A 
ATOM      3  C   UNL     1       3.270   4.446  17.611  0.00  0.00    +0.000 A 
ATOM      4  N   UNL     1       4.009   3.645  16.756  0.00  0.00    +0.000 NA
ATOM      5  C   UNL     1       5.099   4.324  16.487  0.00  0.00    +0.000 A 
ATOM      6  C   UNL     1       6.228   3.990  15.689  0.00  0.00    +0.000 A 
ATOM      7  C   UNL     1       7.225   4.881  15.532  0.00  0.00    +0.000 A 
ATOM      8  C   UNL     1       7.177   6.191  16.159  0.00  0.00    +0.000 A 
ATOM      9  C   UNL     1       6.124   6.504  16.933  0.00  0.00    +0.000 A 
ATOM     10  N   UNL     1       5.096   5.574  17.102  0.00  0.00    +0.000 N 
BRANCH   3  11
ATOM     11  C   UNL     1       1.989   4.032  18.204  0.00  0.00    +0.000 C 
ATOM     12  O   UNL     1       0.957   3.991  17.527  0.00  0.00    +0.000 OA
ATOM     13  N   UNL     1       1.998   3.683  19.546  0.00  0.00    +0.000 N 
ATOM     14  C   UNL     1       3.165   3.413  20.366  0.00  0.00    +0.000 C 
ATOM     15  C   UNL     1       2.651   2.395  21.371  0.00  0.00    +0.000 C 
ATOM     16  C   UNL     1       1.214   2.842  21.618  0.00  0.00    +0.000 C 
ATOM     17  C   UNL     1       0.776   3.466  20.295  0.00  0.00    +0.000 C 
ENDBRANCH   3  11
ENDBRANCH   1   2
BRANCH   1  18
ATOM     18  N   UNL     1       3.109   7.923  17.667  0.00  0.00    +0.000 NA
ATOM     19  H   UNL     1       3.694   8.741  17.872  0.00  0.00    +0.000 HD
BRANCH  18  20
ATOM     20  C   UNL     1       1.695   8.297  17.852  0.00  0.00    +0.000 C 
BRANCH  20  21
ATOM     21  C   UNL     1       1.485   9.414  18.880  0.00  0.00    +0.000 C 
BRANCH  21  27
ATOM     22  C   UNL     1      -0.359  13.881  18.891  0.00  0.00    +0.000 C 
ATOM     23  C   UNL     1      -0.530  12.444  18.512  0.00  0.00    +0.000 A 
ATOM     24  C   UNL     1      -1.699  11.974  17.946  0.00  0.00    +0.000 A 
ATOM     25  C   UNL     1      -1.753  10.622  17.650  0.00  0.00    +0.000 A 
ATOM     26  N   UNL     1      -0.712   9.795  17.909  0.00  0.00    +0.000 NA
ATOM     27  C   UNL     1       0.373  10.336  18.489  0.00  0.00    +0.000 A 
ATOM     28  N   UNL     1       0.508  11.637  18.782  0.00  0.00    +0.000 NA
BRANCH  25  29
ATOM     29  C   UNL     1      -3.013  10.024  17.038  0.00  0.00    +0.000 C 
ATOM     30  F   UNL     1      -3.987  10.950  16.797  0.00  0.00    +0.000 F 
ATOM     31  F   UNL     1      -2.788   9.415  15.839  0.00  0.00    +0.000 F 
ATOM     32  F   UNL     1      -3.599   9.083  17.834  0.00  0.00    +0.000 F 
ENDBRANCH  25  29
ENDBRANCH  21  27
ENDBRANCH  20  21
ENDBRANCH  18  20
ENDBRANCH   1  18
TORSDOF 7
ENDMDL
MODEL 5
REMARK VINA RESULT:      -8.4      1.726      4.470
REMARK  Name = 
REMARK  8 active torsions:
REMARK  status: ('A' for Active; 'I' for Inactive)
REMARK    1  A    between atoms: C_1  and  C_2
REMARK    2  A    between atoms: C_4  and  C_5
REMARK    3  A    between atoms: C_10  and  C_11
REMARK    4  A    between atoms: C_11  and  C_12
REMARK    5  A    between atoms: C_12  and  N_13
REMARK    6  A    between atoms: N_13  and  C_14
REMARK    7  A    between atoms: C_14  and  C_15
REMARK    8  A    between atoms: C_16  and  C_17
REMARK                            x       y       z     vdW  Elec       q    Type
REMARK                         _______ _______ _______ _____ _____    ______ ____
ROOT
ATOM      1  C   UNL     1       3.697   6.435  19.077  0.00  0.00    +0.000 C 
ENDROOT
BRANCH   1   2
ATOM      2  C   UNL     1       3.980   5.358  18.101  0.00  0.00    +0.000 A 
ATOM      3  C   UNL     1       3.222   4.247  17.745  0.00  0.00    +0.000 A 
ATOM      4  N   UNL     1       3.835   3.562  16.709  0.00  0.00    +0.000 NA
ATOM      5  C   UNL     1       4.948   4.212  16.464  0.00  0.00    +0.000 A 
ATOM      6  C   UNL     1       5.988   3.953  15.528  0.00  0.00    +0.000 A 
ATOM      7  C   UNL     1       7.032   4.797  15.437  0.00  0.00    +0.000 A 
ATOM      8  C   UNL     1       7.126   5.981  16.274  0.00  0.00    +0.000 A 
ATOM      9  C   UNL     1       6.159   6.218  17.177  0.00  0.00    +0.000 A 
ATOM     10  N   UNL     1       5.082   5.335  17.276  0.00  0.00    +0.000 N 
BRANCH   3  11
ATOM     11  C   UNL     1       1.961   3.813  18.368  0.00  0.00    +0.000 C 
ATOM     12  O   UNL     1       0.916   3.750  17.714  0.00  0.00    +0.000 OA
ATOM     13  N   UNL     1       2.005   3.473  19.711  0.00  0.00    +0.000 N 
ATOM     14  C   UNL     1       3.194   3.229  20.507  0.00  0.00    +0.000 C 
ATOM     15  C   UNL     1       2.721   2.208  21.529  0.00  0.00    +0.000 C 
ATOM     16  C   UNL     1       1.282   2.631  21.805  0.00  0.00    +0.000 C 
ATOM     17  C   UNL     1       0.804   3.239  20.488  0.00  0.00    +0.000 C 
ENDBRANCH   3  11
ENDBRANCH   1   2
BRANCH   1  18
ATOM     18  N   UNL     1       2.394   7.038  18.817  0.00  0.00    +0.000 NA
ATOM     19  H   UNL     1       1.723   6.279  18.654  0.00  0.00    +0.000 HD
BRANCH  18  20
ATOM     20  C   UNL     1       2.430   7.900  17.621  0.00  0.00    +0.000 C 
BRANCH  20  21
ATOM     21  C   UNL     1       2.316   9.394  17.938  0.00  0.00    +0.000 C 
BRANCH  21  27
ATOM     22  C   UNL     1      -2.065  11.425  18.111  0.00  0.00    +0.000 C 
ATOM     23  C   UNL     1      -0.982  10.694  18.839  0.00  0.00    +0.000 A 
ATOM     24  C   UNL     1      -1.059  10.435  20.193  0.00  0.00    +0.000 A 
ATOM     25  C   UNL     1       0.010   9.766  20.766  0.00  0.00    +0.000 A 
ATOM     26  N   UNL     1       1.086   9.387  20.036  0.00  0.00    +0.000 NA
ATOM     27  C   UNL     1       1.087   9.709  18.731  0.00  0.00    +0.000 A 
ATOM     28  N   UNL     1       0.081  10.333  18.102  0.00  0.00    +0.000 NA
BRANCH  25  29
ATOM     29  C   UNL     1       0.006   9.456  22.257  0.00  0.00    +0.000 C 
ATOM     30  F   UNL     1      -0.217  10.556  23.036  0.00  0.00    +0.000 F 
ATOM     31  F   UNL     1      -0.956   8.559  22.615  0.00  0.00    +0.000 F 
ATOM     32  F   UNL     1       1.189   8.937  22.698  0.00  0.00    +0.000 F 
ENDBRANCH  25  29
ENDBRANCH  21  27
ENDBRANCH  20  21
ENDBRANCH  18  20
ENDBRANCH   1  18
TORSDOF 7
ENDMDL
MODEL 6
REMARK VINA RESULT:      -8.3      2.399      2.823
REMARK  Name = 
REMARK  8 active torsions:
REMARK  status: ('A' for Active; 'I' for Inactive)
REMARK    1  A    between atoms: C_1  and  C_2
REMARK    2  A    between atoms: C_4  and  C_5
REMARK    3  A    between atoms: C_10  and  C_11
REMARK    4  A    between atoms: C_11  and  C_12
REMARK    5  A    between atoms: C_12  and  N_13
REMARK    6  A    between atoms: N_13  and  C_14
REMARK    7  A    between atoms: C_14  and  C_15
REMARK    8  A    between atoms: C_16  and  C_17
REMARK                            x       y       z     vdW  Elec       q    Type
REMARK                         _______ _______ _______ _____ _____    ______ ____
ROOT
ATOM      1  C   UNL     1       4.055   6.651  18.870  0.00  0.00    +0.000 C 
ENDROOT
BRANCH   1   2
ATOM      2  C   UNL     1       4.118   5.186  19.074  0.00  0.00    +0.000 A 
ATOM      3  C   UNL     1       5.124   4.277  18.760  0.00  0.00    +0.000 A 
ATOM      4  N   UNL     1       4.793   3.017  19.228  0.00  0.00    +0.000 NA
ATOM      5  C   UNL     1       3.608   3.142  19.778  0.00  0.00    +0.000 A 
ATOM      6  C   UNL     1       2.764   2.178  20.393  0.00  0.00    +0.000 A 
ATOM      7  C   UNL     1       1.587   2.559  20.925  0.00  0.00    +0.000 A 
ATOM      8  C   UNL     1       1.153   3.946  20.890  0.00  0.00    +0.000 A 
ATOM      9  C   UNL     1       1.935   4.857  20.289  0.00  0.00    +0.000 A 
ATOM     10  N   UNL     1       3.151   4.457  19.729  0.00  0.00    +0.000 N 
BRANCH   3  11
ATOM     11  C   UNL     1       6.363   4.567  18.020  0.00  0.00    +0.000 C 
ATOM     12  O   UNL     1       7.438   4.711  18.609  0.00  0.00    +0.000 OA
ATOM     13  N   UNL     1       6.266   4.661  16.640  0.00  0.00    +0.000 N 
ATOM     14  C   UNL     1       5.149   4.236  15.817  0.00  0.00    +0.000 C 
ATOM     15  C   UNL     1       5.816   3.834  14.512  0.00  0.00    +0.000 C 
ATOM     16  C   UNL     1       6.960   4.835  14.381  0.00  0.00    +0.000 C 
ATOM     17  C   UNL     1       7.358   5.148  15.822  0.00  0.00    +0.000 C 
ENDBRANCH   3  11
ENDBRANCH   1   2
BRANCH   1  18
ATOM     18  N   UNL     1       2.906   7.008  18.045  0.00  0.00    +0.000 NA
ATOM     19  H   UNL     1       3.259   7.414  17.172  0.00  0.00    +0.000 HD
BRANCH  18  20
ATOM     20  C   UNL     1       2.051   8.003  18.717  0.00  0.00    +0.000 C 
BRANCH  20  21
ATOM     21  C   UNL     1       1.769   9.245  17.865  0.00  0.00    +0.000 C 
BRANCH  21  27
ATOM     22  C   UNL     1      -0.361  11.942  21.262  0.00  0.00    +0.000 C 
ATOM     23  C   UNL     1      -0.481  11.239  19.947  0.00  0.00    +0.000 A 
ATOM     24  C   UNL     1      -1.680  11.170  19.264  0.00  0.00    +0.000 A 
ATOM     25  C   UNL     1      -1.680  10.478  18.064  0.00  0.00    +0.000 A 
ATOM     26  N   UNL     1      -0.559   9.890  17.583  0.00  0.00    +0.000 NA
ATOM     27  C   UNL     1       0.554   9.983  18.331  0.00  0.00    +0.000 A 
ATOM     28  N   UNL     1       0.636  10.654  19.488  0.00  0.00    +0.000 NA
BRANCH  25  29
ATOM     29  C   UNL     1      -2.965  10.345  17.258  0.00  0.00    +0.000 C 
ATOM     30  F   UNL     1      -3.301  11.487  16.587  0.00  0.00    +0.000 F 
ATOM     31  F   UNL     1      -2.901   9.371  16.307  0.00  0.00    +0.000 F 
ATOM     32  F   UNL     1      -4.051  10.049  18.029  0.00  0.00    +0.000 F 
ENDBRANCH  25  29
ENDBRANCH  21  27
ENDBRANCH  20  21
ENDBRANCH  18  20
ENDBRANCH   1  18
TORSDOF 7
ENDMDL
MODEL 7
REMARK VINA RESULT:      -8.3      0.971      1.221
REMARK  Name = 
REMARK  8 active torsions:
REMARK  status: ('A' for Active; 'I' for Inactive)
REMARK    1  A    between atoms: C_1  and  C_2
REMARK    2  A    between atoms: C_4  and  C_5
REMARK    3  A    between atoms: C_10  and  C_11
REMARK    4  A    between atoms: C_11  and  C_12
REMARK    5  A    between atoms: C_12  and  N_13
REMARK    6  A    between atoms: N_13  and  C_14
REMARK    7  A    between atoms: C_14  and  C_15
REMARK    8  A    between atoms: C_16  and  C_17
REMARK                            x       y       z     vdW  Elec       q    Type
REMARK                         _______ _______ _______ _____ _____    ______ ____
ROOT
ATOM      1  C   UNL     1       3.891   6.630  18.336  0.00  0.00    +0.000 C 
ENDROOT
BRANCH   1   2
ATOM      2  C   UNL     1       4.061   5.246  18.833  0.00  0.00    +0.000 A 
ATOM      3  C   UNL     1       5.152   4.386  18.740  0.00  0.00    +0.000 A 
ATOM      4  N   UNL     1       4.901   3.218  19.441  0.00  0.00    +0.000 NA
ATOM      5  C   UNL     1       3.685   3.344  19.917  0.00  0.00    +0.000 A 
ATOM      6  C   UNL     1       2.891   2.450  20.687  0.00  0.00    +0.000 A 
ATOM      7  C   UNL     1       1.664   2.823  21.094  0.00  0.00    +0.000 A 
ATOM      8  C   UNL     1       1.122   4.131  20.767  0.00  0.00    +0.000 A 
ATOM      9  C   UNL     1       1.856   4.972  20.019  0.00  0.00    +0.000 A 
ATOM     10  N   UNL     1       3.126   4.578  19.590  0.00  0.00    +0.000 N 
BRANCH   3  11
ATOM     11  C   UNL     1       6.398   4.633  17.996  0.00  0.00    +0.000 C 
ATOM     12  O   UNL     1       7.473   4.779  18.585  0.00  0.00    +0.000 OA
ATOM     13  N   UNL     1       6.307   4.683  16.614  0.00  0.00    +0.000 N 
ATOM     14  C   UNL     1       5.186   4.250  15.799  0.00  0.00    +0.000 C 
ATOM     15  C   UNL     1       5.853   3.796  14.511  0.00  0.00    +0.000 C 
ATOM     16  C   UNL     1       7.012   4.774  14.353  0.00  0.00    +0.000 C 
ATOM     17  C   UNL     1       7.410   5.127  15.784  0.00  0.00    +0.000 C 
ENDBRANCH   3  11
ENDBRANCH   1   2
BRANCH   1  18
ATOM     18  N   UNL     1       2.583   7.156  18.713  0.00  0.00    +0.000 NA
ATOM     19  H   UNL     1       1.945   6.361  18.827  0.00  0.00    +0.000 HD
BRANCH  18  20
ATOM     20  C   UNL     1       2.043   8.048  17.671  0.00  0.00    +0.000 C 
BRANCH  20  21
ATOM     21  C   UNL     1       2.109   9.534  18.040  0.00  0.00    +0.000 C 
BRANCH  21  27
ATOM     22  C   UNL     1      -1.948  12.113  18.526  0.00  0.00    +0.000 C 
ATOM     23  C   UNL     1      -0.952  11.193  19.158  0.00  0.00    +0.000 A 
ATOM     24  C   UNL     1      -1.022  10.849  20.494  0.00  0.00    +0.000 A 
ATOM     25  C   UNL     1      -0.037  10.004  20.977  0.00  0.00    +0.000 A 
ATOM     26  N   UNL     1       0.955   9.539  20.181  0.00  0.00    +0.000 NA
ATOM     27  C   UNL     1       0.959   9.951  18.901  0.00  0.00    +0.000 A 
ATOM     28  N   UNL     1       0.029  10.747  18.357  0.00  0.00    +0.000 NA
BRANCH  25  29
ATOM     29  C   UNL     1      -0.037   9.590  22.443  0.00  0.00    +0.000 C 
ATOM     30  F   UNL     1      -0.911   8.576  22.716  0.00  0.00    +0.000 F 
ATOM     31  F   UNL     1       1.178   9.146  22.873  0.00  0.00    +0.000 F 
ATOM     32  F   UNL     1      -0.388  10.605  23.285  0.00  0.00    +0.000 F 
ENDBRANCH  25  29
ENDBRANCH  21  27
ENDBRANCH  20  21
ENDBRANCH  18  20
ENDBRANCH   1  18
TORSDOF 7
ENDMDL
MODEL 8
REMARK VINA RESULT:      -8.3      1.594      4.380
REMARK  Name = 
REMARK  8 active torsions:
REMARK  status: ('A' for Active; 'I' for Inactive)
REMARK    1  A    between atoms: C_1  and  C_2
REMARK    2  A    between atoms: C_4  and  C_5
REMARK    3  A    between atoms: C_10  and  C_11
REMARK    4  A    between atoms: C_11  and  C_12
REMARK    5  A    between atoms: C_12  and  N_13
REMARK    6  A    between atoms: N_13  and  C_14
REMARK    7  A    between atoms: C_14  and  C_15
REMARK    8  A    between atoms: C_16  and  C_17
REMARK                            x       y       z     vdW  Elec       q    Type
REMARK                         _______ _______ _______ _____ _____    ______ ____
ROOT
ATOM      1  C   UNL     1       3.172   7.041  18.405  0.00  0.00    +0.000 C 
ENDROOT
BRANCH   1   2
ATOM      2  C   UNL     1       3.768   5.836  17.785  0.00  0.00    +0.000 A 
ATOM      3  C   UNL     1       3.244   4.557  17.623  0.00  0.00    +0.000 A 
ATOM      4  N   UNL     1       4.119   3.771  16.891  0.00  0.00    +0.000 NA
ATOM      5  C   UNL     1       5.159   4.533  16.645  0.00  0.00    +0.000 A 
ATOM      6  C   UNL     1       6.373   4.254  15.960  0.00  0.00    +0.000 A 
ATOM      7  C   UNL     1       7.292   5.224  15.801  0.00  0.00    +0.000 A 
ATOM      8  C   UNL     1       7.073   6.567  16.314  0.00  0.00    +0.000 A 
ATOM      9  C   UNL     1       5.939   6.831  16.983  0.00  0.00    +0.000 A 
ATOM     10  N   UNL     1       4.991   5.819  17.155  0.00  0.00    +0.000 N 
BRANCH   3  11
ATOM     11  C   UNL     1       1.964   4.063  18.155  0.00  0.00    +0.000 C 
ATOM     12  O   UNL     1       0.969   3.964  17.432  0.00  0.00    +0.000 OA
ATOM     13  N   UNL     1       1.933   3.708  19.495  0.00  0.00    +0.000 N 
ATOM     14  C   UNL     1       3.076   3.503  20.367  0.00  0.00    +0.000 C 
ATOM     15  C   UNL     1       2.578   2.451  21.344  0.00  0.00    +0.000 C 
ATOM     16  C   UNL     1       1.108   2.809  21.526  0.00  0.00    +0.000 C 
ATOM     17  C   UNL     1       0.694   3.413  20.186  0.00  0.00    +0.000 C 
ENDBRANCH   3  11
ENDBRANCH   1   2
BRANCH   1  18
ATOM     18  N   UNL     1       2.754   7.995  17.383  0.00  0.00    +0.000 NA
ATOM     19  H   UNL     1       3.532   8.644  17.223  0.00  0.00    +0.000 HD
BRANCH  18  20
ATOM     20  C   UNL     1       1.577   8.768  17.820  0.00  0.00    +0.000 C 
BRANCH  20  21
ATOM     21  C   UNL     1       1.918  10.176  18.318  0.00  0.00    +0.000 C 
BRANCH  21  27
ATOM     22  C   UNL     1      -1.078  13.706  19.699  0.00  0.00    +0.000 C 
ATOM     23  C   UNL     1      -0.492  12.361  19.989  0.00  0.00    +0.000 A 
ATOM     24  C   UNL     1      -0.769  11.682  21.159  0.00  0.00    +0.000 A 
ATOM     25  C   UNL     1      -0.158  10.450  21.330  0.00  0.00    +0.000 A 
ATOM     26  N   UNL     1       0.679   9.936  20.397  0.00  0.00    +0.000 NA
ATOM     27  C   UNL     1       0.912  10.682  19.304  0.00  0.00    +0.000 A 
ATOM     28  N   UNL     1       0.341  11.869  19.058  0.00  0.00    +0.000 NA
BRANCH  25  29
ATOM     29  C   UNL     1      -0.401   9.646  22.601  0.00  0.00    +0.000 C 
ATOM     30  F   UNL     1      -1.349  10.198  23.414  0.00  0.00    +0.000 F 
ATOM     31  F   UNL     1      -0.829   8.376  22.355  0.00  0.00    +0.000 F 
ATOM     32  F   UNL     1       0.714   9.525  23.378  0.00  0.00    +0.000 F 
ENDBRANCH  25  29
ENDBRANCH  21  27
ENDBRANCH  20  21
ENDBRANCH  18  20
ENDBRANCH   1  18
TORSDOF 7
ENDMDL
MODEL 9
REMARK VINA RESULT:      -8.3      2.420      2.850
REMARK  Name = 
REMARK  8 active torsions:
REMARK  status: ('A' for Active; 'I' for Inactive)
REMARK    1  A    between atoms: C_1  and  C_2
REMARK    2  A    between atoms: C_4  and  C_5
REMARK    3  A    between atoms: C_10  and  C_11
REMARK    4  A    between atoms: C_11  and  C_12
REMARK    5  A    between atoms: C_12  and  N_13
REMARK    6  A    between atoms: N_13  and  C_14
REMARK    7  A    between atoms: C_14  and  C_15
REMARK    8  A    between atoms: C_16  and  C_17
REMARK                            x       y       z     vdW  Elec       q    Type
REMARK                         _______ _______ _______ _____ _____    ______ ____
ROOT
ATOM      1  C   UNL     1       3.152   6.452  17.863  0.00  0.00    +0.000 C 
ENDROOT
BRANCH   1   2
ATOM      2  C   UNL     1       3.625   5.239  18.569  0.00  0.00    +0.000 A 
ATOM      3  C   UNL     1       4.898   4.683  18.644  0.00  0.00    +0.000 A 
ATOM      4  N   UNL     1       4.895   3.597  19.504  0.00  0.00    +0.000 NA
ATOM      5  C   UNL     1       3.655   3.472  19.913  0.00  0.00    +0.000 A 
ATOM      6  C   UNL     1       3.055   2.519  20.783  0.00  0.00    +0.000 A 
ATOM      7  C   UNL     1       1.747   2.619  21.086  0.00  0.00    +0.000 A 
ATOM      8  C   UNL     1       0.923   3.687  20.547  0.00  0.00    +0.000 A 
ATOM      9  C   UNL     1       1.477   4.576  19.707  0.00  0.00    +0.000 A 
ATOM     10  N   UNL     1       2.832   4.465  19.385  0.00  0.00    +0.000 N 
BRANCH   3  11
ATOM     11  C   UNL     1       6.094   5.134  17.914  0.00  0.00    +0.000 C 
ATOM     12  O   UNL     1       7.049   5.642  18.509  0.00  0.00    +0.000 OA
ATOM     13  N   UNL     1       6.098   4.956  16.539  0.00  0.00    +0.000 N 
ATOM     14  C   UNL     1       5.189   4.130  15.767  0.00  0.00    +0.000 C 
ATOM     15  C   UNL     1       6.044   3.682  14.593  0.00  0.00    +0.000 C 
ATOM     16  C   UNL     1       6.927   4.894  14.320  0.00  0.00    +0.000 C 
ATOM     17  C   UNL     1       7.113   5.546  15.689  0.00  0.00    +0.000 C 
ENDBRANCH   3  11
ENDBRANCH   1   2
BRANCH   1  18
ATOM     18  N   UNL     1       2.877   7.526  18.811  0.00  0.00    +0.000 NA
ATOM     19  H   UNL     1       2.489   7.104  19.662  0.00  0.00    +0.000 HD
BRANCH  18  20
ATOM     20  C   UNL     1       1.894   8.482  18.269  0.00  0.00    +0.000 C 
BRANCH  20  21
ATOM     21  C   UNL     1       1.248   9.370  19.338  0.00  0.00    +0.000 C 
BRANCH  21  27
ATOM     22  C   UNL     1      -0.271  13.928  18.824  0.00  0.00    +0.000 C 
ATOM     23  C   UNL     1      -0.494  12.480  18.521  0.00  0.00    +0.000 A 
ATOM     24  C   UNL     1      -1.616  12.041  17.847  0.00  0.00    +0.000 A 
ATOM     25  C   UNL     1      -1.728  10.676  17.636  0.00  0.00    +0.000 A 
ATOM     26  N   UNL     1      -0.785   9.809  18.077  0.00  0.00    +0.000 NA
ATOM     27  C   UNL     1       0.257  10.326  18.751  0.00  0.00    +0.000 A 
ATOM     28  N   UNL     1       0.445  11.634  18.972  0.00  0.00    +0.000 NA
BRANCH  25  29
ATOM     29  C   UNL     1      -2.943  10.112  16.913  0.00  0.00    +0.000 C 
ATOM     30  F   UNL     1      -2.620   9.396  15.794  0.00  0.00    +0.000 F 
ATOM     31  F   UNL     1      -3.679   9.263  17.685  0.00  0.00    +0.000 F 
ATOM     32  F   UNL     1      -3.807  11.077  16.485  0.00  0.00    +0.000 F 
ENDBRANCH  25  29
ENDBRANCH  21  27
ENDBRANCH  20  21
ENDBRANCH  18  20
ENDBRANCH   1  18
TORSDOF 7
ENDMDL
