MODEL 1
REMARK VINA RESULT:      -7.0      0.000      0.000
REMARK  Name = 
REMARK  6 active torsions:
REMARK  status: ('A' for Active; 'I' for Inactive)
REMARK    1  A    between atoms: C_1  and  O_2
REMARK    2  A    between atoms: O_2  and  C_3
REMARK    3  A    between atoms: C_8  and  N_9
REMARK    4  A    between atoms: C_14  and  C_15
REMARK    5  A    between atoms: N_17  and  O_18
REMARK    6  A    between atoms: C_20  and  C_21
REMARK                            x       y       z     vdW  Elec       q    Type
REMARK                         _______ _______ _______ _____ _____    ______ ____
ROOT
ATOM      1  N   UNL     1       1.360  14.067  18.999  0.00  0.00    +0.000 N 
ATOM      2  C   UNL     1       0.299  14.983  18.799  0.00  0.00    +0.000 A 
ATOM      3  O   UNL     1       0.318  16.203  18.826  0.00  0.00    +0.000 OA
ATOM      4  N   UNL     1      -0.830  14.218  18.510  0.00  0.00    +0.000 N 
ATOM      5  C   UNL     1      -0.469  12.875  18.496  0.00  0.00    +0.000 A 
ATOM      6  C   UNL     1      -1.157  11.725  18.258  0.00  0.00    +0.000 A 
ATOM      7  N   UNL     1      -0.574  10.505  18.446  0.00  0.00    +0.000 NA
ATOM      8  C   UNL     1       0.729  10.501  18.832  0.00  0.00    +0.000 A 
ATOM      9  N   UNL     1       1.483  11.601  19.038  0.00  0.00    +0.000 NA
ATOM     10  C   UNL     1       0.860  12.761  18.833  0.00  0.00    +0.000 A 
ATOM     11  H   UNL     1      -1.728  14.581  18.223  0.00  0.00    +0.000 HD
ENDROOT
BRANCH   8  12
ATOM     12  C   UNL     1       1.409   9.198  19.020  0.00  0.00    +0.000 A 
ATOM     13  C   UNL     1       1.211   8.439  20.195  0.00  0.00    +0.000 A 
ATOM     14  C   UNL     1       1.881   7.232  20.416  0.00  0.00    +0.000 A 
ATOM     15  C   UNL     1       2.770   6.748  19.462  0.00  0.00    +0.000 A 
ATOM     16  C   UNL     1       2.968   7.467  18.287  0.00  0.00    +0.000 A 
ATOM     17 BR   UNL     1       4.177   6.812  16.990  0.00  0.00    +0.000 Br
ATOM     18  C   UNL     1       2.294   8.673  18.062  0.00  0.00    +0.000 A 
ENDBRANCH   8  12
BRANCH   1  24
ATOM     19  C   UNL     1       3.271  14.560  20.499  0.00  0.00    +0.000 A 
ATOM     20  C   UNL     1       4.650  14.792  20.625  0.00  0.00    +0.000 A 
ATOM     21  C   UNL     1       5.460  14.918  19.496  0.00  0.00    +0.000 A 
ATOM     22  C   UNL     1       4.907  14.799  18.228  0.00  0.00    +0.000 A 
ATOM     23  C   UNL     1       3.545  14.531  18.090  0.00  0.00    +0.000 A 
ATOM     24  C   UNL     1       2.708  14.414  19.213  0.00  0.00    +0.000 A 
BRANCH  19  26
ATOM     25  C   UNL     1       1.877  15.447  22.199  0.00  0.00    +0.000 C 
ATOM     26  O   UNL     1       2.475  14.307  21.591  0.00  0.00    +0.000 OA
ENDBRANCH  19  26
ENDBRANCH   1  24
BRANCH   6  27
ATOM     27  C   UNL     1      -2.616  11.684  17.876  0.00  0.00    +0.000 C 
ATOM     28  N   UNL     1      -3.534  12.084  18.827  0.00  0.00    +0.000 N 
ATOM     29  N   UNL     1      -3.142  11.277  16.745  0.00  0.00    +0.000 NA
ATOM     30  H   UNL     1      -3.256  11.866  19.779  0.00  0.00    +0.000 HD
ATOM     31  H   UNL     1      -4.470  11.771  18.599  0.00  0.00    +0.000 HD
BRANCH  29  32
ATOM     32  O   UNL     1      -2.233  10.723  15.848  0.00  0.00    +0.000 OA
ATOM     33  H   UNL     1      -2.569  11.039  14.987  0.00  0.00    +0.000 HD
ENDBRANCH  29  32
ENDBRANCH   6  27
TORSDOF 5
ENDMDL
MODEL 2
REMARK VINA RESULT:      -6.9      6.227      9.500
REMARK  Name = 
REMARK  6 active torsions:
REMARK  status: ('A' for Active; 'I' for Inactive)
REMARK    1  A    between atoms: C_1  and  O_2
REMARK    2  A    between atoms: O_2  and  C_3
REMARK    3  A    between atoms: C_8  and  N_9
REMARK    4  A    between atoms: C_14  and  C_15
REMARK    5  A    between atoms: N_17  and  O_18
REMARK    6  A    between atoms: C_20  and  C_21
REMARK                            x       y       z     vdW  Elec       q    Type
REMARK                         _______ _______ _______ _____ _____    ______ ____
ROOT
ATOM      1  N   UNL     1       4.398   3.579  17.214  0.00  0.00    +0.000 N 
ATOM      2  C   UNL     1       4.240   2.203  17.508  0.00  0.00    +0.000 A 
ATOM      3  O   UNL     1       4.836   1.243  17.047  0.00  0.00    +0.000 OA
ATOM      4  N   UNL     1       3.261   2.124  18.498  0.00  0.00    +0.000 N 
ATOM      5  C   UNL     1       2.856   3.412  18.830  0.00  0.00    +0.000 A 
ATOM      6  C   UNL     1       1.958   3.906  19.726  0.00  0.00    +0.000 A 
ATOM      7  N   UNL     1       1.651   5.237  19.752  0.00  0.00    +0.000 NA
ATOM      8  C   UNL     1       2.317   6.037  18.879  0.00  0.00    +0.000 A 
ATOM      9  N   UNL     1       3.252   5.621  18.000  0.00  0.00    +0.000 NA
ATOM     10  C   UNL     1       3.513   4.314  18.025  0.00  0.00    +0.000 A 
ATOM     11  H   UNL     1       2.991   1.284  18.989  0.00  0.00    +0.000 HD
ENDROOT
BRANCH   8  12
ATOM     12  C   UNL     1       2.036   7.492  18.894  0.00  0.00    +0.000 A 
ATOM     13  C   UNL     1       2.384   8.309  17.796  0.00  0.00    +0.000 A 
ATOM     14  C   UNL     1       2.175   9.692  17.808  0.00  0.00    +0.000 A 
ATOM     15  C   UNL     1       1.607  10.296  18.924  0.00  0.00    +0.000 A 
ATOM     16  C   UNL     1       1.237   9.510  20.012  0.00  0.00    +0.000 A 
ATOM     17 BR   UNL     1       0.465  10.330  21.531  0.00  0.00    +0.000 Br
ATOM     18  C   UNL     1       1.440   8.126  19.999  0.00  0.00    +0.000 A 
ENDBRANCH   8  12
BRANCH   1  24
ATOM     19  C   UNL     1       6.627   4.572  16.776  0.00  0.00    +0.000 A 
ATOM     20  C   UNL     1       7.573   4.990  15.826  0.00  0.00    +0.000 A 
ATOM     21  C   UNL     1       7.263   5.001  14.465  0.00  0.00    +0.000 A 
ATOM     22  C   UNL     1       6.012   4.581  14.035  0.00  0.00    +0.000 A 
ATOM     23  C   UNL     1       5.076   4.128  14.965  0.00  0.00    +0.000 A 
ATOM     24  C   UNL     1       5.362   4.122  16.342  0.00  0.00    +0.000 A 
BRANCH  19  26
ATOM     25  C   UNL     1       7.417   5.608  18.756  0.00  0.00    +0.000 C 
ATOM     26  O   UNL     1       6.947   4.432  18.105  0.00  0.00    +0.000 OA
ENDBRANCH  19  26
ENDBRANCH   1  24
BRANCH   6  27
ATOM     27  C   UNL     1       1.162   3.047  20.677  0.00  0.00    +0.000 C 
ATOM     28  N   UNL     1      -0.002   2.480  20.199  0.00  0.00    +0.000 N 
ATOM     29  N   UNL     1       1.419   2.791  21.938  0.00  0.00    +0.000 NA
ATOM     30  H   UNL     1      -0.485   3.054  19.515  0.00  0.00    +0.000 HD
ATOM     31  H   UNL     1      -0.600   2.162  20.952  0.00  0.00    +0.000 HD
BRANCH  29  32
ATOM     32  O   UNL     1       2.499   3.491  22.465  0.00  0.00    +0.000 OA
ATOM     33  H   UNL     1       2.132   3.851  23.295  0.00  0.00    +0.000 HD
ENDBRANCH  29  32
ENDBRANCH   6  27
TORSDOF 5
ENDMDL
MODEL 3
REMARK VINA RESULT:      -6.8      0.897      1.606
REMARK  Name = 
REMARK  6 active torsions:
REMARK  status: ('A' for Active; 'I' for Inactive)
REMARK    1  A    between atoms: C_1  and  O_2
REMARK    2  A    between atoms: O_2  and  C_3
REMARK    3  A    between atoms: C_8  and  N_9
REMARK    4  A    between atoms: C_14  and  C_15
REMARK    5  A    between atoms: N_17  and  O_18
REMARK    6  A    between atoms: C_20  and  C_21
REMARK                            x       y       z     vdW  Elec       q    Type
REMARK                         _______ _______ _______ _____ _____    ______ ____
ROOT
ATOM      1  N   UNL     1       1.340  13.933  19.416  0.00  0.00    +0.000 N 
ATOM      2  C   UNL     1       0.320  14.880  19.160  0.00  0.00    +0.000 A 
ATOM      3  O   UNL     1       0.362  16.098  19.230  0.00  0.00    +0.000 OA
ATOM      4  N   UNL     1      -0.798  14.152  18.753  0.00  0.00    +0.000 N 
ATOM      5  C   UNL     1      -0.465  12.803  18.724  0.00  0.00    +0.000 A 
ATOM      6  C   UNL     1      -1.156  11.678  18.392  0.00  0.00    +0.000 A 
ATOM      7  N   UNL     1      -0.616  10.438  18.586  0.00  0.00    +0.000 NA
ATOM      8  C   UNL     1       0.649  10.390  19.078  0.00  0.00    +0.000 A 
ATOM      9  N   UNL     1       1.407  11.464  19.382  0.00  0.00    +0.000 NA
ATOM     10  C   UNL     1       0.828  12.646  19.166  0.00  0.00    +0.000 A 
ATOM     11  H   UNL     1      -1.660  14.546  18.406  0.00  0.00    +0.000 HD
ENDROOT
BRANCH   8  12
ATOM     12  C   UNL     1       1.283   9.066  19.277  0.00  0.00    +0.000 A 
ATOM     13  C   UNL     1       1.042   8.316  20.449  0.00  0.00    +0.000 A 
ATOM     14  C   UNL     1       1.669   7.087  20.682  0.00  0.00    +0.000 A 
ATOM     15  C   UNL     1       2.556   6.574  19.742  0.00  0.00    +0.000 A 
ATOM     16  C   UNL     1       2.796   7.284  18.570  0.00  0.00    +0.000 A 
ATOM     17 BR   UNL     1       4.003   6.589  17.292  0.00  0.00    +0.000 Br
ATOM     18  C   UNL     1       2.165   8.511  18.333  0.00  0.00    +0.000 A 
ENDBRANCH   8  12
BRANCH   1  24
ATOM     19  C   UNL     1       3.600  14.763  18.825  0.00  0.00    +0.000 A 
ATOM     20  C   UNL     1       4.874  15.152  19.269  0.00  0.00    +0.000 A 
ATOM     21  C   UNL     1       5.245  14.994  20.605  0.00  0.00    +0.000 A 
ATOM     22  C   UNL     1       4.344  14.459  21.516  0.00  0.00    +0.000 A 
ATOM     23  C   UNL     1       3.063  14.103  21.096  0.00  0.00    +0.000 A 
ATOM     24  C   UNL     1       2.673  14.241  19.752  0.00  0.00    +0.000 A 
BRANCH  19  26
ATOM     25  C   UNL     1       3.205  16.389  17.147  0.00  0.00    +0.000 C 
ATOM     26  O   UNL     1       3.166  15.024  17.547  0.00  0.00    +0.000 OA
ENDBRANCH  19  26
ENDBRANCH   1  24
BRANCH   6  27
ATOM     27  C   UNL     1      -2.579  11.684  17.889  0.00  0.00    +0.000 C 
ATOM     28  N   UNL     1      -3.548  12.193  18.731  0.00  0.00    +0.000 N 
ATOM     29  N   UNL     1      -3.031  11.228  16.746  0.00  0.00    +0.000 NA
ATOM     30  H   UNL     1      -3.362  12.026  19.715  0.00  0.00    +0.000 HD
ATOM     31  H   UNL     1      -4.478  11.913  18.444  0.00  0.00    +0.000 HD
BRANCH  29  32
ATOM     32  O   UNL     1      -2.085  10.569  15.967  0.00  0.00    +0.000 OA
ATOM     33  H   UNL     1      -2.564  10.428  15.128  0.00  0.00    +0.000 HD
ENDBRANCH  29  32
ENDBRANCH   6  27
TORSDOF 5
ENDMDL
MODEL 4
REMARK VINA RESULT:      -6.8      1.192      1.881
REMARK  Name = 
REMARK  6 active torsions:
REMARK  status: ('A' for Active; 'I' for Inactive)
REMARK    1  A    between atoms: C_1  and  O_2
REMARK    2  A    between atoms: O_2  and  C_3
REMARK    3  A    between atoms: C_8  and  N_9
REMARK    4  A    between atoms: C_14  and  C_15
REMARK    5  A    between atoms: N_17  and  O_18
REMARK    6  A    between atoms: C_20  and  C_21
REMARK                            x       y       z     vdW  Elec       q    Type
REMARK                         _______ _______ _______ _____ _____    ______ ____
ROOT
ATOM      1  N   UNL     1       1.297  13.842  19.386  0.00  0.00    +0.000 N 
ATOM      2  C   UNL     1       0.252  14.753  19.098  0.00  0.00    +0.000 A 
ATOM      3  O   UNL     1       0.223  15.965  19.243  0.00  0.00    +0.000 OA
ATOM      4  N   UNL     1      -0.787  13.999  18.553  0.00  0.00    +0.000 N 
ATOM      5  C   UNL     1      -0.381  12.672  18.473  0.00  0.00    +0.000 A 
ATOM      6  C   UNL     1      -0.981  11.538  18.017  0.00  0.00    +0.000 A 
ATOM      7  N   UNL     1      -0.393  10.316  18.184  0.00  0.00    +0.000 NA
ATOM      8  C   UNL     1       0.827  10.299  18.781  0.00  0.00    +0.000 A 
ATOM      9  N   UNL     1       1.498  11.386  19.212  0.00  0.00    +0.000 NA
ATOM     10  C   UNL     1       0.877  12.550  19.016  0.00  0.00    +0.000 A 
ATOM     11  H   UNL     1      -1.637  14.372  18.156  0.00  0.00    +0.000 HD
ENDROOT
BRANCH   8  12
ATOM     12  C   UNL     1       1.512   8.997  18.955  0.00  0.00    +0.000 A 
ATOM     13  C   UNL     1       1.299   8.215  20.113  0.00  0.00    +0.000 A 
ATOM     14  C   UNL     1       1.973   7.008  20.323  0.00  0.00    +0.000 A 
ATOM     15  C   UNL     1       2.880   6.547  19.376  0.00  0.00    +0.000 A 
ATOM     16  C   UNL     1       3.094   7.289  18.218  0.00  0.00    +0.000 A 
ATOM     17 BR   UNL     1       4.329   6.666  16.929  0.00  0.00    +0.000 Br
ATOM     18  C   UNL     1       2.416   8.494  18.003  0.00  0.00    +0.000 A 
ENDBRANCH   8  12
BRANCH   1  24
ATOM     19  C   UNL     1       3.590  14.707  19.016  0.00  0.00    +0.000 A 
ATOM     20  C   UNL     1       4.800  15.141  19.583  0.00  0.00    +0.000 A 
ATOM     21  C   UNL     1       5.026  15.032  20.956  0.00  0.00    +0.000 A 
ATOM     22  C   UNL     1       4.042  14.504  21.781  0.00  0.00    +0.000 A 
ATOM     23  C   UNL     1       2.822  14.105  21.236  0.00  0.00    +0.000 A 
ATOM     24  C   UNL     1       2.579  14.192  19.854  0.00  0.00    +0.000 A 
BRANCH  19  26
ATOM     25  C   UNL     1       3.287  16.277  17.266  0.00  0.00    +0.000 C 
ATOM     26  O   UNL     1       3.293  14.918  17.691  0.00  0.00    +0.000 OA
ENDBRANCH  19  26
ENDBRANCH   1  24
BRANCH   6  27
ATOM     27  C   UNL     1      -2.354  11.507  17.394  0.00  0.00    +0.000 C 
ATOM     28  N   UNL     1      -2.439  11.169  16.058  0.00  0.00    +0.000 N 
ATOM     29  N   UNL     1      -3.502  11.799  17.959  0.00  0.00    +0.000 NA
ATOM     30  H   UNL     1      -1.643  11.478  15.508  0.00  0.00    +0.000 HD
ATOM     31  H   UNL     1      -3.331  11.436  15.660  0.00  0.00    +0.000 HD
BRANCH  29  32
ATOM     32  O   UNL     1      -3.402  12.294  19.255  0.00  0.00    +0.000 OA
ATOM     33  H   UNL     1      -4.083  12.995  19.265  0.00  0.00    +0.000 HD
ENDBRANCH  29  32
ENDBRANCH   6  27
TORSDOF 5
ENDMDL
MODEL 5
REMARK VINA RESULT:      -6.8      0.951      1.304
REMARK  Name = 
REMARK  6 active torsions:
REMARK  status: ('A' for Active; 'I' for Inactive)
REMARK    1  A    between atoms: C_1  and  O_2
REMARK    2  A    between atoms: O_2  and  C_3
REMARK    3  A    between atoms: C_8  and  N_9
REMARK    4  A    between atoms: C_14  and  C_15
REMARK    5  A    between atoms: N_17  and  O_18
REMARK    6  A    between atoms: C_20  and  C_21
REMARK                            x       y       z     vdW  Elec       q    Type
REMARK                         _______ _______ _______ _____ _____    ______ ____
ROOT
ATOM      1  N   UNL     1       1.438  14.044  18.994  0.00  0.00    +0.000 N 
ATOM      2  C   UNL     1       0.333  14.927  18.947  0.00  0.00    +0.000 A 
ATOM      3  O   UNL     1       0.308  16.140  19.078  0.00  0.00    +0.000 OA
ATOM      4  N   UNL     1      -0.785  14.140  18.670  0.00  0.00    +0.000 N 
ATOM      5  C   UNL     1      -0.376  12.821  18.515  0.00  0.00    +0.000 A 
ATOM      6  C   UNL     1      -1.036  11.666  18.227  0.00  0.00    +0.000 A 
ATOM      7  N   UNL     1      -0.396  10.460  18.267  0.00  0.00    +0.000 NA
ATOM      8  C   UNL     1       0.931  10.481  18.562  0.00  0.00    +0.000 A 
ATOM      9  N   UNL     1       1.656  11.590  18.810  0.00  0.00    +0.000 NA
ATOM     10  C   UNL     1       0.977  12.736  18.750  0.00  0.00    +0.000 A 
ATOM     11  H   UNL     1      -1.714  14.487  18.479  0.00  0.00    +0.000 HD
ENDROOT
BRANCH   8  12
ATOM     12  C   UNL     1       1.671   9.197  18.588  0.00  0.00    +0.000 A 
ATOM     13  C   UNL     1       2.619   8.887  17.587  0.00  0.00    +0.000 A 
ATOM     14  C   UNL     1       3.292   7.660  17.563  0.00  0.00    +0.000 A 
ATOM     15  C   UNL     1       3.035   6.710  18.545  0.00  0.00    +0.000 A 
ATOM     16  C   UNL     1       2.120   7.000  19.553  0.00  0.00    +0.000 A 
ATOM     17 BR   UNL     1       1.768   5.708  20.888  0.00  0.00    +0.000 Br
ATOM     18  C   UNL     1       1.450   8.228  19.582  0.00  0.00    +0.000 A 
ENDBRANCH   8  12
BRANCH   1  24
ATOM     19  C   UNL     1       3.406  14.586  20.402  0.00  0.00    +0.000 A 
ATOM     20  C   UNL     1       4.782  14.859  20.462  0.00  0.00    +0.000 A 
ATOM     21  C   UNL     1       5.532  15.014  19.295  0.00  0.00    +0.000 A 
ATOM     22  C   UNL     1       4.920  14.885  18.055  0.00  0.00    +0.000 A 
ATOM     23  C   UNL     1       3.562  14.577  17.982  0.00  0.00    +0.000 A 
ATOM     24  C   UNL     1       2.785  14.430  19.144  0.00  0.00    +0.000 A 
BRANCH  19  26
ATOM     25  C   UNL     1       2.195  15.431  22.256  0.00  0.00    +0.000 C 
ATOM     26  O   UNL     1       2.672  14.304  21.529  0.00  0.00    +0.000 OA
ENDBRANCH  19  26
ENDBRANCH   1  24
BRANCH   6  27
ATOM     27  C   UNL     1      -2.517  11.594  17.943  0.00  0.00    +0.000 C 
ATOM     28  N   UNL     1      -3.377  11.952  18.962  0.00  0.00    +0.000 N 
ATOM     29  N   UNL     1      -3.108  11.194  16.842  0.00  0.00    +0.000 NA
ATOM     30  H   UNL     1      -3.030  11.724  19.888  0.00  0.00    +0.000 HD
ATOM     31  H   UNL     1      -4.318  11.620  18.791  0.00  0.00    +0.000 HD
BRANCH  29  32
ATOM     32  O   UNL     1      -2.249  10.680  15.876  0.00  0.00    +0.000 OA
ATOM     33  H   UNL     1      -2.788   9.972  15.472  0.00  0.00    +0.000 HD
ENDBRANCH  29  32
ENDBRANCH   6  27
TORSDOF 5
ENDMDL
MODEL 6
REMARK VINA RESULT:      -6.8      5.687      8.593
REMARK  Name = 
REMARK  6 active torsions:
REMARK  status: ('A' for Active; 'I' for Inactive)
REMARK    1  A    between atoms: C_1  and  O_2
REMARK    2  A    between atoms: O_2  and  C_3
REMARK    3  A    between atoms: C_8  and  N_9
REMARK    4  A    between atoms: C_14  and  C_15
REMARK    5  A    between atoms: N_17  and  O_18
REMARK    6  A    between atoms: C_20  and  C_21
REMARK                            x       y       z     vdW  Elec       q    Type
REMARK                         _______ _______ _______ _____ _____    ______ ____
ROOT
ATOM      1  N   UNL     1       5.166   5.196  18.638  0.00  0.00    +0.000 N 
ATOM      2  C   UNL     1       5.260   3.784  18.572  0.00  0.00    +0.000 A 
ATOM      3  O   UNL     1       6.186   3.090  18.185  0.00  0.00    +0.000 OA
ATOM      4  N   UNL     1       4.063   3.288  19.088  0.00  0.00    +0.000 N 
ATOM      5  C   UNL     1       3.274   4.358  19.494  0.00  0.00    +0.000 A 
ATOM      6  C   UNL     1       2.042   4.445  20.068  0.00  0.00    +0.000 A 
ATOM      7  N   UNL     1       1.432   5.654  20.243  0.00  0.00    +0.000 NA
ATOM      8  C   UNL     1       2.130   6.754  19.860  0.00  0.00    +0.000 A 
ATOM      9  N   UNL     1       3.370   6.743  19.329  0.00  0.00    +0.000 NA
ATOM     10  C   UNL     1       3.916   5.536  19.189  0.00  0.00    +0.000 A 
ATOM     11  H   UNL     1       3.859   2.315  19.264  0.00  0.00    +0.000 HD
ENDROOT
BRANCH   8  12
ATOM     12  C   UNL     1       1.516   8.088  20.058  0.00  0.00    +0.000 A 
ATOM     13  C   UNL     1       1.608   9.084  19.060  0.00  0.00    +0.000 A 
ATOM     14  C   UNL     1       1.081  10.367  19.245  0.00  0.00    +0.000 A 
ATOM     15  C   UNL     1       0.442  10.686  20.438  0.00  0.00    +0.000 A 
ATOM     16  C   UNL     1       0.320   9.717  21.429  0.00  0.00    +0.000 A 
ATOM     17 BR   UNL     1      -0.547  10.151  23.052  0.00  0.00    +0.000 Br
ATOM     18  C   UNL     1       0.842   8.432  21.243  0.00  0.00    +0.000 A 
ENDBRANCH   8  12
BRANCH   1  24
ATOM     19  C   UNL     1       6.169   6.926  17.173  0.00  0.00    +0.000 A 
ATOM     20  C   UNL     1       7.182   7.880  16.987  0.00  0.00    +0.000 A 
ATOM     21  C   UNL     1       8.235   7.992  17.896  0.00  0.00    +0.000 A 
ATOM     22  C   UNL     1       8.281   7.163  19.009  0.00  0.00    +0.000 A 
ATOM     23  C   UNL     1       7.261   6.237  19.226  0.00  0.00    +0.000 A 
ATOM     24  C   UNL     1       6.199   6.098  18.315  0.00  0.00    +0.000 A 
BRANCH  19  26
ATOM     25  C   UNL     1       5.127   5.972  15.270  0.00  0.00    +0.000 C 
ATOM     26  O   UNL     1       5.059   6.879  16.364  0.00  0.00    +0.000 OA
ENDBRANCH  19  26
ENDBRANCH   1  24
BRANCH   6  27
ATOM     27  C   UNL     1       1.214   3.247  20.463  0.00  0.00    +0.000 C 
ATOM     28  N   UNL     1       0.115   2.949  19.682  0.00  0.00    +0.000 N 
ATOM     29  N   UNL     1       1.385   2.453  21.493  0.00  0.00    +0.000 NA
ATOM     30  H   UNL     1      -0.339   3.768  19.288  0.00  0.00    +0.000 HD
ATOM     31  H   UNL     1      -0.525   2.325  20.159  0.00  0.00    +0.000 HD
BRANCH  29  32
ATOM     32  O   UNL     1       2.392   2.846  22.369  0.00  0.00    +0.000 OA
ATOM     33  H   UNL     1       2.862   3.531  21.854  0.00  0.00    +0.000 HD
ENDBRANCH  29  32
ENDBRANCH   6  27
TORSDOF 5
ENDMDL
MODEL 7
REMARK VINA RESULT:      -6.7      1.035      1.102
REMARK  Name = 
REMARK  6 active torsions:
REMARK  status: ('A' for Active; 'I' for Inactive)
REMARK    1  A    between atoms: C_1  and  O_2
REMARK    2  A    between atoms: O_2  and  C_3
REMARK    3  A    between atoms: C_8  and  N_9
REMARK    4  A    between atoms: C_14  and  C_15
REMARK    5  A    between atoms: N_17  and  O_18
REMARK    6  A    between atoms: C_20  and  C_21
REMARK                            x       y       z     vdW  Elec       q    Type
REMARK                         _______ _______ _______ _____ _____    ______ ____
ROOT
ATOM      1  N   UNL     1       0.851  13.294  18.884  0.00  0.00    +0.000 N 
ATOM      2  C   UNL     1      -0.341  14.026  18.666  0.00  0.00    +0.000 A 
ATOM      3  O   UNL     1      -0.540  15.226  18.772  0.00  0.00    +0.000 OA
ATOM      4  N   UNL     1      -1.297  13.102  18.247  0.00  0.00    +0.000 N 
ATOM      5  C   UNL     1      -0.703  11.847  18.174  0.00  0.00    +0.000 A 
ATOM      6  C   UNL     1      -1.161  10.616  17.814  0.00  0.00    +0.000 A 
ATOM      7  N   UNL     1      -0.383   9.504  17.966  0.00  0.00    +0.000 NA
ATOM      8  C   UNL     1       0.874   9.696  18.445  0.00  0.00    +0.000 A 
ATOM      9  N   UNL     1       1.407  10.890  18.774  0.00  0.00    +0.000 NA
ATOM     10  C   UNL     1       0.602  11.938  18.599  0.00  0.00    +0.000 A 
ATOM     11  H   UNL     1      -2.225  13.325  17.920  0.00  0.00    +0.000 HD
ENDROOT
BRANCH   8  12
ATOM     12  C   UNL     1       1.762   8.520  18.597  0.00  0.00    +0.000 A 
ATOM     13  C   UNL     1       1.702   7.712  19.755  0.00  0.00    +0.000 A 
ATOM     14  C   UNL     1       2.565   6.627  19.944  0.00  0.00    +0.000 A 
ATOM     15  C   UNL     1       3.512   6.319  18.974  0.00  0.00    +0.000 A 
ATOM     16  C   UNL     1       3.578   7.087  17.816  0.00  0.00    +0.000 A 
ATOM     17 BR   UNL     1       4.868   6.671  16.497  0.00  0.00    +0.000 Br
ATOM     18  C   UNL     1       2.713   8.169  17.623  0.00  0.00    +0.000 A 
ENDBRANCH   8  12
BRANCH   1  24
ATOM     19  C   UNL     1       2.512  14.082  20.548  0.00  0.00    +0.000 A 
ATOM     20  C   UNL     1       3.819  14.531  20.797  0.00  0.00    +0.000 A 
ATOM     21  C   UNL     1       4.700  14.788  19.746  0.00  0.00    +0.000 A 
ATOM     22  C   UNL     1       4.292  14.586  18.434  0.00  0.00    +0.000 A 
ATOM     23  C   UNL     1       3.010  14.104  18.174  0.00  0.00    +0.000 A 
ATOM     24  C   UNL     1       2.102  13.852  19.217  0.00  0.00    +0.000 A 
BRANCH  19  26
ATOM     25  C   UNL     1       0.847  14.730  22.105  0.00  0.00    +0.000 C 
ATOM     26  O   UNL     1       1.669  13.701  21.564  0.00  0.00    +0.000 OA
ENDBRANCH  19  26
ENDBRANCH   1  24
BRANCH   6  27
ATOM     27  C   UNL     1      -2.564  10.353  17.325  0.00  0.00    +0.000 C 
ATOM     28  N   UNL     1      -3.313   9.420  18.014  0.00  0.00    +0.000 N 
ATOM     29  N   UNL     1      -3.168  10.882  16.288  0.00  0.00    +0.000 NA
ATOM     30  H   UNL     1      -2.762   8.658  18.398  0.00  0.00    +0.000 HD
ATOM     31  H   UNL     1      -4.110   9.107  17.474  0.00  0.00    +0.000 HD
BRANCH  29  32
ATOM     32  O   UNL     1      -2.363  11.698  15.500  0.00  0.00    +0.000 OA
ATOM     33  H   UNL     1      -1.733  12.064  16.152  0.00  0.00    +0.000 HD
ENDBRANCH  29  32
ENDBRANCH   6  27
TORSDOF 5
ENDMDL
MODEL 8
REMARK VINA RESULT:      -6.7      0.876      1.053
REMARK  Name = 
REMARK  6 active torsions:
REMARK  status: ('A' for Active; 'I' for Inactive)
REMARK    1  A    between atoms: C_1  and  O_2
REMARK    2  A    between atoms: O_2  and  C_3
REMARK    3  A    between atoms: C_8  and  N_9
REMARK    4  A    between atoms: C_14  and  C_15
REMARK    5  A    between atoms: N_17  and  O_18
REMARK    6  A    between atoms: C_20  and  C_21
REMARK                            x       y       z     vdW  Elec       q    Type
REMARK                         _______ _______ _______ _____ _____    ______ ____
ROOT
ATOM      1  N   UNL     1       1.145  13.763  18.946  0.00  0.00    +0.000 N 
ATOM      2  C   UNL     1       0.030  14.605  18.717  0.00  0.00    +0.000 A 
ATOM      3  O   UNL     1      -0.046  15.822  18.785  0.00  0.00    +0.000 OA
ATOM      4  N   UNL     1      -1.021  13.769  18.342  0.00  0.00    +0.000 N 
ATOM      5  C   UNL     1      -0.559  12.459  18.305  0.00  0.00    +0.000 A 
ATOM      6  C   UNL     1      -1.145  11.270  17.993  0.00  0.00    +0.000 A 
ATOM      7  N   UNL     1      -0.480  10.090  18.173  0.00  0.00    +0.000 NA
ATOM      8  C   UNL     1       0.797  10.169  18.629  0.00  0.00    +0.000 A 
ATOM      9  N   UNL     1       1.453  11.313  18.911  0.00  0.00    +0.000 NA
ATOM     10  C   UNL     1       0.756  12.431  18.710  0.00  0.00    +0.000 A 
ATOM     11  H   UNL     1      -1.928  14.075  18.019  0.00  0.00    +0.000 HD
ENDROOT
BRANCH   8  12
ATOM     12  C   UNL     1       1.564   8.914  18.811  0.00  0.00    +0.000 A 
ATOM     13  C   UNL     1       1.421   8.142  19.985  0.00  0.00    +0.000 A 
ATOM     14  C   UNL     1       2.172   6.981  20.201  0.00  0.00    +0.000 A 
ATOM     15  C   UNL     1       3.087   6.560  19.243  0.00  0.00    +0.000 A 
ATOM     16  C   UNL     1       3.232   7.293  18.069  0.00  0.00    +0.000 A 
ATOM     17 BR   UNL     1       4.477   6.723  16.765  0.00  0.00    +0.000 Br
ATOM     18  C   UNL     1       2.478   8.451  17.848  0.00  0.00    +0.000 A 
ENDBRANCH   8  12
BRANCH   1  24
ATOM     19  C   UNL     1       2.923  14.374  20.563  0.00  0.00    +0.000 A 
ATOM     20  C   UNL     1       4.272  14.701  20.774  0.00  0.00    +0.000 A 
ATOM     21  C   UNL     1       5.138  14.894  19.697  0.00  0.00    +0.000 A 
ATOM     22  C   UNL     1       4.673  14.749  18.397  0.00  0.00    +0.000 A 
ATOM     23  C   UNL     1       3.344  14.387  18.174  0.00  0.00    +0.000 A 
ATOM     24  C   UNL     1       2.451  14.202  19.244  0.00  0.00    +0.000 A 
BRANCH  19  26
ATOM     25  C   UNL     1       1.344  15.140  22.157  0.00  0.00    +0.000 C 
ATOM     26  O   UNL     1       2.082  14.056  21.602  0.00  0.00    +0.000 OA
ENDBRANCH  19  26
ENDBRANCH   1  24
BRANCH   6  27
ATOM     27  C   UNL     1      -2.575  11.134  17.531  0.00  0.00    +0.000 C 
ATOM     28  N   UNL     1      -2.797  10.484  16.334  0.00  0.00    +0.000 N 
ATOM     29  N   UNL     1      -3.656  11.593  18.114  0.00  0.00    +0.000 NA
ATOM     30  H   UNL     1      -2.058  10.622  15.651  0.00  0.00    +0.000 HD
ATOM     31  H   UNL     1      -3.722  10.676  15.970  0.00  0.00    +0.000 HD
BRANCH  29  32
ATOM     32  O   UNL     1      -3.422  12.386  19.233  0.00  0.00    +0.000 OA
ATOM     33  H   UNL     1      -3.369  13.283  18.847  0.00  0.00    +0.000 HD
ENDBRANCH  29  32
ENDBRANCH   6  27
TORSDOF 5
ENDMDL
MODEL 9
REMARK VINA RESULT:      -6.6      5.724      8.531
REMARK  Name = 
REMARK  6 active torsions:
REMARK  status: ('A' for Active; 'I' for Inactive)
REMARK    1  A    between atoms: C_1  and  O_2
REMARK    2  A    between atoms: O_2  and  C_3
REMARK    3  A    between atoms: C_8  and  N_9
REMARK    4  A    between atoms: C_14  and  C_15
REMARK    5  A    between atoms: N_17  and  O_18
REMARK    6  A    between atoms: C_20  and  C_21
REMARK                            x       y       z     vdW  Elec       q    Type
REMARK                         _______ _______ _______ _____ _____    ______ ____
ROOT
ATOM      1  N   UNL     1       5.121   5.092  18.611  0.00  0.00    +0.000 N 
ATOM      2  C   UNL     1       5.188   3.683  18.489  0.00  0.00    +0.000 A 
ATOM      3  O   UNL     1       6.106   2.986  18.088  0.00  0.00    +0.000 OA
ATOM      4  N   UNL     1       3.974   3.190  18.968  0.00  0.00    +0.000 N 
ATOM      5  C   UNL     1       3.200   4.259  19.405  0.00  0.00    +0.000 A 
ATOM      6  C   UNL     1       1.962   4.348  19.965  0.00  0.00    +0.000 A 
ATOM      7  N   UNL     1       1.372   5.561  20.179  0.00  0.00    +0.000 NA
ATOM      8  C   UNL     1       2.098   6.662  19.850  0.00  0.00    +0.000 A 
ATOM      9  N   UNL     1       3.345   6.647  19.337  0.00  0.00    +0.000 NA
ATOM     10  C   UNL     1       3.869   5.435  19.157  0.00  0.00    +0.000 A 
ATOM     11  H   UNL     1       3.749   2.216  19.103  0.00  0.00    +0.000 HD
ENDROOT
BRANCH   8  12
ATOM     12  C   UNL     1       1.507   7.999  20.092  0.00  0.00    +0.000 A 
ATOM     13  C   UNL     1       1.606   9.022  19.123  0.00  0.00    +0.000 A 
ATOM     14  C   UNL     1       1.101  10.306  19.350  0.00  0.00    +0.000 A 
ATOM     15  C   UNL     1       0.478  10.602  20.558  0.00  0.00    +0.000 A 
ATOM     16  C   UNL     1       0.350   9.606  21.521  0.00  0.00    +0.000 A 
ATOM     17 BR   UNL     1      -0.495  10.006  23.165  0.00  0.00    +0.000 Br
ATOM     18  C   UNL     1       0.850   8.319  21.293  0.00  0.00    +0.000 A 
ENDBRANCH   8  12
BRANCH   1  24
ATOM     19  C   UNL     1       6.180   6.857  17.229  0.00  0.00    +0.000 A 
ATOM     20  C   UNL     1       7.214   7.798  17.096  0.00  0.00    +0.000 A 
ATOM     21  C   UNL     1       8.255   7.853  18.025  0.00  0.00    +0.000 A 
ATOM     22  C   UNL     1       8.267   6.981  19.105  0.00  0.00    +0.000 A 
ATOM     23  C   UNL     1       7.227   6.068  19.270  0.00  0.00    +0.000 A 
ATOM     24  C   UNL     1       6.176   5.985  18.339  0.00  0.00    +0.000 A 
BRANCH  19  26
ATOM     25  C   UNL     1       5.161   6.021  15.260  0.00  0.00    +0.000 C 
ATOM     26  O   UNL     1       5.081   6.865  16.404  0.00  0.00    +0.000 OA
ENDBRANCH  19  26
ENDBRANCH   1  24
BRANCH   6  27
ATOM     27  C   UNL     1       1.104   3.152  20.300  0.00  0.00    +0.000 C 
ATOM     28  N   UNL     1       0.983   2.810  21.632  0.00  0.00    +0.000 N 
ATOM     29  N   UNL     1       0.472   2.357  19.470  0.00  0.00    +0.000 NA
ATOM     30  H   UNL     1       1.815   3.002  22.180  0.00  0.00    +0.000 HD
ATOM     31  H   UNL     1       0.634   1.866  21.746  0.00  0.00    +0.000 HD
BRANCH  29  32
ATOM     32  O   UNL     1       0.724   2.602  18.124  0.00  0.00    +0.000 OA
ATOM     33  H   UNL     1       0.162   3.381  17.943  0.00  0.00    +0.000 HD
ENDBRANCH  29  32
ENDBRANCH   6  27
TORSDOF 5
ENDMDL
