MODEL 1
REMARK VINA RESULT:      -6.7      0.000      0.000
REMARK  Name = 
REMARK  12 active torsions:
REMARK  status: ('A' for Active; 'I' for Inactive)
REMARK    1  A    between atoms: C_1  and  C_2
REMARK    2  A    between atoms: C_2  and  C_3
REMARK    3  A    between atoms: C_2  and  C_12
REMARK    4  A    between atoms: C_3  and  C_4
REMARK    5  A    between atoms: C_4  and  C_5
REMARK    6  A    between atoms: C_5  and  C_6
REMARK    7  A    between atoms: C_6  and  N_7
REMARK    8  A    between atoms: C_8  and  C_10
REMARK    9  A    between atoms: C_17  and  C_18
REMARK   10  A    between atoms: C_21  and  O_22
REMARK   11  A    between atoms: C_24  and  O_25
REMARK   12  A    between atoms: C_30  and  C_31
REMARK                            x       y       z     vdW  Elec       q    Type
REMARK                         _______ _______ _______ _____ _____    ______ ____
ROOT
ATOM      1  C   UNL     1      -1.348  11.691  20.419  0.00  0.00    +0.000 C 
ATOM      2  C   UNL     1      -1.660  11.309  18.941  0.00  0.00    +0.000 C 
ATOM      3  C   UNL     1      -0.697  10.175  18.550  0.00  0.00    +0.000 C 
ATOM      4  C   UNL     1      -0.246   9.602  19.892  0.00  0.00    +0.000 C 
ATOM      5  C   UNL     1       0.957   8.682  20.022  0.00  0.00    +0.000 C 
ATOM      6  C   UNL     1       1.710   8.314  18.969  0.00  0.00    +0.000 C 
ATOM      7  C   UNL     1       1.244   8.295  21.468  0.00  0.00    +0.000 C 
ATOM      8  C   UNL     1       1.207   9.477  22.448  0.00  0.00    +0.000 C 
ATOM      9  C   UNL     1       0.017  10.407  22.218  0.00  0.00    +0.000 C 
ATOM     10  C   UNL     1      -0.053  10.882  20.750  0.00  0.00    +0.000 C 
ATOM     11  C   UNL     1       1.232  11.651  20.328  0.00  0.00    +0.000 C 
ENDROOT
BRANCH   6  12
ATOM     12  C   UNL     1       2.870   7.455  19.013  0.00  0.00    +0.000 C 
ATOM     13  C   UNL     1       2.858   6.143  19.323  0.00  0.00    +0.000 C 
ATOM     14  C   UNL     1       4.152   5.364  19.410  0.00  0.00    +0.000 C 
ATOM     15  C   UNL     1       4.119   4.077  18.574  0.00  0.00    +0.000 C 
ATOM     16  C   UNL     1       2.890   3.227  18.903  0.00  0.00    +0.000 C 
ATOM     17  C   UNL     1       1.594   4.021  18.751  0.00  0.00    +0.000 C 
ATOM     18  C   UNL     1       1.609   5.317  19.577  0.00  0.00    +0.000 C 
BRANCH  15  19
ATOM     19  O   UNL     1       5.302   3.316  18.817  0.00  0.00    +0.000 OA
ATOM     20  H   UNL     1       5.053   2.514  19.306  0.00  0.00    +0.000 HD
ENDBRANCH  15  19
BRANCH  17  21
ATOM     21  O   UNL     1       1.357   4.294  17.369  0.00  0.00    +0.000 OA
ATOM     22  H   UNL     1       0.475   3.956  17.133  0.00  0.00    +0.000 HD
ENDBRANCH  17  21
ENDBRANCH   6  12
BRANCH   1  24
ATOM     23  C   UNL     1      -0.801  13.569  22.085  0.00  0.00    +0.000 C 
ATOM     24  C   UNL     1      -1.301  13.230  20.674  0.00  0.00    +0.000 C 
BRANCH  24  25
ATOM     25  C   UNL     1      -2.683  13.901  20.464  0.00  0.00    +0.000 C 
BRANCH  25  26
ATOM     26  C   UNL     1      -3.542  14.014  21.740  0.00  0.00    +0.000 C 
BRANCH  26  27
ATOM     27  C   UNL     1      -4.343  12.754  22.088  0.00  0.00    +0.000 C 
BRANCH  27  28
ATOM     28  C   UNL     1      -5.777  12.841  21.582  0.00  0.00    +0.000 C 
BRANCH  28  29
ATOM     29  N   UNL     1      -5.914  12.283  20.254  0.00  0.00    +0.000 N 
ATOM     30  C   UNL     1      -6.674  11.154  20.017  0.00  0.00    +0.000 C 
ATOM     31  O   UNL     1      -7.187  10.493  20.919  0.00  0.00    +0.000 OA
ATOM     32  H   UNL     1      -5.597  12.831  19.462  0.00  0.00    +0.000 HD
BRANCH  30  33
ATOM     33  C   UNL     1      -6.763  10.745  18.570  0.00  0.00    +0.000 C 
ATOM     34 BR   UNL     1      -5.312  11.590  17.588  0.00  0.00    +0.000 Br
ENDBRANCH  30  33
ENDBRANCH  28  29
ENDBRANCH  27  28
ENDBRANCH  26  27
ENDBRANCH  25  26
ENDBRANCH  24  25
ENDBRANCH   1  24
TORSDOF 10
ENDMDL
MODEL 2
REMARK VINA RESULT:      -6.7      4.100      9.688
REMARK  Name = 
REMARK  12 active torsions:
REMARK  status: ('A' for Active; 'I' for Inactive)
REMARK    1  A    between atoms: C_1  and  C_2
REMARK    2  A    between atoms: C_2  and  C_3
REMARK    3  A    between atoms: C_2  and  C_12
REMARK    4  A    between atoms: C_3  and  C_4
REMARK    5  A    between atoms: C_4  and  C_5
REMARK    6  A    between atoms: C_5  and  C_6
REMARK    7  A    between atoms: C_6  and  N_7
REMARK    8  A    between atoms: C_8  and  C_10
REMARK    9  A    between atoms: C_17  and  C_18
REMARK   10  A    between atoms: C_21  and  O_22
REMARK   11  A    between atoms: C_24  and  O_25
REMARK   12  A    between atoms: C_30  and  C_31
REMARK                            x       y       z     vdW  Elec       q    Type
REMARK                         _______ _______ _______ _____ _____    ______ ____
ROOT
ATOM      1  C   UNL     1       0.526   9.064  20.117  0.00  0.00    +0.000 C 
ATOM      2  C   UNL     1       0.789   8.638  21.592  0.00  0.00    +0.000 C 
ATOM      3  C   UNL     1       0.205   9.737  22.496  0.00  0.00    +0.000 C 
ATOM      4  C   UNL     1      -0.790  10.460  21.592  0.00  0.00    +0.000 C 
ATOM      5  C   UNL     1      -1.369  11.821  21.943  0.00  0.00    +0.000 C 
ATOM      6  C   UNL     1      -1.042  12.484  23.067  0.00  0.00    +0.000 C 
ATOM      7  C   UNL     1      -2.289  12.364  20.854  0.00  0.00    +0.000 C 
ATOM      8  C   UNL     1      -1.717  12.235  19.435  0.00  0.00    +0.000 C 
ATOM      9  C   UNL     1      -1.081  10.871  19.168  0.00  0.00    +0.000 C 
ATOM     10  C   UNL     1      -0.027  10.520  20.241  0.00  0.00    +0.000 C 
ATOM     11  C   UNL     1       1.120  11.571  20.291  0.00  0.00    +0.000 C 
ENDROOT
BRANCH   6  12
ATOM     12  C   UNL     1      -1.540  13.781  23.464  0.00  0.00    +0.000 C 
ATOM     13  C   UNL     1      -0.978  14.964  23.142  0.00  0.00    +0.000 C 
ATOM     14  C   UNL     1      -1.551  16.256  23.682  0.00  0.00    +0.000 C 
ATOM     15  C   UNL     1      -1.811  17.288  22.576  0.00  0.00    +0.000 C 
ATOM     16  C   UNL     1      -0.571  17.505  21.709  0.00  0.00    +0.000 C 
ATOM     17  C   UNL     1      -0.046  16.192  21.130  0.00  0.00    +0.000 C 
ATOM     18  C   UNL     1       0.216  15.142  22.221  0.00  0.00    +0.000 C 
BRANCH  15  19
ATOM     19  O   UNL     1      -2.205  18.530  23.162  0.00  0.00    +0.000 OA
ATOM     20  H   UNL     1      -1.955  19.246  22.553  0.00  0.00    +0.000 HD
ENDBRANCH  15  19
BRANCH  17  21
ATOM     21  O   UNL     1      -0.963  15.699  20.151  0.00  0.00    +0.000 OA
ATOM     22  H   UNL     1      -0.836  14.737  20.063  0.00  0.00    +0.000 HD
ENDBRANCH  17  21
ENDBRANCH   6  12
BRANCH   1  24
ATOM     23  C   UNL     1       1.407   9.137  17.704  0.00  0.00    +0.000 C 
ATOM     24  C   UNL     1       1.751   8.854  19.173  0.00  0.00    +0.000 C 
BRANCH  24  25
ATOM     25  C   UNL     1       2.332   7.421  19.278  0.00  0.00    +0.000 C 
BRANCH  25  26
ATOM     26  C   UNL     1       3.198   6.990  18.076  0.00  0.00    +0.000 C 
BRANCH  26  27
ATOM     27  C   UNL     1       4.219   5.889  18.385  0.00  0.00    +0.000 C 
BRANCH  27  28
ATOM     28  C   UNL     1       3.822   4.560  17.755  0.00  0.00    +0.000 C 
BRANCH  28  29
ATOM     29  N   UNL     1       2.925   3.808  18.606  0.00  0.00    +0.000 N 
ATOM     30  C   UNL     1       1.598   3.615  18.271  0.00  0.00    +0.000 C 
ATOM     31  O   UNL     1       1.070   4.153  17.299  0.00  0.00    +0.000 OA
ATOM     32  H   UNL     1       3.318   3.264  19.366  0.00  0.00    +0.000 HD
BRANCH  30  33
ATOM     33  C   UNL     1       0.821   2.756  19.234  0.00  0.00    +0.000 C 
ATOM     34 BR   UNL     1       1.456   3.105  21.040  0.00  0.00    +0.000 Br
ENDBRANCH  30  33
ENDBRANCH  28  29
ENDBRANCH  27  28
ENDBRANCH  26  27
ENDBRANCH  25  26
ENDBRANCH  24  25
ENDBRANCH   1  24
TORSDOF 10
ENDMDL
MODEL 3
REMARK VINA RESULT:      -6.7      4.009      9.908
REMARK  Name = 
REMARK  12 active torsions:
REMARK  status: ('A' for Active; 'I' for Inactive)
REMARK    1  A    between atoms: C_1  and  C_2
REMARK    2  A    between atoms: C_2  and  C_3
REMARK    3  A    between atoms: C_2  and  C_12
REMARK    4  A    between atoms: C_3  and  C_4
REMARK    5  A    between atoms: C_4  and  C_5
REMARK    6  A    between atoms: C_5  and  C_6
REMARK    7  A    between atoms: C_6  and  N_7
REMARK    8  A    between atoms: C_8  and  C_10
REMARK    9  A    between atoms: C_17  and  C_18
REMARK   10  A    between atoms: C_21  and  O_22
REMARK   11  A    between atoms: C_24  and  O_25
REMARK   12  A    between atoms: C_30  and  C_31
REMARK                            x       y       z     vdW  Elec       q    Type
REMARK                         _______ _______ _______ _____ _____    ______ ____
ROOT
ATOM      1  C   UNL     1       0.655   8.919  20.177  0.00  0.00    +0.000 C 
ATOM      2  C   UNL     1       0.950   8.581  21.668  0.00  0.00    +0.000 C 
ATOM      3  C   UNL     1       0.343   9.708  22.521  0.00  0.00    +0.000 C 
ATOM      4  C   UNL     1      -0.686  10.351  21.594  0.00  0.00    +0.000 C 
ATOM      5  C   UNL     1      -1.303  11.710  21.880  0.00  0.00    +0.000 C 
ATOM      6  C   UNL     1      -0.983  12.443  22.962  0.00  0.00    +0.000 C 
ATOM      7  C   UNL     1      -2.253  12.165  20.777  0.00  0.00    +0.000 C 
ATOM      8  C   UNL     1      -1.695  11.977  19.359  0.00  0.00    +0.000 C 
ATOM      9  C   UNL     1      -1.020  10.622  19.156  0.00  0.00    +0.000 C 
ATOM     10  C   UNL     1       0.057  10.361  20.231  0.00  0.00    +0.000 C 
ATOM     11  C   UNL     1       1.171  11.448  20.209  0.00  0.00    +0.000 C 
ENDROOT
BRANCH   6  12
ATOM     12  C   UNL     1      -1.516  13.743  23.296  0.00  0.00    +0.000 C 
ATOM     13  C   UNL     1      -1.057  14.919  22.824  0.00  0.00    +0.000 C 
ATOM     14  C   UNL     1      -1.652  16.224  23.308  0.00  0.00    +0.000 C 
ATOM     15  C   UNL     1      -2.073  17.140  22.150  0.00  0.00    +0.000 C 
ATOM     16  C   UNL     1      -0.933  17.341  21.151  0.00  0.00    +0.000 C 
ATOM     17  C   UNL     1      -0.389  16.009  20.635  0.00  0.00    +0.000 C 
ATOM     18  C   UNL     1       0.034  15.075  21.779  0.00  0.00    +0.000 C 
BRANCH  15  19
ATOM     19  O   UNL     1      -2.482  18.407  22.666  0.00  0.00    +0.000 OA
ATOM     20  H   UNL     1      -3.063  18.829  22.010  0.00  0.00    +0.000 HD
ENDBRANCH  15  19
BRANCH  17  21
ATOM     21  O   UNL     1      -1.363  15.386  19.795  0.00  0.00    +0.000 OA
ATOM     22  H   UNL     1      -1.366  15.842  18.934  0.00  0.00    +0.000 HD
ENDBRANCH  17  21
ENDBRANCH   6  12
BRANCH   1  24
ATOM     23  C   UNL     1       1.502   8.889  17.751  0.00  0.00    +0.000 C 
ATOM     24  C   UNL     1       1.874   8.696  19.228  0.00  0.00    +0.000 C 
BRANCH  24  25
ATOM     25  C   UNL     1       2.501   7.289  19.401  0.00  0.00    +0.000 C 
BRANCH  25  26
ATOM     26  C   UNL     1       2.393   6.381  18.158  0.00  0.00    +0.000 C 
BRANCH  26  27
ATOM     27  C   UNL     1       3.736   5.908  17.592  0.00  0.00    +0.000 C 
BRANCH  27  28
ATOM     28  C   UNL     1       3.820   4.388  17.535  0.00  0.00    +0.000 C 
BRANCH  28  29
ATOM     29  N   UNL     1       3.124   3.769  18.642  0.00  0.00    +0.000 N 
ATOM     30  C   UNL     1       3.807   3.214  19.708  0.00  0.00    +0.000 C 
ATOM     31  O   UNL     1       5.032   3.110  19.735  0.00  0.00    +0.000 OA
ATOM     32  H   UNL     1       2.123   3.905  18.724  0.00  0.00    +0.000 HD
BRANCH  30  33
ATOM     33  C   UNL     1       2.930   2.669  20.805  0.00  0.00    +0.000 C 
ATOM     34 BR   UNL     1       1.149   3.432  20.623  0.00  0.00    +0.000 Br
ENDBRANCH  30  33
ENDBRANCH  28  29
ENDBRANCH  27  28
ENDBRANCH  26  27
ENDBRANCH  25  26
ENDBRANCH  24  25
ENDBRANCH   1  24
TORSDOF 10
ENDMDL
MODEL 4
REMARK VINA RESULT:      -6.6      1.701      2.535
REMARK  Name = 
REMARK  12 active torsions:
REMARK  status: ('A' for Active; 'I' for Inactive)
REMARK    1  A    between atoms: C_1  and  C_2
REMARK    2  A    between atoms: C_2  and  C_3
REMARK    3  A    between atoms: C_2  and  C_12
REMARK    4  A    between atoms: C_3  and  C_4
REMARK    5  A    between atoms: C_4  and  C_5
REMARK    6  A    between atoms: C_5  and  C_6
REMARK    7  A    between atoms: C_6  and  N_7
REMARK    8  A    between atoms: C_8  and  C_10
REMARK    9  A    between atoms: C_17  and  C_18
REMARK   10  A    between atoms: C_21  and  O_22
REMARK   11  A    between atoms: C_24  and  O_25
REMARK   12  A    between atoms: C_30  and  C_31
REMARK                            x       y       z     vdW  Elec       q    Type
REMARK                         _______ _______ _______ _____ _____    ______ ____
ROOT
ATOM      1  C   UNL     1      -0.252  11.245  21.556  0.00  0.00    +0.000 C 
ATOM      2  C   UNL     1      -0.002  10.292  22.762  0.00  0.00    +0.000 C 
ATOM      3  C   UNL     1       0.687   9.031  22.214  0.00  0.00    +0.000 C 
ATOM      4  C   UNL     1       1.264   9.487  20.875  0.00  0.00    +0.000 C 
ATOM      5  C   UNL     1       1.748   8.505  19.820  0.00  0.00    +0.000 C 
ATOM      6  C   UNL     1       1.697   7.171  19.989  0.00  0.00    +0.000 C 
ATOM      7  C   UNL     1       2.220   9.199  18.547  0.00  0.00    +0.000 C 
ATOM      8  C   UNL     1       1.266  10.292  18.044  0.00  0.00    +0.000 C 
ATOM      9  C   UNL     1       0.755  11.199  19.162  0.00  0.00    +0.000 C 
ATOM     10  C   UNL     1       0.127  10.381  20.311  0.00  0.00    +0.000 C 
ATOM     11  C   UNL     1      -1.072   9.519  19.820  0.00  0.00    +0.000 C 
ENDROOT
BRANCH   6  12
ATOM     12  C   UNL     1       2.126   6.176  19.032  0.00  0.00    +0.000 C 
ATOM     13  C   UNL     1       2.499   4.916  19.331  0.00  0.00    +0.000 C 
ATOM     14  C   UNL     1       3.003   3.988  18.248  0.00  0.00    +0.000 C 
ATOM     15  C   UNL     1       2.274   2.638  18.248  0.00  0.00    +0.000 C 
ATOM     16  C   UNL     1       2.288   1.994  19.635  0.00  0.00    +0.000 C 
ATOM     17  C   UNL     1       1.722   2.930  20.702  0.00  0.00    +0.000 C 
ATOM     18  C   UNL     1       2.435   4.291  20.714  0.00  0.00    +0.000 C 
BRANCH  15  19
ATOM     19  O   UNL     1       2.893   1.758  17.309  0.00  0.00    +0.000 OA
ATOM     20  H   UNL     1       3.771   1.517  17.652  0.00  0.00    +0.000 HD
ENDBRANCH  15  19
BRANCH  17  21
ATOM     21  O   UNL     1       0.316   3.088  20.504  0.00  0.00    +0.000 OA
ATOM     22  H   UNL     1      -0.145   2.355  20.951  0.00  0.00    +0.000 HD
ENDBRANCH  17  21
ENDBRANCH   6  12
BRANCH   1  24
ATOM     23  C   UNL     1      -1.668  13.286  20.895  0.00  0.00    +0.000 C 
ATOM     24  C   UNL     1      -1.669  11.899  21.555  0.00  0.00    +0.000 C 
BRANCH  24  25
ATOM     25  C   UNL     1      -2.255  12.031  22.983  0.00  0.00    +0.000 C 
BRANCH  25  26
ATOM     26  C   UNL     1      -3.509  12.925  23.083  0.00  0.00    +0.000 C 
BRANCH  26  27
ATOM     27  C   UNL     1      -4.456  12.573  24.236  0.00  0.00    +0.000 C 
BRANCH  27  28
ATOM     28  C   UNL     1      -5.888  12.999  23.939  0.00  0.00    +0.000 C 
BRANCH  28  29
ATOM     29  N   UNL     1      -6.210  12.862  22.535  0.00  0.00    +0.000 N 
ATOM     30  C   UNL     1      -7.240  12.048  22.104  0.00  0.00    +0.000 C 
ATOM     31  O   UNL     1      -7.872  11.312  22.861  0.00  0.00    +0.000 OA
ATOM     32  H   UNL     1      -5.793  13.508  21.875  0.00  0.00    +0.000 HD
BRANCH  30  33
ATOM     33  C   UNL     1      -7.483  12.069  20.617  0.00  0.00    +0.000 C 
ATOM     34 BR   UNL     1      -5.835  12.584  19.720  0.00  0.00    +0.000 Br
ENDBRANCH  30  33
ENDBRANCH  28  29
ENDBRANCH  27  28
ENDBRANCH  26  27
ENDBRANCH  25  26
ENDBRANCH  24  25
ENDBRANCH   1  24
TORSDOF 10
ENDMDL
MODEL 5
REMARK VINA RESULT:      -6.6      3.693     10.031
REMARK  Name = 
REMARK  12 active torsions:
REMARK  status: ('A' for Active; 'I' for Inactive)
REMARK    1  A    between atoms: C_1  and  C_2
REMARK    2  A    between atoms: C_2  and  C_3
REMARK    3  A    between atoms: C_2  and  C_12
REMARK    4  A    between atoms: C_3  and  C_4
REMARK    5  A    between atoms: C_4  and  C_5
REMARK    6  A    between atoms: C_5  and  C_6
REMARK    7  A    between atoms: C_6  and  N_7
REMARK    8  A    between atoms: C_8  and  C_10
REMARK    9  A    between atoms: C_17  and  C_18
REMARK   10  A    between atoms: C_21  and  O_22
REMARK   11  A    between atoms: C_24  and  O_25
REMARK   12  A    between atoms: C_30  and  C_31
REMARK                            x       y       z     vdW  Elec       q    Type
REMARK                         _______ _______ _______ _____ _____    ______ ____
ROOT
ATOM      1  C   UNL     1       0.653   8.929  19.842  0.00  0.00    +0.000 C 
ATOM      2  C   UNL     1       0.620   8.549  21.352  0.00  0.00    +0.000 C 
ATOM      3  C   UNL     1      -0.116   9.679  22.092  0.00  0.00    +0.000 C 
ATOM      4  C   UNL     1      -0.908  10.379  20.989  0.00  0.00    +0.000 C 
ATOM      5  C   UNL     1      -1.528  11.754  21.180  0.00  0.00    +0.000 C 
ATOM      6  C   UNL     1      -1.417  12.451  22.325  0.00  0.00    +0.000 C 
ATOM      7  C   UNL     1      -2.212  12.267  19.917  0.00  0.00    +0.000 C 
ATOM      8  C   UNL     1      -1.377  12.089  18.641  0.00  0.00    +0.000 C 
ATOM      9  C   UNL     1      -0.718  10.714  18.544  0.00  0.00    +0.000 C 
ATOM     10  C   UNL     1       0.103  10.392  19.811  0.00  0.00    +0.000 C 
ATOM     11  C   UNL     1       1.231  11.437  20.052  0.00  0.00    +0.000 C 
ENDROOT
BRANCH   6  12
ATOM     12  C   UNL     1      -1.967  13.763  22.578  0.00  0.00    +0.000 C 
ATOM     13  C   UNL     1      -3.280  14.054  22.673  0.00  0.00    +0.000 C 
ATOM     14  C   UNL     1      -3.737  15.483  22.865  0.00  0.00    +0.000 C 
ATOM     15  C   UNL     1      -4.707  15.634  24.045  0.00  0.00    +0.000 C 
ATOM     16  C   UNL     1      -5.871  14.647  23.942  0.00  0.00    +0.000 C 
ATOM     17  C   UNL     1      -5.383  13.206  23.806  0.00  0.00    +0.000 C 
ATOM     18  C   UNL     1      -4.405  13.034  22.633  0.00  0.00    +0.000 C 
BRANCH  15  19
ATOM     19  O   UNL     1      -5.216  16.968  24.079  0.00  0.00    +0.000 OA
ATOM     20  H   UNL     1      -4.530  17.564  23.734  0.00  0.00    +0.000 HD
ENDBRANCH  15  19
BRANCH  17  21
ATOM     21  O   UNL     1      -4.792  12.781  25.035  0.00  0.00    +0.000 OA
ATOM     22  H   UNL     1      -5.493  12.704  25.707  0.00  0.00    +0.000 HD
ENDBRANCH  17  21
ENDBRANCH   6  12
BRANCH   1  24
ATOM     23  C   UNL     1       1.996   8.958  17.651  0.00  0.00    +0.000 C 
ATOM     24  C   UNL     1       2.035   8.682  19.161  0.00  0.00    +0.000 C 
BRANCH  24  25
ATOM     25  C   UNL     1       2.548   7.237  19.386  0.00  0.00    +0.000 C 
BRANCH  25  26
ATOM     26  C   UNL     1       2.801   6.436  18.092  0.00  0.00    +0.000 C 
BRANCH  26  27
ATOM     27  C   UNL     1       4.274   6.113  17.815  0.00  0.00    +0.000 C 
BRANCH  27  28
ATOM     28  C   UNL     1       4.478   4.635  17.508  0.00  0.00    +0.000 C 
BRANCH  28  29
ATOM     29  N   UNL     1       3.788   3.788  18.456  0.00  0.00    +0.000 N 
ATOM     30  C   UNL     1       2.694   3.028  18.088  0.00  0.00    +0.000 C 
ATOM     31  O   UNL     1       2.172   3.104  16.976  0.00  0.00    +0.000 OA
ATOM     32  H   UNL     1       4.222   3.611  19.355  0.00  0.00    +0.000 HD
BRANCH  30  33
ATOM     33  C   UNL     1       2.135   2.154  19.180  0.00  0.00    +0.000 C 
ATOM     34 BR   UNL     1       1.150   3.269  20.434  0.00  0.00    +0.000 Br
ENDBRANCH  30  33
ENDBRANCH  28  29
ENDBRANCH  27  28
ENDBRANCH  26  27
ENDBRANCH  25  26
ENDBRANCH  24  25
ENDBRANCH   1  24
TORSDOF 10
ENDMDL
MODEL 6
REMARK VINA RESULT:      -6.4      4.117     10.479
REMARK  Name = 
REMARK  12 active torsions:
REMARK  status: ('A' for Active; 'I' for Inactive)
REMARK    1  A    between atoms: C_1  and  C_2
REMARK    2  A    between atoms: C_2  and  C_3
REMARK    3  A    between atoms: C_2  and  C_12
REMARK    4  A    between atoms: C_3  and  C_4
REMARK    5  A    between atoms: C_4  and  C_5
REMARK    6  A    between atoms: C_5  and  C_6
REMARK    7  A    between atoms: C_6  and  N_7
REMARK    8  A    between atoms: C_8  and  C_10
REMARK    9  A    between atoms: C_17  and  C_18
REMARK   10  A    between atoms: C_21  and  O_22
REMARK   11  A    between atoms: C_24  and  O_25
REMARK   12  A    between atoms: C_30  and  C_31
REMARK                            x       y       z     vdW  Elec       q    Type
REMARK                         _______ _______ _______ _____ _____    ______ ____
ROOT
ATOM      1  C   UNL     1       0.728   8.708  19.914  0.00  0.00    +0.000 C 
ATOM      2  C   UNL     1       0.744   8.430  21.447  0.00  0.00    +0.000 C 
ATOM      3  C   UNL     1       0.045   9.616  22.134  0.00  0.00    +0.000 C 
ATOM      4  C   UNL     1      -0.779  10.249  21.015  0.00  0.00    +0.000 C 
ATOM      5  C   UNL     1      -1.379  11.641  21.133  0.00  0.00    +0.000 C 
ATOM      6  C   UNL     1      -1.222  12.412  22.225  0.00  0.00    +0.000 C 
ATOM      7  C   UNL     1      -2.102  12.076  19.863  0.00  0.00    +0.000 C 
ATOM      8  C   UNL     1      -1.314  11.803  18.574  0.00  0.00    +0.000 C 
ATOM      9  C   UNL     1      -0.671  10.418  18.548  0.00  0.00    +0.000 C 
ATOM     10  C   UNL     1       0.191  10.171  19.805  0.00  0.00    +0.000 C 
ATOM     11  C   UNL     1       1.336  11.217  19.935  0.00  0.00    +0.000 C 
ENDROOT
BRANCH   6  12
ATOM     12  C   UNL     1      -1.751  13.744  22.408  0.00  0.00    +0.000 C 
ATOM     13  C   UNL     1      -3.055  14.052  22.556  0.00  0.00    +0.000 C 
ATOM     14  C   UNL     1      -3.493  15.496  22.665  0.00  0.00    +0.000 C 
ATOM     15  C   UNL     1      -4.392  15.745  23.884  0.00  0.00    +0.000 C 
ATOM     16  C   UNL     1      -5.564  14.763  23.926  0.00  0.00    +0.000 C 
ATOM     17  C   UNL     1      -5.090  13.311  23.873  0.00  0.00    +0.000 C 
ATOM     18  C   UNL     1      -4.184  13.042  22.661  0.00  0.00    +0.000 C 
BRANCH  15  19
ATOM     19  O   UNL     1      -4.893  17.082  23.845  0.00  0.00    +0.000 OA
ATOM     20  H   UNL     1      -4.304  17.643  24.379  0.00  0.00    +0.000 HD
ENDBRANCH  15  19
BRANCH  17  21
ATOM     21  O   UNL     1      -4.429  12.978  25.095  0.00  0.00    +0.000 OA
ATOM     22  H   UNL     1      -3.962  13.767  25.420  0.00  0.00    +0.000 HD
ENDBRANCH  17  21
ENDBRANCH   6  12
BRANCH   1  24
ATOM     23  C   UNL     1       2.009   8.630  17.688  0.00  0.00    +0.000 C 
ATOM     24  C   UNL     1       2.083   8.400  19.205  0.00  0.00    +0.000 C 
BRANCH  24  25
ATOM     25  C   UNL     1       2.562   6.948  19.462  0.00  0.00    +0.000 C 
BRANCH  25  26
ATOM     26  C   UNL     1       2.181   5.941  18.357  0.00  0.00    +0.000 C 
BRANCH  26  27
ATOM     27  C   UNL     1       2.935   4.608  18.418  0.00  0.00    +0.000 C 
BRANCH  27  28
ATOM     28  C   UNL     1       4.426   4.813  18.649  0.00  0.00    +0.000 C 
BRANCH  28  29
ATOM     29  N   UNL     1       5.173   4.770  17.411  0.00  0.00    +0.000 N 
ATOM     30  C   UNL     1       6.541   4.576  17.395  0.00  0.00    +0.000 C 
ATOM     31  O   UNL     1       7.222   4.538  18.420  0.00  0.00    +0.000 OA
ATOM     32  H   UNL     1       4.663   4.701  16.538  0.00  0.00    +0.000 HD
BRANCH  30  33
ATOM     33  C   UNL     1       7.153   4.494  16.021  0.00  0.00    +0.000 C 
ATOM     34 BR   UNL     1       5.725   4.448  14.700  0.00  0.00    +0.000 Br
ENDBRANCH  30  33
ENDBRANCH  28  29
ENDBRANCH  27  28
ENDBRANCH  26  27
ENDBRANCH  25  26
ENDBRANCH  24  25
ENDBRANCH   1  24
TORSDOF 10
ENDMDL
MODEL 7
REMARK VINA RESULT:      -6.4      3.822      5.090
REMARK  Name = 
REMARK  12 active torsions:
REMARK  status: ('A' for Active; 'I' for Inactive)
REMARK    1  A    between atoms: C_1  and  C_2
REMARK    2  A    between atoms: C_2  and  C_3
REMARK    3  A    between atoms: C_2  and  C_12
REMARK    4  A    between atoms: C_3  and  C_4
REMARK    5  A    between atoms: C_4  and  C_5
REMARK    6  A    between atoms: C_5  and  C_6
REMARK    7  A    between atoms: C_6  and  N_7
REMARK    8  A    between atoms: C_8  and  C_10
REMARK    9  A    between atoms: C_17  and  C_18
REMARK   10  A    between atoms: C_21  and  O_22
REMARK   11  A    between atoms: C_24  and  O_25
REMARK   12  A    between atoms: C_30  and  C_31
REMARK                            x       y       z     vdW  Elec       q    Type
REMARK                         _______ _______ _______ _____ _____    ______ ____
ROOT
ATOM      1  C   UNL     1      -1.089  11.754  19.934  0.00  0.00    +0.000 C 
ATOM      2  C   UNL     1      -1.348  11.300  18.467  0.00  0.00    +0.000 C 
ATOM      3  C   UNL     1      -0.424  10.102  18.190  0.00  0.00    +0.000 C 
ATOM      4  C   UNL     1      -0.066   9.590  19.584  0.00  0.00    +0.000 C 
ATOM      5  C   UNL     1       1.083   8.625  19.827  0.00  0.00    +0.000 C 
ATOM      6  C   UNL     1       1.867   8.161  18.836  0.00  0.00    +0.000 C 
ATOM      7  C   UNL     1       1.281   8.311  21.306  0.00  0.00    +0.000 C 
ATOM      8  C   UNL     1       1.255   9.550  22.213  0.00  0.00    +0.000 C 
ATOM      9  C   UNL     1       0.124  10.518  21.870  0.00  0.00    +0.000 C 
ATOM     10  C   UNL     1       0.147  10.907  20.376  0.00  0.00    +0.000 C 
ATOM     11  C   UNL     1       1.487  11.591  19.977  0.00  0.00    +0.000 C 
ENDROOT
BRANCH   6  12
ATOM     12  C   UNL     1       2.980   7.253  18.988  0.00  0.00    +0.000 C 
ATOM     13  C   UNL     1       2.887   5.957  19.345  0.00  0.00    +0.000 C 
ATOM     14  C   UNL     1       4.135   5.125  19.546  0.00  0.00    +0.000 C 
ATOM     15  C   UNL     1       4.094   3.808  18.758  0.00  0.00    +0.000 C 
ATOM     16  C   UNL     1       2.809   3.028  19.039  0.00  0.00    +0.000 C 
ATOM     17  C   UNL     1       1.563   3.872  18.774  0.00  0.00    +0.000 C 
ATOM     18  C   UNL     1       1.587   5.198  19.549  0.00  0.00    +0.000 C 
BRANCH  15  19
ATOM     19  O   UNL     1       5.223   3.006  19.106  0.00  0.00    +0.000 OA
ATOM     20  H   UNL     1       5.753   3.494  19.759  0.00  0.00    +0.000 HD
ENDBRANCH  15  19
BRANCH  17  21
ATOM     21  O   UNL     1       1.427   4.099  17.370  0.00  0.00    +0.000 OA
ATOM     22  H   UNL     1       1.533   5.051  17.198  0.00  0.00    +0.000 HD
ENDBRANCH  17  21
ENDBRANCH   6  12
BRANCH   1  24
ATOM     23  C   UNL     1      -2.242  13.908  20.733  0.00  0.00    +0.000 C 
ATOM     24  C   UNL     1      -0.980  13.302  20.103  0.00  0.00    +0.000 C 
BRANCH  24  25
ATOM     25  C   UNL     1      -0.704  14.020  18.758  0.00  0.00    +0.000 C 
BRANCH  25  26
ATOM     26  C   UNL     1       0.001  15.385  18.891  0.00  0.00    +0.000 C 
BRANCH  26  27
ATOM     27  C   UNL     1       1.527  15.309  19.017  0.00  0.00    +0.000 C 
BRANCH  27  28
ATOM     28  C   UNL     1       2.046  16.199  20.138  0.00  0.00    +0.000 C 
BRANCH  28  29
ATOM     29  N   UNL     1       3.352  15.780  20.598  0.00  0.00    +0.000 N 
ATOM     30  C   UNL     1       3.501  14.835  21.595  0.00  0.00    +0.000 C 
ATOM     31  O   UNL     1       2.551  14.376  22.227  0.00  0.00    +0.000 OA
ATOM     32  H   UNL     1       4.167  16.048  20.057  0.00  0.00    +0.000 HD
BRANCH  30  33
ATOM     33  C   UNL     1       4.928  14.466  21.909  0.00  0.00    +0.000 C 
ATOM     34 BR   UNL     1       6.079  15.157  20.500  0.00  0.00    +0.000 Br
ENDBRANCH  30  33
ENDBRANCH  28  29
ENDBRANCH  27  28
ENDBRANCH  26  27
ENDBRANCH  25  26
ENDBRANCH  24  25
ENDBRANCH   1  24
TORSDOF 10
ENDMDL
MODEL 8
REMARK VINA RESULT:      -6.4      3.502      9.670
REMARK  Name = 
REMARK  12 active torsions:
REMARK  status: ('A' for Active; 'I' for Inactive)
REMARK    1  A    between atoms: C_1  and  C_2
REMARK    2  A    between atoms: C_2  and  C_3
REMARK    3  A    between atoms: C_2  and  C_12
REMARK    4  A    between atoms: C_3  and  C_4
REMARK    5  A    between atoms: C_4  and  C_5
REMARK    6  A    between atoms: C_5  and  C_6
REMARK    7  A    between atoms: C_6  and  N_7
REMARK    8  A    between atoms: C_8  and  C_10
REMARK    9  A    between atoms: C_17  and  C_18
REMARK   10  A    between atoms: C_21  and  O_22
REMARK   11  A    between atoms: C_24  and  O_25
REMARK   12  A    between atoms: C_30  and  C_31
REMARK                            x       y       z     vdW  Elec       q    Type
REMARK                         _______ _______ _______ _____ _____    ______ ____
ROOT
ATOM      1  C   UNL     1       1.182  10.822  19.895  0.00  0.00    +0.000 C 
ATOM      2  C   UNL     1       1.489  11.907  18.821  0.00  0.00    +0.000 C 
ATOM      3  C   UNL     1       0.577  13.111  19.115  0.00  0.00    +0.000 C 
ATOM      4  C   UNL     1       0.177  12.915  20.576  0.00  0.00    +0.000 C 
ATOM      5  C   UNL     1      -0.977  13.673  21.212  0.00  0.00    +0.000 C 
ATOM      6  C   UNL     1      -1.728  14.561  20.535  0.00  0.00    +0.000 C 
ATOM      7  C   UNL     1      -1.221  13.258  22.659  0.00  0.00    +0.000 C 
ATOM      8  C   UNL     1      -1.227  11.738  22.879  0.00  0.00    +0.000 C 
ATOM      9  C   UNL     1      -0.088  11.025  22.152  0.00  0.00    +0.000 C 
ATOM     10  C   UNL     1      -0.065  11.383  20.650  0.00  0.00    +0.000 C 
ATOM     11  C   UNL     1      -1.393  10.991  19.941  0.00  0.00    +0.000 C 
ENDROOT
BRANCH   6  12
ATOM     12  C   UNL     1      -2.843  15.310  21.066  0.00  0.00    +0.000 C 
ATOM     13  C   UNL     1      -4.125  14.891  21.087  0.00  0.00    +0.000 C 
ATOM     14  C   UNL     1      -5.219  15.799  21.601  0.00  0.00    +0.000 C 
ATOM     15  C   UNL     1      -6.095  15.117  22.661  0.00  0.00    +0.000 C 
ATOM     16  C   UNL     1      -6.624  13.770  22.169  0.00  0.00    +0.000 C 
ATOM     17  C   UNL     1      -5.494  12.850  21.708  0.00  0.00    +0.000 C 
ATOM     18  C   UNL     1      -4.601  13.517  20.650  0.00  0.00    +0.000 C 
BRANCH  15  19
ATOM     19  O   UNL     1      -7.194  15.967  22.994  0.00  0.00    +0.000 OA
ATOM     20  H   UNL     1      -8.004  15.428  23.001  0.00  0.00    +0.000 HD
ENDBRANCH  15  19
BRANCH  17  21
ATOM     21  O   UNL     1      -4.727  12.430  22.838  0.00  0.00    +0.000 OA
ATOM     22  H   UNL     1      -4.547  13.207  23.397  0.00  0.00    +0.000 HD
ENDBRANCH  17  21
ENDBRANCH   6  12
BRANCH   1  24
ATOM     23  C   UNL     1       1.421   8.304  20.352  0.00  0.00    +0.000 C 
ATOM     24  C   UNL     1       1.064   9.378  19.314  0.00  0.00    +0.000 C 
BRANCH  24  25
ATOM     25  C   UNL     1       1.957   9.175  18.064  0.00  0.00    +0.000 C 
BRANCH  25  26
ATOM     26  C   UNL     1       2.287   7.702  17.743  0.00  0.00    +0.000 C 
BRANCH  26  27
ATOM     27  C   UNL     1       3.784   7.386  17.652  0.00  0.00    +0.000 C 
BRANCH  27  28
ATOM     28  C   UNL     1       4.097   5.989  18.170  0.00  0.00    +0.000 C 
BRANCH  28  29
ATOM     29  N   UNL     1       3.551   5.769  19.492  0.00  0.00    +0.000 N 
ATOM     30  C   UNL     1       2.631   4.769  19.739  0.00  0.00    +0.000 C 
ATOM     31  O   UNL     1       2.138   4.079  18.847  0.00  0.00    +0.000 OA
ATOM     32  H   UNL     1       3.983   6.238  20.280  0.00  0.00    +0.000 HD
BRANCH  30  33
ATOM     33  C   UNL     1       2.214   4.636  21.181  0.00  0.00    +0.000 C 
ATOM     34 BR   UNL     1       1.811   2.768  21.548  0.00  0.00    +0.000 Br
ENDBRANCH  30  33
ENDBRANCH  28  29
ENDBRANCH  27  28
ENDBRANCH  26  27
ENDBRANCH  25  26
ENDBRANCH  24  25
ENDBRANCH   1  24
TORSDOF 10
ENDMDL
MODEL 9
REMARK VINA RESULT:      -6.4      2.017      2.221
REMARK  Name = 
REMARK  12 active torsions:
REMARK  status: ('A' for Active; 'I' for Inactive)
REMARK    1  A    between atoms: C_1  and  C_2
REMARK    2  A    between atoms: C_2  and  C_3
REMARK    3  A    between atoms: C_2  and  C_12
REMARK    4  A    between atoms: C_3  and  C_4
REMARK    5  A    between atoms: C_4  and  C_5
REMARK    6  A    between atoms: C_5  and  C_6
REMARK    7  A    between atoms: C_6  and  N_7
REMARK    8  A    between atoms: C_8  and  C_10
REMARK    9  A    between atoms: C_17  and  C_18
REMARK   10  A    between atoms: C_21  and  O_22
REMARK   11  A    between atoms: C_24  and  O_25
REMARK   12  A    between atoms: C_30  and  C_31
REMARK                            x       y       z     vdW  Elec       q    Type
REMARK                         _______ _______ _______ _____ _____    ______ ____
ROOT
ATOM      1  C   UNL     1      -1.280  11.683  19.676  0.00  0.00    +0.000 C 
ATOM      2  C   UNL     1      -1.531  11.170  18.227  0.00  0.00    +0.000 C 
ATOM      3  C   UNL     1      -0.556  10.007  17.978  0.00  0.00    +0.000 C 
ATOM      4  C   UNL     1      -0.161   9.558  19.383  0.00  0.00    +0.000 C 
ATOM      5  C   UNL     1       1.034   8.655  19.644  0.00  0.00    +0.000 C 
ATOM      6  C   UNL     1       1.829   8.196  18.659  0.00  0.00    +0.000 C 
ATOM      7  C   UNL     1       1.261   8.399  21.129  0.00  0.00    +0.000 C 
ATOM      8  C   UNL     1       1.186   9.664  21.997  0.00  0.00    +0.000 C 
ATOM      9  C   UNL     1       0.008  10.568  21.636  0.00  0.00    +0.000 C 
ATOM     10  C   UNL     1      -0.001  10.909  20.131  0.00  0.00    +0.000 C 
ATOM     11  C   UNL     1       1.302  11.640  19.695  0.00  0.00    +0.000 C 
ENDROOT
BRANCH   6  12
ATOM     12  C   UNL     1       2.985   7.346  18.828  0.00  0.00    +0.000 C 
ATOM     13  C   UNL     1       2.956   6.060  19.231  0.00  0.00    +0.000 C 
ATOM     14  C   UNL     1       4.243   5.294  19.443  0.00  0.00    +0.000 C 
ATOM     15  C   UNL     1       4.253   3.950  18.702  0.00  0.00    +0.000 C 
ATOM     16  C   UNL     1       3.009   3.122  19.026  0.00  0.00    +0.000 C 
ATOM     17  C   UNL     1       1.723   3.898  18.748  0.00  0.00    +0.000 C 
ATOM     18  C   UNL     1       1.694   5.250  19.477  0.00  0.00    +0.000 C 
BRANCH  15  19
ATOM     19  O   UNL     1       5.422   3.213  19.062  0.00  0.00    +0.000 OA
ATOM     20  H   UNL     1       5.737   2.737  18.275  0.00  0.00    +0.000 HD
ENDBRANCH  15  19
BRANCH  17  21
ATOM     21  O   UNL     1       1.560   4.069  17.339  0.00  0.00    +0.000 OA
ATOM     22  H   UNL     1       1.307   4.994  17.166  0.00  0.00    +0.000 HD
ENDBRANCH  17  21
ENDBRANCH   6  12
BRANCH   1  24
ATOM     23  C   UNL     1      -0.352  13.880  18.719  0.00  0.00    +0.000 C 
ATOM     24  C   UNL     1      -1.241  13.239  19.794  0.00  0.00    +0.000 C 
BRANCH  24  25
ATOM     25  C   UNL     1      -0.749  13.708  21.187  0.00  0.00    +0.000 C 
BRANCH  25  26
ATOM     26  C   UNL     1      -1.810  14.452  22.024  0.00  0.00    +0.000 C 
BRANCH  26  27
ATOM     27  C   UNL     1      -2.285  13.699  23.272  0.00  0.00    +0.000 C 
BRANCH  27  28
ATOM     28  C   UNL     1      -3.030  12.422  22.909  0.00  0.00    +0.000 C 
BRANCH  28  29
ATOM     29  N   UNL     1      -4.464  12.613  22.922  0.00  0.00    +0.000 N 
ATOM     30  C   UNL     1      -5.207  12.455  24.076  0.00  0.00    +0.000 C 
ATOM     31  O   UNL     1      -4.725  12.040  25.129  0.00  0.00    +0.000 OA
ATOM     32  H   UNL     1      -4.904  13.044  22.116  0.00  0.00    +0.000 HD
BRANCH  30  33
ATOM     33  C   UNL     1      -6.677  12.755  23.928  0.00  0.00    +0.000 C 
ATOM     34 BR   UNL     1      -7.182  12.514  22.065  0.00  0.00    +0.000 Br
ENDBRANCH  30  33
ENDBRANCH  28  29
ENDBRANCH  27  28
ENDBRANCH  26  27
ENDBRANCH  25  26
ENDBRANCH  24  25
ENDBRANCH   1  24
TORSDOF 10
ENDMDL
