MODEL 1
REMARK VINA RESULT:      -7.2      0.000      0.000
REMARK  Name = 
REMARK  8 active torsions:
REMARK  status: ('A' for Active; 'I' for Inactive)
REMARK    1  A    between atoms: C_1  and  C_2
REMARK    2  A    between atoms: C_2  and  O_3
REMARK    3  A    between atoms: O_3  and  C_4
REMARK    4  A    between atoms: C_4  and  C_6
REMARK    5  A    between atoms: C_9  and  N_10
REMARK    6  A    between atoms: C_14  and  N_15
REMARK    7  A    between atoms: C_18  and  N_19
REMARK    8  A    between atoms: N_19  and  C_20
REMARK                            x       y       z     vdW  Elec       q    Type
REMARK                         _______ _______ _______ _____ _____    ______ ____
ROOT
ATOM      1  N   UNL     1       0.519  10.911  18.695  0.00  0.00    +0.000 N 
ATOM      2  C   UNL     1      -0.806  11.098  18.387  0.00  0.00    +0.000 C 
ATOM      3  O   UNL     1      -1.701  10.265  18.300  0.00  0.00    +0.000 OA
ATOM      4  C   UNL     1      -1.071  12.556  18.194  0.00  0.00    +0.000 C 
ATOM      5  C   UNL     1       0.271  13.231  18.454  0.00  0.00    +0.000 C 
ATOM      6  C   UNL     1       1.227  12.085  18.668  0.00  0.00    +0.000 C 
ATOM      7  O   UNL     1       2.446  12.238  18.804  0.00  0.00    +0.000 OA
ENDROOT
BRANCH   1  11
ATOM      8  C   UNL     1       2.209   7.159  19.628  0.00  0.00    +0.000 A 
ATOM      9  C   UNL     1       2.287   7.660  18.325  0.00  0.00    +0.000 A 
ATOM     10  C   UNL     1       1.720   8.893  18.021  0.00  0.00    +0.000 A 
ATOM     11  C   UNL     1       1.094   9.659  19.009  0.00  0.00    +0.000 A 
ATOM     12  C   UNL     1       1.030   9.150  20.316  0.00  0.00    +0.000 A 
ATOM     13  C   UNL     1       1.556   7.895  20.617  0.00  0.00    +0.000 A 
BRANCH   8  14
ATOM     14  C   UNL     1       2.841   5.845  19.896  0.00  0.00    +0.000 C 
ATOM     15  O   UNL     1       3.731   5.391  19.219  0.00  0.00    +0.000 OA
BRANCH  14  16
ATOM     16  O   UNL     1       2.195   5.214  20.913  0.00  0.00    +0.000 OA
BRANCH  16  18
ATOM     17  C   UNL     1       1.553   2.927  21.198  0.00  0.00    +0.000 C 
ATOM     18  C   UNL     1       1.262   4.223  20.467  0.00  0.00    +0.000 C 
ENDBRANCH  16  18
ENDBRANCH  14  16
ENDBRANCH   8  14
ENDBRANCH   1  11
BRANCH   5  19
ATOM     19  N   UNL     1       0.349  14.189  19.583  0.00  0.00    +0.000 NA
ATOM     20  C   UNL     1      -0.318  15.455  19.254  0.00  0.00    +0.000 C 
ATOM     21  C   UNL     1      -0.175  16.454  20.396  0.00  0.00    +0.000 C 
ATOM     22  C   UNL     1      -0.797  15.897  21.681  0.00  0.00    +0.000 C 
ATOM     23  C   UNL     1      -0.030  14.615  22.018  0.00  0.00    +0.000 C 
ATOM     24  C   UNL     1      -0.107  13.619  20.862  0.00  0.00    +0.000 C 
BRANCH  22  25
ATOM     25  N   UNL     1      -2.235  15.558  21.548  0.00  0.00    +0.000 N 
ATOM     26  H   UNL     1      -2.437  15.177  20.624  0.00  0.00    +0.000 HD
BRANCH  25  27
ATOM     27  C   UNL     1      -2.828  14.741  22.524  0.00  0.00    +0.000 A 
ATOM     28  C   UNL     1      -2.839  15.106  23.872  0.00  0.00    +0.000 A 
ATOM     29  C   UNL     1      -3.397  14.279  24.843  0.00  0.00    +0.000 A 
ATOM     30  C   UNL     1      -4.003  13.091  24.461  0.00  0.00    +0.000 A 
ATOM     31  F   UNL     1      -4.525  12.290  25.398  0.00  0.00    +0.000 F 
ATOM     32  C   UNL     1      -4.059  12.723  23.127  0.00  0.00    +0.000 A 
ATOM     33  C   UNL     1      -3.480  13.550  22.159  0.00  0.00    +0.000 A 
ENDBRANCH  25  27
ENDBRANCH  22  25
ENDBRANCH   5  19
TORSDOF 7
ENDMDL
MODEL 2
REMARK VINA RESULT:      -7.2      1.544      1.942
REMARK  Name = 
REMARK  8 active torsions:
REMARK  status: ('A' for Active; 'I' for Inactive)
REMARK    1  A    between atoms: C_1  and  C_2
REMARK    2  A    between atoms: C_2  and  O_3
REMARK    3  A    between atoms: O_3  and  C_4
REMARK    4  A    between atoms: C_4  and  C_6
REMARK    5  A    between atoms: C_9  and  N_10
REMARK    6  A    between atoms: C_14  and  N_15
REMARK    7  A    between atoms: C_18  and  N_19
REMARK    8  A    between atoms: N_19  and  C_20
REMARK                            x       y       z     vdW  Elec       q    Type
REMARK                         _______ _______ _______ _____ _____    ______ ____
ROOT
ATOM      1  N   UNL     1       0.288  10.626  18.738  0.00  0.00    +0.000 N 
ATOM      2  C   UNL     1      -0.974  10.687  18.201  0.00  0.00    +0.000 C 
ATOM      3  O   UNL     1      -1.671   9.776  17.769  0.00  0.00    +0.000 OA
ATOM      4  C   UNL     1      -1.465  12.098  18.240  0.00  0.00    +0.000 C 
ATOM      5  C   UNL     1      -0.336  12.882  18.900  0.00  0.00    +0.000 C 
ATOM      6  C   UNL     1       0.763  11.865  19.086  0.00  0.00    +0.000 C 
ATOM      7  O   UNL     1       1.890  12.156  19.501  0.00  0.00    +0.000 OA
ENDROOT
BRANCH   1  11
ATOM      8  C   UNL     1       2.498   7.074  19.284  0.00  0.00    +0.000 A 
ATOM      9  C   UNL     1       1.797   7.637  20.355  0.00  0.00    +0.000 A 
ATOM     10  C   UNL     1       1.078   8.813  20.172  0.00  0.00    +0.000 A 
ATOM     11  C   UNL     1       1.020   9.431  18.919  0.00  0.00    +0.000 A 
ATOM     12  C   UNL     1       1.719   8.852  17.849  0.00  0.00    +0.000 A 
ATOM     13  C   UNL     1       2.479   7.699  18.037  0.00  0.00    +0.000 A 
BRANCH   8  14
ATOM     14  C   UNL     1       3.238   5.814  19.536  0.00  0.00    +0.000 C 
ATOM     15  O   UNL     1       4.416   5.685  19.308  0.00  0.00    +0.000 OA
BRANCH  14  16
ATOM     16  O   UNL     1       2.380   4.838  19.935  0.00  0.00    +0.000 OA
BRANCH  16  18
ATOM     17  C   UNL     1       1.567   3.989  17.852  0.00  0.00    +0.000 C 
ATOM     18  C   UNL     1       2.394   3.685  19.086  0.00  0.00    +0.000 C 
ENDBRANCH  16  18
ENDBRANCH  14  16
ENDBRANCH   8  14
ENDBRANCH   1  11
BRANCH   5  19
ATOM     19  N   UNL     1      -0.634  13.564  20.182  0.00  0.00    +0.000 NA
ATOM     20  C   UNL     1      -1.020  14.963  19.965  0.00  0.00    +0.000 C 
ATOM     21  C   UNL     1      -1.260  15.671  21.293  0.00  0.00    +0.000 C 
ATOM     22  C   UNL     1      -2.377  14.977  22.079  0.00  0.00    +0.000 C 
ATOM     23  C   UNL     1      -1.904  13.543  22.337  0.00  0.00    +0.000 C 
ATOM     24  C   UNL     1      -1.597  12.830  21.020  0.00  0.00    +0.000 C 
BRANCH  22  25
ATOM     25  N   UNL     1      -3.669  14.918  21.352  0.00  0.00    +0.000 N 
ATOM     26  H   UNL     1      -3.541  14.550  20.410  0.00  0.00    +0.000 HD
BRANCH  25  27
ATOM     27  C   UNL     1      -4.755  14.267  21.959  0.00  0.00    +0.000 A 
ATOM     28  C   UNL     1      -5.289  14.713  23.171  0.00  0.00    +0.000 A 
ATOM     29  C   UNL     1      -6.343  14.046  23.789  0.00  0.00    +0.000 A 
ATOM     30  C   UNL     1      -6.912  12.946  23.165  0.00  0.00    +0.000 A 
ATOM     31  F   UNL     1      -7.916  12.297  23.768  0.00  0.00    +0.000 F 
ATOM     32  C   UNL     1      -6.445  12.507  21.937  0.00  0.00    +0.000 A 
ATOM     33  C   UNL     1      -5.373  13.171  21.332  0.00  0.00    +0.000 A 
ENDBRANCH  25  27
ENDBRANCH  22  25
ENDBRANCH   5  19
TORSDOF 7
ENDMDL
MODEL 3
REMARK VINA RESULT:      -7.1      1.400      1.888
REMARK  Name = 
REMARK  8 active torsions:
REMARK  status: ('A' for Active; 'I' for Inactive)
REMARK    1  A    between atoms: C_1  and  C_2
REMARK    2  A    between atoms: C_2  and  O_3
REMARK    3  A    between atoms: O_3  and  C_4
REMARK    4  A    between atoms: C_4  and  C_6
REMARK    5  A    between atoms: C_9  and  N_10
REMARK    6  A    between atoms: C_14  and  N_15
REMARK    7  A    between atoms: C_18  and  N_19
REMARK    8  A    between atoms: N_19  and  C_20
REMARK                            x       y       z     vdW  Elec       q    Type
REMARK                         _______ _______ _______ _____ _____    ______ ____
ROOT
ATOM      1  N   UNL     1       0.442  10.583  18.556  0.00  0.00    +0.000 N 
ATOM      2  C   UNL     1      -0.840  10.608  18.064  0.00  0.00    +0.000 C 
ATOM      3  O   UNL     1      -1.538   9.674  17.686  0.00  0.00    +0.000 OA
ATOM      4  C   UNL     1      -1.352  12.012  18.080  0.00  0.00    +0.000 C 
ATOM      5  C   UNL     1      -0.213  12.832  18.674  0.00  0.00    +0.000 C 
ATOM      6  C   UNL     1       0.908  11.839  18.849  0.00  0.00    +0.000 C 
ATOM      7  O   UNL     1       2.045  12.159  19.214  0.00  0.00    +0.000 OA
ENDROOT
BRANCH   1  11
ATOM      8  C   UNL     1       2.727   7.083  19.129  0.00  0.00    +0.000 A 
ATOM      9  C   UNL     1       1.927   7.577  20.164  0.00  0.00    +0.000 A 
ATOM     10  C   UNL     1       1.183   8.736  19.973  0.00  0.00    +0.000 A 
ATOM     11  C   UNL     1       1.199   9.405  18.745  0.00  0.00    +0.000 A 
ATOM     12  C   UNL     1       1.998   8.895  17.710  0.00  0.00    +0.000 A 
ATOM     13  C   UNL     1       2.781   7.760  17.910  0.00  0.00    +0.000 A 
BRANCH   8  14
ATOM     14  C   UNL     1       3.489   5.837  19.386  0.00  0.00    +0.000 C 
ATOM     15  O   UNL     1       4.433   5.492  18.717  0.00  0.00    +0.000 OA
BRANCH  14  16
ATOM     16  O   UNL     1       2.899   5.125  20.383  0.00  0.00    +0.000 OA
BRANCH  16  18
ATOM     17  C   UNL     1       0.959   3.727  20.330  0.00  0.00    +0.000 C 
ATOM     18  C   UNL     1       2.426   3.841  19.961  0.00  0.00    +0.000 C 
ENDBRANCH  16  18
ENDBRANCH  14  16
ENDBRANCH   8  14
ENDBRANCH   1  11
BRANCH   5  19
ATOM     19  N   UNL     1      -0.475  13.548  19.946  0.00  0.00    +0.000 NA
ATOM     20  C   UNL     1      -1.882  13.954  20.049  0.00  0.00    +0.000 C 
ATOM     21  C   UNL     1      -2.124  14.745  21.329  0.00  0.00    +0.000 C 
ATOM     22  C   UNL     1      -1.770  13.902  22.559  0.00  0.00    +0.000 C 
ATOM     23  C   UNL     1      -0.283  13.557  22.440  0.00  0.00    +0.000 C 
ATOM     24  C   UNL     1      -0.003  12.816  21.133  0.00  0.00    +0.000 C 
BRANCH  22  25
ATOM     25  N   UNL     1      -2.536  12.635  22.653  0.00  0.00    +0.000 N 
ATOM     26  H   UNL     1      -2.032  11.943  23.207  0.00  0.00    +0.000 HD
BRANCH  25  27
ATOM     27  C   UNL     1      -3.873  12.685  23.081  0.00  0.00    +0.000 A 
ATOM     28  C   UNL     1      -4.217  12.493  24.422  0.00  0.00    +0.000 A 
ATOM     29  C   UNL     1      -5.544  12.509  24.839  0.00  0.00    +0.000 A 
ATOM     30  C   UNL     1      -6.546  12.775  23.917  0.00  0.00    +0.000 A 
ATOM     31  F   UNL     1      -7.823  12.775  24.318  0.00  0.00    +0.000 F 
ATOM     32  C   UNL     1      -6.238  13.024  22.590  0.00  0.00    +0.000 A 
ATOM     33  C   UNL     1      -4.903  12.987  22.175  0.00  0.00    +0.000 A 
ENDBRANCH  25  27
ENDBRANCH  22  25
ENDBRANCH   5  19
TORSDOF 7
ENDMDL
MODEL 4
REMARK VINA RESULT:      -7.0      0.890      1.726
REMARK  Name = 
REMARK  8 active torsions:
REMARK  status: ('A' for Active; 'I' for Inactive)
REMARK    1  A    between atoms: C_1  and  C_2
REMARK    2  A    between atoms: C_2  and  O_3
REMARK    3  A    between atoms: O_3  and  C_4
REMARK    4  A    between atoms: C_4  and  C_6
REMARK    5  A    between atoms: C_9  and  N_10
REMARK    6  A    between atoms: C_14  and  N_15
REMARK    7  A    between atoms: C_18  and  N_19
REMARK    8  A    between atoms: N_19  and  C_20
REMARK                            x       y       z     vdW  Elec       q    Type
REMARK                         _______ _______ _______ _____ _____    ______ ____
ROOT
ATOM      1  N   UNL     1       0.546  10.784  18.612  0.00  0.00    +0.000 N 
ATOM      2  C   UNL     1      -0.805  10.944  18.423  0.00  0.00    +0.000 C 
ATOM      3  O   UNL     1      -1.682  10.088  18.378  0.00  0.00    +0.000 OA
ATOM      4  C   UNL     1      -1.124  12.400  18.308  0.00  0.00    +0.000 C 
ATOM      5  C   UNL     1       0.218  13.103  18.482  0.00  0.00    +0.000 C 
ATOM      6  C   UNL     1       1.218  11.979  18.570  0.00  0.00    +0.000 C 
ATOM      7  O   UNL     1       2.440  12.162  18.610  0.00  0.00    +0.000 OA
ENDROOT
BRANCH   1  11
ATOM      8  C   UNL     1       2.460   7.081  19.262  0.00  0.00    +0.000 A 
ATOM      9  C   UNL     1       1.796   7.722  20.312  0.00  0.00    +0.000 A 
ATOM     10  C   UNL     1       1.174   8.947  20.094  0.00  0.00    +0.000 A 
ATOM     11  C   UNL     1       1.178   9.539  18.828  0.00  0.00    +0.000 A 
ATOM     12  C   UNL     1       1.839   8.882  17.779  0.00  0.00    +0.000 A 
ATOM     13  C   UNL     1       2.503   7.677  18.001  0.00  0.00    +0.000 A 
BRANCH   8  14
ATOM     14  C   UNL     1       3.095   5.772  19.550  0.00  0.00    +0.000 C 
ATOM     15  O   UNL     1       2.798   5.091  20.501  0.00  0.00    +0.000 OA
BRANCH  14  16
ATOM     16  O   UNL     1       4.104   5.538  18.670  0.00  0.00    +0.000 OA
BRANCH  16  18
ATOM     17  C   UNL     1       6.465   5.598  18.286  0.00  0.00    +0.000 C 
ATOM     18  C   UNL     1       5.372   5.325  19.301  0.00  0.00    +0.000 C 
ENDBRANCH  16  18
ENDBRANCH  14  16
ENDBRANCH   8  14
ENDBRANCH   1  11
BRANCH   5  19
ATOM     19  N   UNL     1       0.365  14.022  19.636  0.00  0.00    +0.000 NA
ATOM     20  C   UNL     1      -0.215  15.339  19.347  0.00  0.00    +0.000 C 
ATOM     21  C   UNL     1       0.001  16.293  20.515  0.00  0.00    +0.000 C 
ATOM     22  C   UNL     1      -0.652  15.744  21.788  0.00  0.00    +0.000 C 
ATOM     23  C   UNL     1       0.027  14.404  22.084  0.00  0.00    +0.000 C 
ATOM     24  C   UNL     1      -0.123  13.449  20.901  0.00  0.00    +0.000 C 
BRANCH  22  25
ATOM     25  N   UNL     1      -2.111  15.507  21.654  0.00  0.00    +0.000 N 
ATOM     26  H   UNL     1      -2.344  15.184  20.716  0.00  0.00    +0.000 HD
BRANCH  25  27
ATOM     27  C   UNL     1      -2.750  14.687  22.598  0.00  0.00    +0.000 A 
ATOM     28  C   UNL     1      -2.762  15.011  23.957  0.00  0.00    +0.000 A 
ATOM     29  C   UNL     1      -3.366  14.179  24.895  0.00  0.00    +0.000 A 
ATOM     30  C   UNL     1      -4.016  13.030  24.470  0.00  0.00    +0.000 A 
ATOM     31  F   UNL     1      -4.583  12.223  25.375  0.00  0.00    +0.000 F 
ATOM     32  C   UNL     1      -4.071  12.705  23.124  0.00  0.00    +0.000 A 
ATOM     33  C   UNL     1      -3.445  13.536  22.189  0.00  0.00    +0.000 A 
ENDBRANCH  25  27
ENDBRANCH  22  25
ENDBRANCH   5  19
TORSDOF 7
ENDMDL
MODEL 5
REMARK VINA RESULT:      -6.9      1.667      1.905
REMARK  Name = 
REMARK  8 active torsions:
REMARK  status: ('A' for Active; 'I' for Inactive)
REMARK    1  A    between atoms: C_1  and  C_2
REMARK    2  A    between atoms: C_2  and  O_3
REMARK    3  A    between atoms: O_3  and  C_4
REMARK    4  A    between atoms: C_4  and  C_6
REMARK    5  A    between atoms: C_9  and  N_10
REMARK    6  A    between atoms: C_14  and  N_15
REMARK    7  A    between atoms: C_18  and  N_19
REMARK    8  A    between atoms: N_19  and  C_20
REMARK                            x       y       z     vdW  Elec       q    Type
REMARK                         _______ _______ _______ _____ _____    ______ ____
ROOT
ATOM      1  N   UNL     1       0.350  10.767  18.766  0.00  0.00    +0.000 N 
ATOM      2  C   UNL     1      -0.941  10.849  18.307  0.00  0.00    +0.000 C 
ATOM      3  O   UNL     1      -1.662   9.958  17.872  0.00  0.00    +0.000 OA
ATOM      4  C   UNL     1      -1.431  12.255  18.446  0.00  0.00    +0.000 C 
ATOM      5  C   UNL     1      -0.267  13.009  19.078  0.00  0.00    +0.000 C 
ATOM      6  C   UNL     1       0.842  11.989  19.147  0.00  0.00    +0.000 C 
ATOM      7  O   UNL     1       1.991  12.263  19.511  0.00  0.00    +0.000 OA
ENDROOT
BRANCH   1  11
ATOM      8  C   UNL     1       2.542   7.169  18.992  0.00  0.00    +0.000 A 
ATOM      9  C   UNL     1       2.551   7.925  17.815  0.00  0.00    +0.000 A 
ATOM     10  C   UNL     1       1.820   9.105  17.743  0.00  0.00    +0.000 A 
ATOM     11  C   UNL     1       1.092   9.567  18.844  0.00  0.00    +0.000 A 
ATOM     12  C   UNL     1       1.098   8.806  20.023  0.00  0.00    +0.000 A 
ATOM     13  C   UNL     1       1.792   7.599  20.087  0.00  0.00    +0.000 A 
BRANCH   8  14
ATOM     14  C   UNL     1       3.349   5.925  19.014  0.00  0.00    +0.000 C 
ATOM     15  O   UNL     1       3.763   5.426  20.031  0.00  0.00    +0.000 OA
BRANCH  14  16
ATOM     16  O   UNL     1       3.632   5.529  17.744  0.00  0.00    +0.000 OA
BRANCH  16  18
ATOM     17  C   UNL     1       2.583   3.424  17.304  0.00  0.00    +0.000 C 
ATOM     18  C   UNL     1       3.888   4.124  17.631  0.00  0.00    +0.000 C 
ENDBRANCH  16  18
ENDBRANCH  14  16
ENDBRANCH   8  14
ENDBRANCH   1  11
BRANCH   5  19
ATOM     19  N   UNL     1      -0.491  13.625  20.408  0.00  0.00    +0.000 NA
ATOM     20  C   UNL     1      -0.805  15.053  20.288  0.00  0.00    +0.000 C 
ATOM     21  C   UNL     1      -0.968  15.688  21.663  0.00  0.00    +0.000 C 
ATOM     22  C   UNL     1      -2.099  15.007  22.441  0.00  0.00    +0.000 C 
ATOM     23  C   UNL     1      -1.698  13.537  22.596  0.00  0.00    +0.000 C 
ATOM     24  C   UNL     1      -1.469  12.892  21.230  0.00  0.00    +0.000 C 
BRANCH  22  25
ATOM     25  N   UNL     1      -3.412  15.062  21.753  0.00  0.00    +0.000 N 
ATOM     26  H   UNL     1      -3.383  14.555  20.869  0.00  0.00    +0.000 HD
BRANCH  25  27
ATOM     27  C   UNL     1      -4.562  14.685  22.465  0.00  0.00    +0.000 A 
ATOM     28  C   UNL     1      -5.115  15.509  23.449  0.00  0.00    +0.000 A 
ATOM     29  C   UNL     1      -6.234  15.118  24.177  0.00  0.00    +0.000 A 
ATOM     30  C   UNL     1      -6.849  13.909  23.887  0.00  0.00    +0.000 A 
ATOM     31  F   UNL     1      -7.917  13.529  24.599  0.00  0.00    +0.000 F 
ATOM     32  C   UNL     1      -6.361  13.091  22.881  0.00  0.00    +0.000 A 
ATOM     33  C   UNL     1      -5.224  13.482  22.166  0.00  0.00    +0.000 A 
ENDBRANCH  25  27
ENDBRANCH  22  25
ENDBRANCH   5  19
TORSDOF 7
ENDMDL
MODEL 6
REMARK VINA RESULT:      -6.8      3.839      5.601
REMARK  Name = 
REMARK  8 active torsions:
REMARK  status: ('A' for Active; 'I' for Inactive)
REMARK    1  A    between atoms: C_1  and  C_2
REMARK    2  A    between atoms: C_2  and  O_3
REMARK    3  A    between atoms: O_3  and  C_4
REMARK    4  A    between atoms: C_4  and  C_6
REMARK    5  A    between atoms: C_9  and  N_10
REMARK    6  A    between atoms: C_14  and  N_15
REMARK    7  A    between atoms: C_18  and  N_19
REMARK    8  A    between atoms: N_19  and  C_20
REMARK                            x       y       z     vdW  Elec       q    Type
REMARK                         _______ _______ _______ _____ _____    ______ ____
ROOT
ATOM      1  N   UNL     1       0.895   9.382  20.228  0.00  0.00    +0.000 N 
ATOM      2  C   UNL     1       1.002   9.987  21.456  0.00  0.00    +0.000 C 
ATOM      3  O   UNL     1       1.586   9.594  22.459  0.00  0.00    +0.000 OA
ATOM      4  C   UNL     1       0.304  11.309  21.423  0.00  0.00    +0.000 C 
ATOM      5  C   UNL     1      -0.217  11.435  19.996  0.00  0.00    +0.000 C 
ATOM      6  C   UNL     1       0.131  10.114  19.355  0.00  0.00    +0.000 C 
ATOM      7  O   UNL     1      -0.230   9.799  18.216  0.00  0.00    +0.000 OA
ENDROOT
BRANCH   1  11
ATOM      8  C   UNL     1       2.729   5.714  19.237  0.00  0.00    +0.000 A 
ATOM      9  C   UNL     1       1.950   5.820  20.394  0.00  0.00    +0.000 A 
ATOM     10  C   UNL     1       1.355   7.034  20.720  0.00  0.00    +0.000 A 
ATOM     11  C   UNL     1       1.501   8.151  19.892  0.00  0.00    +0.000 A 
ATOM     12  C   UNL     1       2.277   8.030  18.729  0.00  0.00    +0.000 A 
ATOM     13  C   UNL     1       2.913   6.830  18.419  0.00  0.00    +0.000 A 
BRANCH   8  14
ATOM     14  C   UNL     1       3.330   4.393  18.934  0.00  0.00    +0.000 C 
ATOM     15  O   UNL     1       4.034   4.193  17.974  0.00  0.00    +0.000 OA
BRANCH  14  16
ATOM     16  O   UNL     1       2.876   3.460  19.813  0.00  0.00    +0.000 OA
BRANCH  16  18
ATOM     17  C   UNL     1       0.949   2.465  18.805  0.00  0.00    +0.000 C 
ATOM     18  C   UNL     1       2.404   2.264  19.181  0.00  0.00    +0.000 C 
ENDBRANCH  16  18
ENDBRANCH  14  16
ENDBRANCH   8  14
ENDBRANCH   1  11
BRANCH   5  19
ATOM     19  N   UNL     1       0.293  12.560  19.176  0.00  0.00    +0.000 NA
ATOM     20  C   UNL     1      -0.149  13.853  19.712  0.00  0.00    +0.000 C 
ATOM     21  C   UNL     1       0.326  14.997  18.825  0.00  0.00    +0.000 C 
ATOM     22  C   UNL     1       1.856  15.007  18.732  0.00  0.00    +0.000 C 
ATOM     23  C   UNL     1       2.266  13.669  18.111  0.00  0.00    +0.000 C 
ATOM     24  C   UNL     1       1.747  12.502  18.951  0.00  0.00    +0.000 C 
BRANCH  22  25
ATOM     25  N   UNL     1       2.531  15.138  20.047  0.00  0.00    +0.000 N 
ATOM     26  H   UNL     1       2.418  14.289  20.601  0.00  0.00    +0.000 HD
BRANCH  25  27
ATOM     27  C   UNL     1       3.878  15.533  20.077  0.00  0.00    +0.000 A 
ATOM     28  C   UNL     1       4.331  16.633  19.345  0.00  0.00    +0.000 A 
ATOM     29  C   UNL     1       5.673  17.003  19.349  0.00  0.00    +0.000 A 
ATOM     30  C   UNL     1       6.572  16.299  20.136  0.00  0.00    +0.000 A 
ATOM     31  F   UNL     1       7.865  16.647  20.126  0.00  0.00    +0.000 F 
ATOM     32  C   UNL     1       6.149  15.237  20.917  0.00  0.00    +0.000 A 
ATOM     33  C   UNL     1       4.802  14.859  20.894  0.00  0.00    +0.000 A 
ENDBRANCH  25  27
ENDBRANCH  22  25
ENDBRANCH   5  19
TORSDOF 7
ENDMDL
MODEL 7
REMARK VINA RESULT:      -6.8      3.868      5.961
REMARK  Name = 
REMARK  8 active torsions:
REMARK  status: ('A' for Active; 'I' for Inactive)
REMARK    1  A    between atoms: C_1  and  C_2
REMARK    2  A    between atoms: C_2  and  O_3
REMARK    3  A    between atoms: O_3  and  C_4
REMARK    4  A    between atoms: C_4  and  C_6
REMARK    5  A    between atoms: C_9  and  N_10
REMARK    6  A    between atoms: C_14  and  N_15
REMARK    7  A    between atoms: C_18  and  N_19
REMARK    8  A    between atoms: N_19  and  C_20
REMARK                            x       y       z     vdW  Elec       q    Type
REMARK                         _______ _______ _______ _____ _____    ______ ____
ROOT
ATOM      1  N   UNL     1       3.129   5.861  18.528  0.00  0.00    +0.000 N 
ATOM      2  C   UNL     1       3.038   5.189  19.722  0.00  0.00    +0.000 C 
ATOM      3  O   UNL     1       3.698   4.236  20.121  0.00  0.00    +0.000 OA
ATOM      4  C   UNL     1       1.986   5.824  20.572  0.00  0.00    +0.000 C 
ATOM      5  C   UNL     1       1.470   6.992  19.740  0.00  0.00    +0.000 C 
ATOM      6  C   UNL     1       2.196   6.861  18.425  0.00  0.00    +0.000 C 
ATOM      7  O   UNL     1       1.958   7.578  17.446  0.00  0.00    +0.000 OA
ENDROOT
BRANCH   1  11
ATOM      8  C   UNL     1       5.924   4.987  15.491  0.00  0.00    +0.000 A 
ATOM      9  C   UNL     1       5.930   6.240  16.111  0.00  0.00    +0.000 A 
ATOM     10  C   UNL     1       5.000   6.526  17.105  0.00  0.00    +0.000 A 
ATOM     11  C   UNL     1       4.072   5.565  17.518  0.00  0.00    +0.000 A 
ATOM     12  C   UNL     1       4.082   4.308  16.895  0.00  0.00    +0.000 A 
ATOM     13  C   UNL     1       4.980   4.030  15.866  0.00  0.00    +0.000 A 
BRANCH   8  14
ATOM     14  C   UNL     1       6.946   4.735  14.446  0.00  0.00    +0.000 C 
ATOM     15  O   UNL     1       7.835   5.510  14.193  0.00  0.00    +0.000 OA
BRANCH  14  16
ATOM     16  O   UNL     1       6.652   3.592  13.771  0.00  0.00    +0.000 OA
BRANCH  16  18
ATOM     17  C   UNL     1       5.143   3.255  11.946  0.00  0.00    +0.000 C 
ATOM     18  C   UNL     1       6.501   3.787  12.360  0.00  0.00    +0.000 C 
ENDBRANCH  16  18
ENDBRANCH  14  16
ENDBRANCH   8  14
ENDBRANCH   1  11
BRANCH   5  19
ATOM     19  N   UNL     1       1.640   8.357  20.294  0.00  0.00    +0.000 NA
ATOM     20  C   UNL     1       1.177   9.378  19.347  0.00  0.00    +0.000 C 
ATOM     21  C   UNL     1       1.418  10.778  19.900  0.00  0.00    +0.000 C 
ATOM     22  C   UNL     1       0.671  10.970  21.225  0.00  0.00    +0.000 C 
ATOM     23  C   UNL     1       1.231   9.927  22.197  0.00  0.00    +0.000 C 
ATOM     24  C   UNL     1       1.056   8.516  21.636  0.00  0.00    +0.000 C 
BRANCH  22  25
ATOM     25  N   UNL     1      -0.795  10.767  21.116  0.00  0.00    +0.000 N 
ATOM     26  H   UNL     1      -1.071   9.874  21.525  0.00  0.00    +0.000 HD
BRANCH  25  27
ATOM     27  C   UNL     1      -1.651  11.775  21.586  0.00  0.00    +0.000 A 
ATOM     28  C   UNL     1      -2.352  12.605  20.708  0.00  0.00    +0.000 A 
ATOM     29  C   UNL     1      -3.174  13.627  21.176  0.00  0.00    +0.000 A 
ATOM     30  C   UNL     1      -3.344  13.793  22.542  0.00  0.00    +0.000 A 
ATOM     31  F   UNL     1      -4.123  14.786  22.990  0.00  0.00    +0.000 F 
ATOM     32  C   UNL     1      -2.708  12.954  23.442  0.00  0.00    +0.000 A 
ATOM     33  C   UNL     1      -1.869  11.942  22.965  0.00  0.00    +0.000 A 
ENDBRANCH  25  27
ENDBRANCH  22  25
ENDBRANCH   5  19
TORSDOF 7
ENDMDL
MODEL 8
REMARK VINA RESULT:      -6.7      3.818      5.766
REMARK  Name = 
REMARK  8 active torsions:
REMARK  status: ('A' for Active; 'I' for Inactive)
REMARK    1  A    between atoms: C_1  and  C_2
REMARK    2  A    between atoms: C_2  and  O_3
REMARK    3  A    between atoms: O_3  and  C_4
REMARK    4  A    between atoms: C_4  and  C_6
REMARK    5  A    between atoms: C_9  and  N_10
REMARK    6  A    between atoms: C_14  and  N_15
REMARK    7  A    between atoms: C_18  and  N_19
REMARK    8  A    between atoms: N_19  and  C_20
REMARK                            x       y       z     vdW  Elec       q    Type
REMARK                         _______ _______ _______ _____ _____    ______ ____
ROOT
ATOM      1  N   UNL     1       3.067   6.049  18.643  0.00  0.00    +0.000 N 
ATOM      2  C   UNL     1       2.960   5.405  19.851  0.00  0.00    +0.000 C 
ATOM      3  O   UNL     1       3.624   4.472  20.288  0.00  0.00    +0.000 OA
ATOM      4  C   UNL     1       1.881   6.047  20.663  0.00  0.00    +0.000 C 
ATOM      5  C   UNL     1       1.367   7.186  19.791  0.00  0.00    +0.000 C 
ATOM      6  C   UNL     1       2.124   7.033  18.495  0.00  0.00    +0.000 C 
ATOM      7  O   UNL     1       1.897   7.721  17.494  0.00  0.00    +0.000 OA
ENDROOT
BRANCH   1  11
ATOM      8  C   UNL     1       5.979   5.123  15.733  0.00  0.00    +0.000 A 
ATOM      9  C   UNL     1       4.957   4.212  16.019  0.00  0.00    +0.000 A 
ATOM     10  C   UNL     1       4.005   4.518  16.986  0.00  0.00    +0.000 A 
ATOM     11  C   UNL     1       4.036   5.742  17.661  0.00  0.00    +0.000 A 
ATOM     12  C   UNL     1       5.061   6.652  17.360  0.00  0.00    +0.000 A 
ATOM     13  C   UNL     1       6.044   6.333  16.425  0.00  0.00    +0.000 A 
BRANCH   8  14
ATOM     14  C   UNL     1       6.959   4.747  14.686  0.00  0.00    +0.000 C 
ATOM     15  O   UNL     1       7.966   5.375  14.469  0.00  0.00    +0.000 OA
BRANCH  14  16
ATOM     16  O   UNL     1       6.492   3.692  13.966  0.00  0.00    +0.000 OA
BRANCH  16  18
ATOM     17  C   UNL     1       5.807   2.751  11.876  0.00  0.00    +0.000 C 
ATOM     18  C   UNL     1       6.485   3.926  12.553  0.00  0.00    +0.000 C 
ENDBRANCH  16  18
ENDBRANCH  14  16
ENDBRANCH   8  14
ENDBRANCH   1  11
BRANCH   5  19
ATOM     19  N   UNL     1       1.507   8.567  20.314  0.00  0.00    +0.000 NA
ATOM     20  C   UNL     1       0.977   9.553  19.364  0.00  0.00    +0.000 C 
ATOM     21  C   UNL     1       1.186  10.970  19.883  0.00  0.00    +0.000 C 
ATOM     22  C   UNL     1       0.476  11.161  21.228  0.00  0.00    +0.000 C 
ATOM     23  C   UNL     1       1.103  10.158  22.200  0.00  0.00    +0.000 C 
ATOM     24  C   UNL     1       0.961   8.732  21.671  0.00  0.00    +0.000 C 
BRANCH  22  25
ATOM     25  N   UNL     1      -0.985  10.905  21.171  0.00  0.00    +0.000 N 
ATOM     26  H   UNL     1      -1.212   9.997  21.574  0.00  0.00    +0.000 HD
BRANCH  25  27
ATOM     27  C   UNL     1      -1.859  11.873  21.691  0.00  0.00    +0.000 A 
ATOM     28  C   UNL     1      -2.095  11.982  23.064  0.00  0.00    +0.000 A 
ATOM     29  C   UNL     1      -2.989  12.919  23.574  0.00  0.00    +0.000 A 
ATOM     30  C   UNL     1      -3.619  13.801  22.710  0.00  0.00    +0.000 A 
ATOM     31  F   UNL     1      -4.490  14.692  23.201  0.00  0.00    +0.000 F 
ATOM     32  C   UNL     1      -3.368  13.759  21.348  0.00  0.00    +0.000 A 
ATOM     33  C   UNL     1      -2.484  12.802  20.841  0.00  0.00    +0.000 A 
ENDBRANCH  25  27
ENDBRANCH  22  25
ENDBRANCH   5  19
TORSDOF 7
ENDMDL
MODEL 9
REMARK VINA RESULT:      -6.7      1.330      1.880
REMARK  Name = 
REMARK  8 active torsions:
REMARK  status: ('A' for Active; 'I' for Inactive)
REMARK    1  A    between atoms: C_1  and  C_2
REMARK    2  A    between atoms: C_2  and  O_3
REMARK    3  A    between atoms: O_3  and  C_4
REMARK    4  A    between atoms: C_4  and  C_6
REMARK    5  A    between atoms: C_9  and  N_10
REMARK    6  A    between atoms: C_14  and  N_15
REMARK    7  A    between atoms: C_18  and  N_19
REMARK    8  A    between atoms: N_19  and  C_20
REMARK                            x       y       z     vdW  Elec       q    Type
REMARK                         _______ _______ _______ _____ _____    ______ ____
ROOT
ATOM      1  N   UNL     1       0.473  10.929  18.727  0.00  0.00    +0.000 N 
ATOM      2  C   UNL     1      -0.877  11.138  18.588  0.00  0.00    +0.000 C 
ATOM      3  O   UNL     1      -1.791  10.324  18.642  0.00  0.00    +0.000 OA
ATOM      4  C   UNL     1      -1.137  12.597  18.388  0.00  0.00    +0.000 C 
ATOM      5  C   UNL     1       0.240  13.247  18.451  0.00  0.00    +0.000 C 
ATOM      6  C   UNL     1       1.194  12.086  18.572  0.00  0.00    +0.000 C 
ATOM      7  O   UNL     1       2.423  12.215  18.544  0.00  0.00    +0.000 OA
ENDROOT
BRANCH   1  11
ATOM      8  C   UNL     1       2.254   7.193  19.546  0.00  0.00    +0.000 A 
ATOM      9  C   UNL     1       1.621   7.909  20.568  0.00  0.00    +0.000 A 
ATOM     10  C   UNL     1       1.044   9.144  20.294  0.00  0.00    +0.000 A 
ATOM     11  C   UNL     1       1.060   9.673  19.000  0.00  0.00    +0.000 A 
ATOM     12  C   UNL     1       1.690   8.942  17.981  0.00  0.00    +0.000 A 
ATOM     13  C   UNL     1       2.310   7.725  18.258  0.00  0.00    +0.000 A 
BRANCH   8  14
ATOM     14  C   UNL     1       2.842   5.878  19.895  0.00  0.00    +0.000 C 
ATOM     15  O   UNL     1       3.780   5.398  19.306  0.00  0.00    +0.000 OA
BRANCH  14  16
ATOM     16  O   UNL     1       2.104   5.278  20.866  0.00  0.00    +0.000 OA
BRANCH  16  18
ATOM     17  C   UNL     1       1.438   2.983  20.974  0.00  0.00    +0.000 C 
ATOM     18  C   UNL     1       1.150   4.338  20.358  0.00  0.00    +0.000 C 
ENDBRANCH  16  18
ENDBRANCH  14  16
ENDBRANCH   8  14
ENDBRANCH   1  11
BRANCH   5  19
ATOM     19  N   UNL     1       0.482  14.234  19.531  0.00  0.00    +0.000 NA
ATOM     20  C   UNL     1      -0.621  15.196  19.632  0.00  0.00    +0.000 C 
ATOM     21  C   UNL     1      -0.330  16.243  20.700  0.00  0.00    +0.000 C 
ATOM     22  C   UNL     1      -0.139  15.579  22.068  0.00  0.00    +0.000 C 
ATOM     23  C   UNL     1       1.059  14.634  21.932  0.00  0.00    +0.000 C 
ATOM     24  C   UNL     1       0.816  13.611  20.823  0.00  0.00    +0.000 C 
BRANCH  22  25
ATOM     25  N   UNL     1      -1.311  14.785  22.513  0.00  0.00    +0.000 N 
ATOM     26  H   UNL     1      -1.016  13.926  22.978  0.00  0.00    +0.000 HD
BRANCH  25  27
ATOM     27  C   UNL     1      -2.296  15.415  23.290  0.00  0.00    +0.000 A 
ATOM     28  C   UNL     1      -3.651  15.331  22.959  0.00  0.00    +0.000 A 
ATOM     29  C   UNL     1      -4.623  15.985  23.710  0.00  0.00    +0.000 A 
ATOM     30  C   UNL     1      -4.248  16.693  24.843  0.00  0.00    +0.000 A 
ATOM     31  F   UNL     1      -5.183  17.334  25.555  0.00  0.00    +0.000 F 
ATOM     32  C   UNL     1      -2.920  16.753  25.232  0.00  0.00    +0.000 A 
ATOM     33  C   UNL     1      -1.947  16.109  24.461  0.00  0.00    +0.000 A 
ENDBRANCH  25  27
ENDBRANCH  22  25
ENDBRANCH   5  19
TORSDOF 7
ENDMDL
