MODEL 1
REMARK VINA RESULT:      -7.2      0.000      0.000
REMARK  Name = 
REMARK  3 active torsions:
REMARK  status: ('A' for Active; 'I' for Inactive)
REMARK    1  A    between atoms: C_1  and  C_2
REMARK    2  A    between atoms: C_7  and  C_8
REMARK    3  A    between atoms: N_13  and  C_14
REMARK                            x       y       z     vdW  Elec       q    Type
REMARK                         _______ _______ _______ _____ _____    ______ ____
ROOT
ATOM      1  C   UNL     1       2.842   5.445  20.031  0.00  0.00    +0.000 C 
ATOM      2  O   UNL     1       2.470   4.629  20.876  0.00  0.00    +0.000 OA
ATOM      3  N   UNL     1       2.179   6.666  19.849  0.00  0.00    +0.000 N 
ATOM      4  C   UNL     1       1.169   7.092  20.798  0.00  0.00    +0.000 C 
ATOM      5  C   UNL     1       1.278   8.607  20.996  0.00  0.00    +0.000 C 
ATOM      6  N   UNL     1       1.204   9.364  19.742  0.00  0.00    +0.000 N 
ATOM      7  C   UNL     1       1.668   8.812  18.547  0.00  0.00    +0.000 C 
ATOM      8  O   UNL     1       1.674   9.432  17.480  0.00  0.00    +0.000 OA
ATOM      9  C   UNL     1       2.066   7.324  18.546  0.00  0.00    +0.000 C 
ENDROOT
BRANCH   1  16
ATOM     10  C   UNL     1       5.973   3.575  15.380  0.00  0.00    +0.000 C 
ATOM     11  C   UNL     1       6.375   4.246  16.645  0.00  0.00    +0.000 A 
ATOM     12  C   UNL     1       7.645   4.585  16.944  0.00  0.00    +0.000 A 
ATOM     13  S   UNL     1       7.827   5.358  18.515  0.00  0.00    +0.000 S 
ATOM     14  C   UNL     1       6.117   5.214  18.736  0.00  0.00    +0.000 A 
ATOM     15  N   UNL     1       5.316   5.576  19.693  0.00  0.00    +0.000 NA
ATOM     16  C   UNL     1       4.050   5.219  19.227  0.00  0.00    +0.000 A 
ATOM     17  C   UNL     1       4.169   4.596  17.989  0.00  0.00    +0.000 A 
ATOM     18 CL   UNL     1       3.019   3.934  16.926  0.00  0.00    +0.000 Cl
ATOM     19  N   UNL     1       5.502   4.615  17.669  0.00  0.00    +0.000 N 
ENDBRANCH   1  16
BRANCH   6  20
ATOM     20  C   UNL     1       0.796  10.773  19.827  0.00  0.00    +0.000 C 
ATOM     21  C   UNL     1      -0.619  11.103  19.347  0.00  0.00    +0.000 C 
ATOM     22  C   UNL     1      -0.889  12.485  19.934  0.00  0.00    +0.000 C 
ATOM     23  C   UNL     1      -0.051  12.580  21.209  0.00  0.00    +0.000 C 
ATOM     24  C   UNL     1       0.840  11.342  21.245  0.00  0.00    +0.000 C 
ENDBRANCH   6  20
TORSDOF 2
ENDMDL
MODEL 2
REMARK VINA RESULT:      -7.1      2.840      3.682
REMARK  Name = 
REMARK  3 active torsions:
REMARK  status: ('A' for Active; 'I' for Inactive)
REMARK    1  A    between atoms: C_1  and  C_2
REMARK    2  A    between atoms: C_7  and  C_8
REMARK    3  A    between atoms: N_13  and  C_14
REMARK                            x       y       z     vdW  Elec       q    Type
REMARK                         _______ _______ _______ _____ _____    ______ ____
ROOT
ATOM      1  C   UNL     1       3.008   7.200  17.952  0.00  0.00    +0.000 C 
ATOM      2  O   UNL     1       3.740   7.523  17.015  0.00  0.00    +0.000 OA
ATOM      3  N   UNL     1       2.227   8.144  18.630  0.00  0.00    +0.000 N 
ATOM      4  C   UNL     1       2.097   9.490  18.106  0.00  0.00    +0.000 C 
ATOM      5  C   UNL     1       0.665   9.981  18.341  0.00  0.00    +0.000 C 
ATOM      6  N   UNL     1       0.244   9.898  19.743  0.00  0.00    +0.000 N 
ATOM      7  C   UNL     1       0.756   8.908  20.584  0.00  0.00    +0.000 C 
ATOM      8  O   UNL     1       0.391   8.768  21.754  0.00  0.00    +0.000 OA
ATOM      9  C   UNL     1       1.919   8.045  20.058  0.00  0.00    +0.000 C 
ENDROOT
BRANCH   1  16
ATOM     10  C   UNL     1       4.678   2.004  20.221  0.00  0.00    +0.000 C 
ATOM     11  C   UNL     1       3.400   2.459  19.610  0.00  0.00    +0.000 A 
ATOM     12  C   UNL     1       2.307   1.679  19.490  0.00  0.00    +0.000 A 
ATOM     13  S   UNL     1       0.941   2.478  18.719  0.00  0.00    +0.000 S 
ATOM     14  C   UNL     1       1.908   3.906  18.584  0.00  0.00    +0.000 A 
ATOM     15  N   UNL     1       1.669   5.094  18.114  0.00  0.00    +0.000 NA
ATOM     16  C   UNL     1       2.852   5.796  18.355  0.00  0.00    +0.000 A 
ATOM     17  C   UNL     1       3.788   4.946  18.935  0.00  0.00    +0.000 A 
ATOM     18 CL   UNL     1       5.390   5.188  19.447  0.00  0.00    +0.000 Cl
ATOM     19  N   UNL     1       3.167   3.735  19.098  0.00  0.00    +0.000 N 
ENDBRANCH   1  16
BRANCH   6  20
ATOM     20  C   UNL     1      -0.858  10.770  20.170  0.00  0.00    +0.000 C 
ATOM     21  C   UNL     1      -0.466  12.074  20.866  0.00  0.00    +0.000 C 
ATOM     22  C   UNL     1      -1.734  12.919  20.800  0.00  0.00    +0.000 C 
ATOM     23  C   UNL     1      -2.491  12.458  19.554  0.00  0.00    +0.000 C 
ATOM     24  C   UNL     1      -1.761  11.227  19.024  0.00  0.00    +0.000 C 
ENDBRANCH   6  20
TORSDOF 2
ENDMDL
MODEL 3
REMARK VINA RESULT:      -6.3      2.771      3.571
REMARK  Name = 
REMARK  3 active torsions:
REMARK  status: ('A' for Active; 'I' for Inactive)
REMARK    1  A    between atoms: C_1  and  C_2
REMARK    2  A    between atoms: C_7  and  C_8
REMARK    3  A    between atoms: N_13  and  C_14
REMARK                            x       y       z     vdW  Elec       q    Type
REMARK                         _______ _______ _______ _____ _____    ______ ____
ROOT
ATOM      1  C   UNL     1       2.929   7.202  18.197  0.00  0.00    +0.000 C 
ATOM      2  O   UNL     1       3.678   7.442  17.248  0.00  0.00    +0.000 OA
ATOM      3  N   UNL     1       2.118   8.196  18.760  0.00  0.00    +0.000 N 
ATOM      4  C   UNL     1       1.980   9.480  18.102  0.00  0.00    +0.000 C 
ATOM      5  C   UNL     1       0.536   9.967  18.255  0.00  0.00    +0.000 C 
ATOM      6  N   UNL     1       0.083  10.016  19.649  0.00  0.00    +0.000 N 
ATOM      7  C   UNL     1       0.590   9.125  20.596  0.00  0.00    +0.000 C 
ATOM      8  O   UNL     1       0.200   9.096  21.765  0.00  0.00    +0.000 OA
ATOM      9  C   UNL     1       1.778   8.234  20.184  0.00  0.00    +0.000 C 
ENDROOT
BRANCH   1  16
ATOM     10  C   UNL     1       3.620   1.333  18.325  0.00  0.00    +0.000 C 
ATOM     11  C   UNL     1       2.925   2.274  19.244  0.00  0.00    +0.000 A 
ATOM     12  C   UNL     1       2.301   1.892  20.377  0.00  0.00    +0.000 A 
ATOM     13  S   UNL     1       1.556   3.218  21.263  0.00  0.00    +0.000 S 
ATOM     14  C   UNL     1       2.137   4.302  20.046  0.00  0.00    +0.000 A 
ATOM     15  N   UNL     1       2.057   5.591  19.899  0.00  0.00    +0.000 NA
ATOM     16  C   UNL     1       2.784   5.843  18.735  0.00  0.00    +0.000 A 
ATOM     17  C   UNL     1       3.240   4.642  18.201  0.00  0.00    +0.000 A 
ATOM     18 CL   UNL     1       4.156   4.280  16.816  0.00  0.00    +0.000 Cl
ATOM     19  N   UNL     1       2.837   3.654  19.062  0.00  0.00    +0.000 N 
ENDBRANCH   1  16
BRANCH   6  20
ATOM     20  C   UNL     1      -1.042  10.907  19.962  0.00  0.00    +0.000 C 
ATOM     21  C   UNL     1      -0.692  12.363  20.278  0.00  0.00    +0.000 C 
ATOM     22  C   UNL     1      -2.022  13.096  20.139  0.00  0.00    +0.000 C 
ATOM     23  C   UNL     1      -2.846  12.300  19.126  0.00  0.00    +0.000 C 
ATOM     24  C   UNL     1      -2.072  11.017  18.838  0.00  0.00    +0.000 C 
ENDBRANCH   6  20
TORSDOF 2
ENDMDL
MODEL 4
REMARK VINA RESULT:      -6.2      2.674      7.506
REMARK  Name = 
REMARK  3 active torsions:
REMARK  status: ('A' for Active; 'I' for Inactive)
REMARK    1  A    between atoms: C_1  and  C_2
REMARK    2  A    between atoms: C_7  and  C_8
REMARK    3  A    between atoms: N_13  and  C_14
REMARK                            x       y       z     vdW  Elec       q    Type
REMARK                         _______ _______ _______ _____ _____    ______ ____
ROOT
ATOM      1  C   UNL     1       2.715   5.274  19.622  0.00  0.00    +0.000 C 
ATOM      2  O   UNL     1       2.329   4.250  20.190  0.00  0.00    +0.000 OA
ATOM      3  N   UNL     1       3.643   5.225  18.574  0.00  0.00    +0.000 N 
ATOM      4  C   UNL     1       4.009   3.950  17.988  0.00  0.00    +0.000 C 
ATOM      5  C   UNL     1       4.189   4.128  16.478  0.00  0.00    +0.000 C 
ATOM      6  N   UNL     1       5.142   5.186  16.126  0.00  0.00    +0.000 N 
ATOM      7  C   UNL     1       5.313   6.297  16.954  0.00  0.00    +0.000 C 
ATOM      8  O   UNL     1       6.062   7.234  16.671  0.00  0.00    +0.000 OA
ATOM      9  C   UNL     1       4.629   6.279  18.335  0.00  0.00    +0.000 C 
ENDROOT
BRANCH   1  16
ATOM     10  C   UNL     1       0.882  10.796  18.582  0.00  0.00    +0.000 C 
ATOM     11  C   UNL     1       0.948   9.987  19.829  0.00  0.00    +0.000 A 
ATOM     12  C   UNL     1       0.536  10.431  21.034  0.00  0.00    +0.000 A 
ATOM     13  S   UNL     1       0.743   9.263  22.334  0.00  0.00    +0.000 S 
ATOM     14  C   UNL     1       1.393   8.154  21.176  0.00  0.00    +0.000 A 
ATOM     15  N   UNL     1       1.826   6.932  21.270  0.00  0.00    +0.000 NA
ATOM     16  C   UNL     1       2.160   6.592  19.958  0.00  0.00    +0.000 A 
ATOM     17  C   UNL     1       1.944   7.684  19.124  0.00  0.00    +0.000 A 
ATOM     18 CL   UNL     1       2.162   7.909  17.454  0.00  0.00    +0.000 Cl
ATOM     19  N   UNL     1       1.431   8.681  19.912  0.00  0.00    +0.000 N 
ENDBRANCH   1  16
BRANCH   6  20
ATOM     20  C   UNL     1       5.766   5.118  14.798  0.00  0.00    +0.000 C 
ATOM     21  C   UNL     1       7.275   4.870  14.765  0.00  0.00    +0.000 C 
ATOM     22  C   UNL     1       7.542   4.439  13.326  0.00  0.00    +0.000 C 
ATOM     23  C   UNL     1       6.254   3.783  12.829  0.00  0.00    +0.000 C 
ATOM     24  C   UNL     1       5.197   4.014  13.906  0.00  0.00    +0.000 C 
ENDBRANCH   6  20
TORSDOF 2
ENDMDL
MODEL 5
REMARK VINA RESULT:      -6.1      2.512      4.050
REMARK  Name = 
REMARK  3 active torsions:
REMARK  status: ('A' for Active; 'I' for Inactive)
REMARK    1  A    between atoms: C_1  and  C_2
REMARK    2  A    between atoms: C_7  and  C_8
REMARK    3  A    between atoms: N_13  and  C_14
REMARK                            x       y       z     vdW  Elec       q    Type
REMARK                         _______ _______ _______ _____ _____    ______ ____
ROOT
ATOM      1  C   UNL     1       1.876   8.857  18.581  0.00  0.00    +0.000 C 
ATOM      2  O   UNL     1       2.125   9.283  17.451  0.00  0.00    +0.000 OA
ATOM      3  N   UNL     1       1.196   9.638  19.525  0.00  0.00    +0.000 N 
ATOM      4  C   UNL     1       0.578  10.887  19.124  0.00  0.00    +0.000 C 
ATOM      5  C   UNL     1      -0.744  11.054  19.878  0.00  0.00    +0.000 C 
ATOM      6  N   UNL     1      -0.600  10.958  21.334  0.00  0.00    +0.000 N 
ATOM      7  C   UNL     1       0.395  10.160  21.902  0.00  0.00    +0.000 C 
ATOM      8  O   UNL     1       0.519  10.008  23.119  0.00  0.00    +0.000 OA
ATOM      9  C   UNL     1       1.456   9.553  20.963  0.00  0.00    +0.000 C 
ENDROOT
BRANCH   1  16
ATOM     10  C   UNL     1       4.729   3.688  18.296  0.00  0.00    +0.000 C 
ATOM     11  C   UNL     1       3.638   4.176  19.182  0.00  0.00    +0.000 A 
ATOM     12  C   UNL     1       3.093   3.442  20.174  0.00  0.00    +0.000 A 
ATOM     13  S   UNL     1       1.813   4.271  21.054  0.00  0.00    +0.000 S 
ATOM     14  C   UNL     1       2.061   5.646  20.034  0.00  0.00    +0.000 A 
ATOM     15  N   UNL     1       1.512   6.824  19.990  0.00  0.00    +0.000 NA
ATOM     16  C   UNL     1       2.205   7.480  18.971  0.00  0.00    +0.000 A 
ATOM     17  C   UNL     1       3.135   6.613  18.406  0.00  0.00    +0.000 A 
ATOM     18 CL   UNL     1       4.256   6.802  17.144  0.00  0.00    +0.000 Cl
ATOM     19  N   UNL     1       3.051   5.439  19.110  0.00  0.00    +0.000 N 
ENDBRANCH   1  16
BRANCH   6  20
ATOM     20  C   UNL     1      -1.644  11.581  22.159  0.00  0.00    +0.000 C 
ATOM     21  C   UNL     1      -1.199  12.724  23.074  0.00  0.00    +0.000 C 
ATOM     22  C   UNL     1      -2.503  13.416  23.453  0.00  0.00    +0.000 C 
ATOM     23  C   UNL     1      -3.469  13.177  22.292  0.00  0.00    +0.000 C 
ATOM     24  C   UNL     1      -2.787  12.191  21.347  0.00  0.00    +0.000 C 
ENDBRANCH   6  20
TORSDOF 2
ENDMDL
MODEL 6
REMARK VINA RESULT:      -6.1      8.203     11.224
REMARK  Name = 
REMARK  3 active torsions:
REMARK  status: ('A' for Active; 'I' for Inactive)
REMARK    1  A    between atoms: C_1  and  C_2
REMARK    2  A    between atoms: C_7  and  C_8
REMARK    3  A    between atoms: N_13  and  C_14
REMARK                            x       y       z     vdW  Elec       q    Type
REMARK                         _______ _______ _______ _____ _____    ______ ____
ROOT
ATOM      1  C   UNL     1       5.737  16.867  19.081  0.00  0.00    +0.000 C 
ATOM      2  O   UNL     1       6.039  18.047  19.272  0.00  0.00    +0.000 OA
ATOM      3  N   UNL     1       6.675  15.937  18.617  0.00  0.00    +0.000 N 
ATOM      4  C   UNL     1       8.080  16.292  18.554  0.00  0.00    +0.000 C 
ATOM      5  C   UNL     1       8.920  15.073  18.946  0.00  0.00    +0.000 C 
ATOM      6  N   UNL     1       8.623  13.880  18.147  0.00  0.00    +0.000 N 
ATOM      7  C   UNL     1       7.343  13.670  17.629  0.00  0.00    +0.000 C 
ATOM      8  O   UNL     1       7.034  12.656  16.998  0.00  0.00    +0.000 OA
ATOM      9  C   UNL     1       6.320  14.816  17.745  0.00  0.00    +0.000 C 
ENDROOT
BRANCH   1  16
ATOM     10  C   UNL     1      -0.038  15.904  18.270  0.00  0.00    +0.000 C 
ATOM     11  C   UNL     1       0.887  15.534  19.375  0.00  0.00    +0.000 A 
ATOM     12  C   UNL     1       0.514  14.829  20.462  0.00  0.00    +0.000 A 
ATOM     13  S   UNL     1       1.817  14.546  21.611  0.00  0.00    +0.000 S 
ATOM     14  C   UNL     1       2.880  15.406  20.552  0.00  0.00    +0.000 A 
ATOM     15  N   UNL     1       4.149  15.685  20.609  0.00  0.00    +0.000 NA
ATOM     16  C   UNL     1       4.400  16.355  19.410  0.00  0.00    +0.000 A 
ATOM     17  C   UNL     1       3.216  16.488  18.693  0.00  0.00    +0.000 A 
ATOM     18 CL   UNL     1       2.860  17.202  17.193  0.00  0.00    +0.000 Cl
ATOM     19  N   UNL     1       2.244  15.856  19.425  0.00  0.00    +0.000 N 
ENDBRANCH   1  16
BRANCH   6  20
ATOM     20  C   UNL     1       9.659  12.842  18.070  0.00  0.00    +0.000 C 
ATOM     21  C   UNL     1      10.981  13.246  17.414  0.00  0.00    +0.000 C 
ATOM     22  C   UNL     1      11.953  12.155  17.851  0.00  0.00    +0.000 C 
ATOM     23  C   UNL     1      11.443  11.641  19.197  0.00  0.00    +0.000 C 
ATOM     24  C   UNL     1      10.084  12.294  19.433  0.00  0.00    +0.000 C 
ENDBRANCH   6  20
TORSDOF 2
ENDMDL
MODEL 7
REMARK VINA RESULT:      -6.0      2.511      3.365
REMARK  Name = 
REMARK  3 active torsions:
REMARK  status: ('A' for Active; 'I' for Inactive)
REMARK    1  A    between atoms: C_1  and  C_2
REMARK    2  A    between atoms: C_7  and  C_8
REMARK    3  A    between atoms: N_13  and  C_14
REMARK                            x       y       z     vdW  Elec       q    Type
REMARK                         _______ _______ _______ _____ _____    ______ ____
ROOT
ATOM      1  C   UNL     1       3.480   7.008  17.917  0.00  0.00    +0.000 C 
ATOM      2  O   UNL     1       4.268   7.337  17.028  0.00  0.00    +0.000 OA
ATOM      3  N   UNL     1       2.582   7.926  18.477  0.00  0.00    +0.000 N 
ATOM      4  C   UNL     1       2.410   9.233  17.874  0.00  0.00    +0.000 C 
ATOM      5  C   UNL     1       0.934   9.632  17.962  0.00  0.00    +0.000 C 
ATOM      6  N   UNL     1       0.399   9.585  19.327  0.00  0.00    +0.000 N 
ATOM      7  C   UNL     1       0.901   8.675  20.259  0.00  0.00    +0.000 C 
ATOM      8  O   UNL     1       0.445   8.564  21.399  0.00  0.00    +0.000 OA
ATOM      9  C   UNL     1       2.159   7.872  19.877  0.00  0.00    +0.000 C 
ENDROOT
BRANCH   1  16
ATOM     10  C   UNL     1       1.001   1.680  18.552  0.00  0.00    +0.000 C 
ATOM     11  C   UNL     1       2.282   2.248  19.051  0.00  0.00    +0.000 A 
ATOM     12  C   UNL     1       3.177   1.552  19.782  0.00  0.00    +0.000 A 
ATOM     13  S   UNL     1       4.599   2.482  20.244  0.00  0.00    +0.000 S 
ATOM     14  C   UNL     1       3.936   3.836  19.395  0.00  0.00    +0.000 A 
ATOM     15  N   UNL     1       4.369   5.043  19.182  0.00  0.00    +0.000 NA
ATOM     16  C   UNL     1       3.383   5.617  18.378  0.00  0.00    +0.000 A 
ATOM     17  C   UNL     1       2.351   4.704  18.183  0.00  0.00    +0.000 A 
ATOM     18 CL   UNL     1       0.887   4.798  17.324  0.00  0.00    +0.000 Cl
ATOM     19  N   UNL     1       2.723   3.551  18.824  0.00  0.00    +0.000 N 
ENDBRANCH   1  16
BRANCH   6  20
ATOM     20  C   UNL     1      -0.791  10.397  19.614  0.00  0.00    +0.000 C 
ATOM     21  C   UNL     1      -0.545  11.855  20.006  0.00  0.00    +0.000 C 
ATOM     22  C   UNL     1      -1.907  12.516  19.825  0.00  0.00    +0.000 C 
ATOM     23  C   UNL     1      -2.628  11.720  18.738  0.00  0.00    +0.000 C 
ATOM     24  C   UNL     1      -1.766  10.497  18.440  0.00  0.00    +0.000 C 
ENDBRANCH   6  20
TORSDOF 2
ENDMDL
MODEL 8
REMARK VINA RESULT:      -6.0      2.682      7.353
REMARK  Name = 
REMARK  3 active torsions:
REMARK  status: ('A' for Active; 'I' for Inactive)
REMARK    1  A    between atoms: C_1  and  C_2
REMARK    2  A    between atoms: C_7  and  C_8
REMARK    3  A    between atoms: N_13  and  C_14
REMARK                            x       y       z     vdW  Elec       q    Type
REMARK                         _______ _______ _______ _____ _____    ______ ____
ROOT
ATOM      1  C   UNL     1       2.079   5.084  19.879  0.00  0.00    +0.000 C 
ATOM      2  O   UNL     1       1.351   4.182  20.297  0.00  0.00    +0.000 OA
ATOM      3  N   UNL     1       3.199   4.812  19.083  0.00  0.00    +0.000 N 
ATOM      4  C   UNL     1       3.407   3.478  18.554  0.00  0.00    +0.000 C 
ATOM      5  C   UNL     1       3.983   3.587  17.139  0.00  0.00    +0.000 C 
ATOM      6  N   UNL     1       5.202   4.399  17.067  0.00  0.00    +0.000 N 
ATOM      7  C   UNL     1       5.407   5.457  17.954  0.00  0.00    +0.000 C 
ATOM      8  O   UNL     1       6.391   6.199  17.897  0.00  0.00    +0.000 OA
ATOM      9  C   UNL     1       4.422   5.615  19.129  0.00  0.00    +0.000 C 
ENDROOT
BRANCH   1  16
ATOM     10  C   UNL     1       1.470  10.803  18.515  0.00  0.00    +0.000 C 
ATOM     11  C   UNL     1       1.260  10.054  19.783  0.00  0.00    +0.000 A 
ATOM     12  C   UNL     1       0.831  10.623  20.928  0.00  0.00    +0.000 A 
ATOM     13  S   UNL     1       0.682   9.497  22.272  0.00  0.00    +0.000 S 
ATOM     14  C   UNL     1       1.208   8.232  21.216  0.00  0.00    +0.000 A 
ATOM     15  N   UNL     1       1.382   6.955  21.384  0.00  0.00    +0.000 NA
ATOM     16  C   UNL     1       1.764   6.498  20.122  0.00  0.00    +0.000 A 
ATOM     17  C   UNL     1       1.846   7.572  19.242  0.00  0.00    +0.000 A 
ATOM     18 CL   UNL     1       2.261   7.676  17.597  0.00  0.00    +0.000 Cl
ATOM     19  N   UNL     1       1.466   8.685  19.948  0.00  0.00    +0.000 N 
ENDBRANCH   1  16
BRANCH   6  20
ATOM     20  C   UNL     1       6.099   4.172  15.927  0.00  0.00    +0.000 C 
ATOM     21  C   UNL     1       5.451   3.657  14.640  0.00  0.00    +0.000 C 
ATOM     22  C   UNL     1       6.503   3.923  13.570  0.00  0.00    +0.000 C 
ATOM     23  C   UNL     1       7.311   5.128  14.052  0.00  0.00    +0.000 C 
ATOM     24  C   UNL     1       6.851   5.425  15.477  0.00  0.00    +0.000 C 
ENDBRANCH   6  20
TORSDOF 2
ENDMDL
MODEL 9
REMARK VINA RESULT:      -5.9      5.827     10.369
REMARK  Name = 
REMARK  3 active torsions:
REMARK  status: ('A' for Active; 'I' for Inactive)
REMARK    1  A    between atoms: C_1  and  C_2
REMARK    2  A    between atoms: C_7  and  C_8
REMARK    3  A    between atoms: N_13  and  C_14
REMARK                            x       y       z     vdW  Elec       q    Type
REMARK                         _______ _______ _______ _____ _____    ______ ____
ROOT
ATOM      1  C   UNL     1      -1.780  13.076  21.535  0.00  0.00    +0.000 C 
ATOM      2  O   UNL     1      -1.221  13.839  22.326  0.00  0.00    +0.000 OA
ATOM      3  N   UNL     1      -1.049  12.198  20.724  0.00  0.00    +0.000 N 
ATOM      4  C   UNL     1       0.371  12.013  20.950  0.00  0.00    +0.000 C 
ATOM      5  C   UNL     1       0.726  10.542  20.716  0.00  0.00    +0.000 C 
ATOM      6  N   UNL     1       0.313  10.046  19.399  0.00  0.00    +0.000 N 
ATOM      7  C   UNL     1      -0.812  10.571  18.760  0.00  0.00    +0.000 C 
ATOM      8  O   UNL     1      -1.226  10.148  17.678  0.00  0.00    +0.000 OA
ATOM      9  C   UNL     1      -1.478  11.815  19.378  0.00  0.00    +0.000 C 
ENDROOT
BRANCH   1  16
ATOM     10  C   UNL     1      -7.268  12.365  23.610  0.00  0.00    +0.000 C 
ATOM     11  C   UNL     1      -6.746  12.602  22.238  0.00  0.00    +0.000 A 
ATOM     12  C   UNL     1      -7.530  12.727  21.148  0.00  0.00    +0.000 A 
ATOM     13  S   UNL     1      -6.638  12.993  19.654  0.00  0.00    +0.000 S 
ATOM     14  C   UNL     1      -5.172  12.942  20.570  0.00  0.00    +0.000 A 
ATOM     15  N   UNL     1      -3.921  13.081  20.244  0.00  0.00    +0.000 NA
ATOM     16  C   UNL     1      -3.244  12.987  21.461  0.00  0.00    +0.000 A 
ATOM     17  C   UNL     1      -4.155  12.741  22.483  0.00  0.00    +0.000 A 
ATOM     18 CL   UNL     1      -3.963  12.519  24.158  0.00  0.00    +0.000 Cl
ATOM     19  N   UNL     1      -5.398  12.734  21.905  0.00  0.00    +0.000 N 
ENDBRANCH   1  16
BRANCH   6  20
ATOM     20  C   UNL     1       1.013   8.868  18.870  0.00  0.00    +0.000 C 
ATOM     21  C   UNL     1       2.141   9.135  17.872  0.00  0.00    +0.000 C 
ATOM     22  C   UNL     1       2.919   7.823  17.841  0.00  0.00    +0.000 C 
ATOM     23  C   UNL     1       2.720   7.176  19.212  0.00  0.00    +0.000 C 
ATOM     24  C   UNL     1       1.678   8.012  19.949  0.00  0.00    +0.000 C 
ENDBRANCH   6  20
TORSDOF 2
ENDMDL
