MODEL 1
REMARK VINA RESULT:      -7.6      0.000      0.000
REMARK  Name = 
REMARK  6 active torsions:
REMARK  status: ('A' for Active; 'I' for Inactive)
REMARK    1  A    between atoms: C_1  and  O_2
REMARK    2  A    between atoms: O_2  and  C_3
REMARK    3  A    between atoms: C_6  and  C_7
REMARK    4  A    between atoms: C_11  and  C_12
REMARK    5  A    between atoms: C_15  and  C_16
REMARK    6  A    between atoms: C_16  and  C_17
REMARK                            x       y       z     vdW  Elec       q    Type
REMARK                         _______ _______ _______ _____ _____    ______ ____
ROOT
ATOM      1  C   UNL     1       5.283   4.448  17.261  0.00  0.00    +0.000 A 
ATOM      2  N   UNL     1       4.830   3.870  16.091  0.00  0.00    +0.000 NA
ATOM      3  C   UNL     1       5.733   4.210  15.229  0.00  0.00    +0.000 A 
ATOM      4  S   UNL     1       5.916   3.974  13.550  0.00  0.00    +0.000 S 
ATOM      5  C   UNL     1       7.358   4.993  13.691  0.00  0.00    +0.000 A 
ATOM      6  C   UNL     1       8.102   5.298  12.433  0.00  0.00    +0.000 C 
ATOM      7  N   UNL     1       7.692   5.436  14.875  0.00  0.00    +0.000 NA
ATOM      8  N   UNL     1       6.739   4.968  15.734  0.00  0.00    +0.000 N 
ATOM      9  C   UNL     1       6.528   5.094  17.092  0.00  0.00    +0.000 A 
ENDROOT
BRANCH   1  13
ATOM     10  C   UNL     1       2.735   4.045  20.663  0.00  0.00    +0.000 A 
ATOM     11  C   UNL     1       3.327   2.929  20.078  0.00  0.00    +0.000 A 
ATOM     12  C   UNL     1       4.191   3.080  18.989  0.00  0.00    +0.000 A 
ATOM     13  C   UNL     1       4.459   4.348  18.457  0.00  0.00    +0.000 A 
ATOM     14  C   UNL     1       3.822   5.455  19.021  0.00  0.00    +0.000 A 
ATOM     15  C   UNL     1       2.978   5.309  20.130  0.00  0.00    +0.000 A 
BRANCH  10  17
ATOM     16  C   UNL     1       1.479   2.426  21.838  0.00  0.00    +0.000 C 
ATOM     17  O   UNL     1       1.898   3.781  21.714  0.00  0.00    +0.000 OA
ENDBRANCH  10  17
ENDBRANCH   1  13
BRANCH   9  18
ATOM     18  C   UNL     1       7.395   5.696  18.086  0.00  0.00    +0.000 C 
ATOM     19  C   UNL     1       7.732   7.166  18.056  0.00  0.00    +0.000 C 
ATOM     20  O   UNL     1       7.881   5.045  19.016  0.00  0.00    +0.000 OA
ENDBRANCH   9  18
TORSDOF 3
ENDMDL
MODEL 2
REMARK VINA RESULT:      -7.3      0.236      1.096
REMARK  Name = 
REMARK  6 active torsions:
REMARK  status: ('A' for Active; 'I' for Inactive)
REMARK    1  A    between atoms: C_1  and  O_2
REMARK    2  A    between atoms: O_2  and  C_3
REMARK    3  A    between atoms: C_6  and  C_7
REMARK    4  A    between atoms: C_11  and  C_12
REMARK    5  A    between atoms: C_15  and  C_16
REMARK    6  A    between atoms: C_16  and  C_17
REMARK                            x       y       z     vdW  Elec       q    Type
REMARK                         _______ _______ _______ _____ _____    ______ ____
ROOT
ATOM      1  C   UNL     1       5.262   4.279  17.098  0.00  0.00    +0.000 A 
ATOM      2  N   UNL     1       4.866   3.756  15.882  0.00  0.00    +0.000 NA
ATOM      3  C   UNL     1       5.783   4.174  15.072  0.00  0.00    +0.000 A 
ATOM      4  S   UNL     1       6.027   4.044  13.389  0.00  0.00    +0.000 S 
ATOM      5  C   UNL     1       7.429   5.097  13.636  0.00  0.00    +0.000 A 
ATOM      6  C   UNL     1       8.201   5.499  12.424  0.00  0.00    +0.000 C 
ATOM      7  N   UNL     1       7.711   5.480  14.854  0.00  0.00    +0.000 NA
ATOM      8  N   UNL     1       6.747   4.932  15.652  0.00  0.00    +0.000 N 
ATOM      9  C   UNL     1       6.490   4.972  17.008  0.00  0.00    +0.000 A 
ENDROOT
BRANCH   1  13
ATOM     10  C   UNL     1       2.861   3.833  20.600  0.00  0.00    +0.000 A 
ATOM     11  C   UNL     1       2.953   5.060  19.948  0.00  0.00    +0.000 A 
ATOM     12  C   UNL     1       3.710   5.181  18.780  0.00  0.00    +0.000 A 
ATOM     13  C   UNL     1       4.405   4.082  18.258  0.00  0.00    +0.000 A 
ATOM     14  C   UNL     1       4.345   2.869  18.947  0.00  0.00    +0.000 A 
ATOM     15  C   UNL     1       3.564   2.738  20.102  0.00  0.00    +0.000 A 
BRANCH  10  17
ATOM     16  C   UNL     1       1.379   2.630  21.991  0.00  0.00    +0.000 C 
ATOM     17  O   UNL     1       2.103   3.830  21.740  0.00  0.00    +0.000 OA
ENDBRANCH  10  17
ENDBRANCH   1  13
BRANCH   9  18
ATOM     18  C   UNL     1       7.306   5.541  18.063  0.00  0.00    +0.000 C 
ATOM     19  C   UNL     1       7.616   7.016  18.115  0.00  0.00    +0.000 C 
ATOM     20  O   UNL     1       7.765   4.855  18.982  0.00  0.00    +0.000 OA
ENDBRANCH   9  18
TORSDOF 3
ENDMDL
MODEL 3
REMARK VINA RESULT:      -6.8      1.131      1.568
REMARK  Name = 
REMARK  6 active torsions:
REMARK  status: ('A' for Active; 'I' for Inactive)
REMARK    1  A    between atoms: C_1  and  O_2
REMARK    2  A    between atoms: O_2  and  C_3
REMARK    3  A    between atoms: C_6  and  C_7
REMARK    4  A    between atoms: C_11  and  C_12
REMARK    5  A    between atoms: C_15  and  C_16
REMARK    6  A    between atoms: C_16  and  C_17
REMARK                            x       y       z     vdW  Elec       q    Type
REMARK                         _______ _______ _______ _____ _____    ______ ____
ROOT
ATOM      1  C   UNL     1       4.912   3.929  16.517  0.00  0.00    +0.000 A 
ATOM      2  N   UNL     1       4.776   3.544  15.196  0.00  0.00    +0.000 NA
ATOM      3  C   UNL     1       5.808   4.077  14.629  0.00  0.00    +0.000 A 
ATOM      4  S   UNL     1       6.369   4.153  13.019  0.00  0.00    +0.000 S 
ATOM      5  C   UNL     1       7.650   5.202  13.647  0.00  0.00    +0.000 A 
ATOM      6  C   UNL     1       8.616   5.763  12.657  0.00  0.00    +0.000 C 
ATOM      7  N   UNL     1       7.681   5.445  14.932  0.00  0.00    +0.000 NA
ATOM      8  N   UNL     1       6.611   4.784  15.464  0.00  0.00    +0.000 N 
ATOM      9  C   UNL     1       6.102   4.657  16.741  0.00  0.00    +0.000 A 
ENDROOT
BRANCH   1  13
ATOM     10  C   UNL     1       1.927   3.005  19.425  0.00  0.00    +0.000 A 
ATOM     11  C   UNL     1       2.130   4.316  19.001  0.00  0.00    +0.000 A 
ATOM     12  C   UNL     1       3.083   4.598  18.018  0.00  0.00    +0.000 A 
ATOM     13  C   UNL     1       3.863   3.576  17.462  0.00  0.00    +0.000 A 
ATOM     14  C   UNL     1       3.685   2.273  17.929  0.00  0.00    +0.000 A 
ATOM     15  C   UNL     1       2.711   1.983  18.893  0.00  0.00    +0.000 A 
BRANCH  10  17
ATOM     16  C   UNL     1       1.476   2.747  21.729  0.00  0.00    +0.000 C 
ATOM     17  O   UNL     1       0.978   2.844  20.399  0.00  0.00    +0.000 OA
ENDBRANCH  10  17
ENDBRANCH   1  13
BRANCH   9  18
ATOM     18  C   UNL     1       6.679   5.116  17.990  0.00  0.00    +0.000 C 
ATOM     19  C   UNL     1       7.298   6.485  18.119  0.00  0.00    +0.000 C 
ATOM     20  O   UNL     1       6.670   4.424  19.013  0.00  0.00    +0.000 OA
ENDBRANCH   9  18
TORSDOF 3
ENDMDL
MODEL 4
REMARK VINA RESULT:      -6.8      1.018      1.069
REMARK  Name = 
REMARK  6 active torsions:
REMARK  status: ('A' for Active; 'I' for Inactive)
REMARK    1  A    between atoms: C_1  and  O_2
REMARK    2  A    between atoms: O_2  and  C_3
REMARK    3  A    between atoms: C_6  and  C_7
REMARK    4  A    between atoms: C_11  and  C_12
REMARK    5  A    between atoms: C_15  and  C_16
REMARK    6  A    between atoms: C_16  and  C_17
REMARK                            x       y       z     vdW  Elec       q    Type
REMARK                         _______ _______ _______ _____ _____    ______ ____
ROOT
ATOM      1  C   UNL     1       4.896   4.518  16.920  0.00  0.00    +0.000 A 
ATOM      2  N   UNL     1       4.734   3.778  15.764  0.00  0.00    +0.000 NA
ATOM      3  C   UNL     1       5.711   4.182  15.020  0.00  0.00    +0.000 A 
ATOM      4  S   UNL     1       6.207   3.837  13.425  0.00  0.00    +0.000 S 
ATOM      5  C   UNL     1       7.445   5.078  13.674  0.00  0.00    +0.000 A 
ATOM      6  C   UNL     1       8.340   5.389  12.520  0.00  0.00    +0.000 C 
ATOM      7  N   UNL     1       7.509   5.667  14.840  0.00  0.00    +0.000 NA
ATOM      8  N   UNL     1       6.500   5.129  15.588  0.00  0.00    +0.000 N 
ATOM      9  C   UNL     1       6.047   5.335  16.875  0.00  0.00    +0.000 A 
ENDROOT
BRANCH   1  13
ATOM     10  C   UNL     1       1.949   3.961  19.958  0.00  0.00    +0.000 A 
ATOM     11  C   UNL     1       3.090   3.164  19.916  0.00  0.00    +0.000 A 
ATOM     12  C   UNL     1       4.066   3.385  18.939  0.00  0.00    +0.000 A 
ATOM     13  C   UNL     1       3.904   4.391  17.979  0.00  0.00    +0.000 A 
ATOM     14  C   UNL     1       2.734   5.152  18.002  0.00  0.00    +0.000 A 
ATOM     15  C   UNL     1       1.768   4.952  18.996  0.00  0.00    +0.000 A 
BRANCH  10  17
ATOM     16  C   UNL     1       1.494   2.674  21.886  0.00  0.00    +0.000 C 
ATOM     17  O   UNL     1       1.054   3.651  20.948  0.00  0.00    +0.000 OA
ENDBRANCH  10  17
ENDBRANCH   1  13
BRANCH   9  18
ATOM     18  C   UNL     1       6.641   6.149  17.919  0.00  0.00    +0.000 C 
ATOM     19  C   UNL     1       7.163   5.540  19.196  0.00  0.00    +0.000 C 
ATOM     20  O   UNL     1       6.769   7.372  17.807  0.00  0.00    +0.000 OA
ENDBRANCH   9  18
TORSDOF 3
ENDMDL
MODEL 5
REMARK VINA RESULT:      -6.6      3.556      5.134
REMARK  Name = 
REMARK  6 active torsions:
REMARK  status: ('A' for Active; 'I' for Inactive)
REMARK    1  A    between atoms: C_1  and  O_2
REMARK    2  A    between atoms: O_2  and  C_3
REMARK    3  A    between atoms: C_6  and  C_7
REMARK    4  A    between atoms: C_11  and  C_12
REMARK    5  A    between atoms: C_15  and  C_16
REMARK    6  A    between atoms: C_16  and  C_17
REMARK                            x       y       z     vdW  Elec       q    Type
REMARK                         _______ _______ _______ _____ _____    ______ ____
ROOT
ATOM      1  C   UNL     1       2.889   6.888  18.268  0.00  0.00    +0.000 A 
ATOM      2  N   UNL     1       3.980   7.480  17.661  0.00  0.00    +0.000 NA
ATOM      3  C   UNL     1       4.541   6.492  17.043  0.00  0.00    +0.000 A 
ATOM      4  S   UNL     1       5.961   6.331  16.112  0.00  0.00    +0.000 S 
ATOM      5  C   UNL     1       5.578   4.602  16.057  0.00  0.00    +0.000 A 
ATOM      6  C   UNL     1       6.547   3.713  15.351  0.00  0.00    +0.000 C 
ATOM      7  N   UNL     1       4.484   4.189  16.641  0.00  0.00    +0.000 NA
ATOM      8  N   UNL     1       3.913   5.300  17.196  0.00  0.00    +0.000 N 
ATOM      9  C   UNL     1       2.771   5.519  17.940  0.00  0.00    +0.000 A 
ENDROOT
BRANCH   1  13
ATOM     10  C   UNL     1       0.558   9.405  20.809  0.00  0.00    +0.000 A 
ATOM     11  C   UNL     1       0.755   9.729  19.470  0.00  0.00    +0.000 A 
ATOM     12  C   UNL     1       1.487   8.874  18.640  0.00  0.00    +0.000 A 
ATOM     13  C   UNL     1       2.050   7.695  19.143  0.00  0.00    +0.000 A 
ATOM     14  C   UNL     1       1.887   7.405  20.498  0.00  0.00    +0.000 A 
ATOM     15  C   UNL     1       1.130   8.244  21.326  0.00  0.00    +0.000 A 
BRANCH  10  17
ATOM     16  C   UNL     1      -0.387   9.977  22.897  0.00  0.00    +0.000 C 
ATOM     17  O   UNL     1      -0.163  10.317  21.533  0.00  0.00    +0.000 OA
ENDBRANCH  10  17
ENDBRANCH   1  13
BRANCH   9  18
ATOM     18  C   UNL     1       1.707   4.585  18.254  0.00  0.00    +0.000 C 
ATOM     19  C   UNL     1       1.468   4.102  19.662  0.00  0.00    +0.000 C 
ATOM     20  O   UNL     1       0.932   4.157  17.392  0.00  0.00    +0.000 OA
ENDBRANCH   9  18
TORSDOF 3
ENDMDL
MODEL 6
REMARK VINA RESULT:      -6.5      1.631      2.346
REMARK  Name = 
REMARK  6 active torsions:
REMARK  status: ('A' for Active; 'I' for Inactive)
REMARK    1  A    between atoms: C_1  and  O_2
REMARK    2  A    between atoms: O_2  and  C_3
REMARK    3  A    between atoms: C_6  and  C_7
REMARK    4  A    between atoms: C_11  and  C_12
REMARK    5  A    between atoms: C_15  and  C_16
REMARK    6  A    between atoms: C_16  and  C_17
REMARK                            x       y       z     vdW  Elec       q    Type
REMARK                         _______ _______ _______ _____ _____    ______ ____
ROOT
ATOM      1  C   UNL     1       4.832   5.366  16.830  0.00  0.00    +0.000 A 
ATOM      2  N   UNL     1       4.424   4.478  15.853  0.00  0.00    +0.000 NA
ATOM      3  C   UNL     1       5.400   4.509  15.005  0.00  0.00    +0.000 A 
ATOM      4  S   UNL     1       5.680   3.771  13.492  0.00  0.00    +0.000 S 
ATOM      5  C   UNL     1       7.167   4.732  13.439  0.00  0.00    +0.000 A 
ATOM      6  C   UNL     1       8.009   4.616  12.212  0.00  0.00    +0.000 C 
ATOM      7  N   UNL     1       7.448   5.499  14.460  0.00  0.00    +0.000 NA
ATOM      8  N   UNL     1       6.414   5.346  15.340  0.00  0.00    +0.000 N 
ATOM      9  C   UNL     1       6.121   5.885  16.577  0.00  0.00    +0.000 A 
ENDROOT
BRANCH   1  13
ATOM     10  C   UNL     1       2.291   6.387  20.105  0.00  0.00    +0.000 A 
ATOM     11  C   UNL     1       2.461   7.260  19.033  0.00  0.00    +0.000 A 
ATOM     12  C   UNL     1       3.264   6.895  17.949  0.00  0.00    +0.000 A 
ATOM     13  C   UNL     1       3.926   5.661  17.931  0.00  0.00    +0.000 A 
ATOM     14  C   UNL     1       3.787   4.814  19.032  0.00  0.00    +0.000 A 
ATOM     15  C   UNL     1       2.961   5.165  20.107  0.00  0.00    +0.000 A 
BRANCH  10  17
ATOM     16  C   UNL     1       1.196   8.242  21.074  0.00  0.00    +0.000 C 
ATOM     17  O   UNL     1       1.493   6.850  21.117  0.00  0.00    +0.000 OA
ENDBRANCH  10  17
ENDBRANCH   1  13
BRANCH   9  18
ATOM     18  C   UNL     1       6.955   6.727  17.413  0.00  0.00    +0.000 C 
ATOM     19  C   UNL     1       7.608   6.200  18.666  0.00  0.00    +0.000 C 
ATOM     20  O   UNL     1       7.192   7.906  17.130  0.00  0.00    +0.000 OA
ENDBRANCH   9  18
TORSDOF 3
ENDMDL
MODEL 7
REMARK VINA RESULT:      -6.5      1.758      2.267
REMARK  Name = 
REMARK  6 active torsions:
REMARK  status: ('A' for Active; 'I' for Inactive)
REMARK    1  A    between atoms: C_1  and  O_2
REMARK    2  A    between atoms: O_2  and  C_3
REMARK    3  A    between atoms: C_6  and  C_7
REMARK    4  A    between atoms: C_11  and  C_12
REMARK    5  A    between atoms: C_15  and  C_16
REMARK    6  A    between atoms: C_16  and  C_17
REMARK                            x       y       z     vdW  Elec       q    Type
REMARK                         _______ _______ _______ _____ _____    ______ ____
ROOT
ATOM      1  C   UNL     1       4.861   5.651  16.899  0.00  0.00    +0.000 A 
ATOM      2  N   UNL     1       4.373   4.747  15.975  0.00  0.00    +0.000 NA
ATOM      3  C   UNL     1       5.338   4.654  15.120  0.00  0.00    +0.000 A 
ATOM      4  S   UNL     1       5.541   3.816  13.648  0.00  0.00    +0.000 S 
ATOM      5  C   UNL     1       7.100   4.650  13.532  0.00  0.00    +0.000 A 
ATOM      6  C   UNL     1       7.916   4.401  12.308  0.00  0.00    +0.000 C 
ATOM      7  N   UNL     1       7.452   5.446  14.508  0.00  0.00    +0.000 NA
ATOM      8  N   UNL     1       6.419   5.424  15.402  0.00  0.00    +0.000 N 
ATOM      9  C   UNL     1       6.185   6.050  16.610  0.00  0.00    +0.000 A 
ENDROOT
BRANCH   1  13
ATOM     10  C   UNL     1       2.200   6.744  20.054  0.00  0.00    +0.000 A 
ATOM     11  C   UNL     1       2.888   5.534  20.087  0.00  0.00    +0.000 A 
ATOM     12  C   UNL     1       3.787   5.208  19.068  0.00  0.00    +0.000 A 
ATOM     13  C   UNL     1       3.994   6.077  17.989  0.00  0.00    +0.000 A 
ATOM     14  C   UNL     1       3.263   7.265  17.941  0.00  0.00    +0.000 A 
ATOM     15  C   UNL     1       2.382   7.608  18.975  0.00  0.00    +0.000 A 
BRANCH  10  17
ATOM     16  C   UNL     1       1.029   8.320  21.366  0.00  0.00    +0.000 C 
ATOM     17  O   UNL     1       1.337   6.957  21.096  0.00  0.00    +0.000 OA
ENDBRANCH  10  17
ENDBRANCH   1  13
BRANCH   9  18
ATOM     18  C   UNL     1       7.093   6.866  17.393  0.00  0.00    +0.000 C 
ATOM     19  C   UNL     1       7.750   6.341  18.644  0.00  0.00    +0.000 C 
ATOM     20  O   UNL     1       7.391   8.019  17.063  0.00  0.00    +0.000 OA
ENDBRANCH   9  18
TORSDOF 3
ENDMDL
MODEL 8
REMARK VINA RESULT:      -6.4      3.488      4.980
REMARK  Name = 
REMARK  6 active torsions:
REMARK  status: ('A' for Active; 'I' for Inactive)
REMARK    1  A    between atoms: C_1  and  O_2
REMARK    2  A    between atoms: O_2  and  C_3
REMARK    3  A    between atoms: C_6  and  C_7
REMARK    4  A    between atoms: C_11  and  C_12
REMARK    5  A    between atoms: C_15  and  C_16
REMARK    6  A    between atoms: C_16  and  C_17
REMARK                            x       y       z     vdW  Elec       q    Type
REMARK                         _______ _______ _______ _____ _____    ______ ____
ROOT
ATOM      1  C   UNL     1       2.972   6.959  18.168  0.00  0.00    +0.000 A 
ATOM      2  N   UNL     1       4.073   7.501  17.534  0.00  0.00    +0.000 NA
ATOM      3  C   UNL     1       4.604   6.479  16.946  0.00  0.00    +0.000 A 
ATOM      4  S   UNL     1       6.013   6.248  16.012  0.00  0.00    +0.000 S 
ATOM      5  C   UNL     1       5.585   4.530  16.017  0.00  0.00    +0.000 A 
ATOM      6  C   UNL     1       6.525   3.592  15.336  0.00  0.00    +0.000 C 
ATOM      7  N   UNL     1       4.484   4.166  16.622  0.00  0.00    +0.000 NA
ATOM      8  N   UNL     1       3.947   5.309  17.143  0.00  0.00    +0.000 N 
ATOM      9  C   UNL     1       2.816   5.583  17.886  0.00  0.00    +0.000 A 
ENDROOT
BRANCH   1  13
ATOM     10  C   UNL     1       0.470   9.319  20.696  0.00  0.00    +0.000 A 
ATOM     11  C   UNL     1       1.135   8.201  21.193  0.00  0.00    +0.000 A 
ATOM     12  C   UNL     1       1.983   7.461  20.363  0.00  0.00    +0.000 A 
ATOM     13  C   UNL     1       2.161   7.816  19.020  0.00  0.00    +0.000 A 
ATOM     14  C   UNL     1       1.452   8.910  18.521  0.00  0.00    +0.000 A 
ATOM     15  C   UNL     1       0.623   9.670  19.357  0.00  0.00    +0.000 A 
BRANCH  10  17
ATOM     16  C   UNL     1      -0.322   9.446  22.918  0.00  0.00    +0.000 C 
ATOM     17  O   UNL     1      -0.343   9.963  21.591  0.00  0.00    +0.000 OA
ENDBRANCH  10  17
ENDBRANCH   1  13
BRANCH   9  18
ATOM     18  C   UNL     1       1.730   4.688  18.238  0.00  0.00    +0.000 C 
ATOM     19  C   UNL     1       1.507   4.235  19.658  0.00  0.00    +0.000 C 
ATOM     20  O   UNL     1       0.923   4.273  17.400  0.00  0.00    +0.000 OA
ENDBRANCH   9  18
TORSDOF 3
ENDMDL
MODEL 9
REMARK VINA RESULT:      -6.3      3.814      5.510
REMARK  Name = 
REMARK  6 active torsions:
REMARK  status: ('A' for Active; 'I' for Inactive)
REMARK    1  A    between atoms: C_1  and  O_2
REMARK    2  A    between atoms: O_2  and  C_3
REMARK    3  A    between atoms: C_6  and  C_7
REMARK    4  A    between atoms: C_11  and  C_12
REMARK    5  A    between atoms: C_15  and  C_16
REMARK    6  A    between atoms: C_16  and  C_17
REMARK                            x       y       z     vdW  Elec       q    Type
REMARK                         _______ _______ _______ _____ _____    ______ ____
ROOT
ATOM      1  C   UNL     1       2.565   7.188  18.869  0.00  0.00    +0.000 A 
ATOM      2  N   UNL     1       3.275   7.723  17.811  0.00  0.00    +0.000 NA
ATOM      3  C   UNL     1       3.985   6.723  17.400  0.00  0.00    +0.000 A 
ATOM      4  S   UNL     1       5.173   6.531  16.192  0.00  0.00    +0.000 S 
ATOM      5  C   UNL     1       5.347   4.877  16.802  0.00  0.00    +0.000 A 
ATOM      6  C   UNL     1       6.388   4.020  16.161  0.00  0.00    +0.000 C 
ATOM      7  N   UNL     1       4.574   4.493  17.784  0.00  0.00    +0.000 NA
ATOM      8  N   UNL     1       3.805   5.576  18.102  0.00  0.00    +0.000 N 
ATOM      9  C   UNL     1       2.820   5.809  19.041  0.00  0.00    +0.000 A 
ENDROOT
BRANCH   1  13
ATOM     10  C   UNL     1       0.171   9.906  21.128  0.00  0.00    +0.000 A 
ATOM     11  C   UNL     1       0.411  10.122  19.774  0.00  0.00    +0.000 A 
ATOM     12  C   UNL     1       1.164   9.202  19.037  0.00  0.00    +0.000 A 
ATOM     13  C   UNL     1       1.705   8.065  19.650  0.00  0.00    +0.000 A 
ATOM     14  C   UNL     1       1.498   7.883  21.019  0.00  0.00    +0.000 A 
ATOM     15  C   UNL     1       0.721   8.789  21.753  0.00  0.00    +0.000 A 
BRANCH  10  17
ATOM     16  C   UNL     1      -0.959  10.578  23.090  0.00  0.00    +0.000 C 
ATOM     17  O   UNL     1      -0.567  10.875  21.754  0.00  0.00    +0.000 OA
ENDBRANCH  10  17
ENDBRANCH   1  13
BRANCH   9  18
ATOM     18  C   UNL     1       2.185   4.860  19.935  0.00  0.00    +0.000 C 
ATOM     19  C   UNL     1       1.087   3.941  19.463  0.00  0.00    +0.000 C 
ATOM     20  O   UNL     1       2.526   4.740  21.116  0.00  0.00    +0.000 OA
ENDBRANCH   9  18
TORSDOF 3
ENDMDL
