MODEL 1
REMARK VINA RESULT:      -7.0      0.000      0.000
REMARK  Name = 
REMARK  10 active torsions:
REMARK  status: ('A' for Active; 'I' for Inactive)
REMARK    1  A    between atoms: C_2  and  O_3
REMARK    2  A    between atoms: C_2  and  C_4
REMARK    3  A    between atoms: C_11  and  O_12
REMARK    4  A    between atoms: C_15  and  C_16
REMARK    5  A    between atoms: C_16  and  C_17
REMARK    6  A    between atoms: C_17  and  C_18
REMARK    7  A    between atoms: C_18  and  C_19
REMARK    8  A    between atoms: C_19  and  O_21
REMARK    9  A    between atoms: N_24  and  C_25
REMARK   10  A    between atoms: C_25  and  C_26
REMARK                            x       y       z     vdW  Elec       q    Type
REMARK                         _______ _______ _______ _____ _____    ______ ____
ROOT
ATOM      1  C   UNL     1       1.862   4.349  20.794  0.00  0.00    +0.000 C 
ATOM      2  C   UNL     1       2.517   4.736  19.674  0.00  0.00    +0.000 C 
ATOM      3  C   UNL     1       3.028   6.159  19.522  0.00  0.00    +0.000 C 
ATOM      4  C   UNL     1       4.583   6.009  19.543  0.00  0.00    +0.000 C 
ATOM      5  C   UNL     1       5.059   5.187  18.359  0.00  0.00    +0.000 A 
ATOM      6  C   UNL     1       6.370   5.218  17.892  0.00  0.00    +0.000 A 
ATOM      7  C   UNL     1       6.717   4.529  16.720  0.00  0.00    +0.000 A 
ATOM      8  C   UNL     1       5.729   3.901  15.970  0.00  0.00    +0.000 A 
ATOM      9  C   UNL     1       4.428   3.863  16.422  0.00  0.00    +0.000 A 
ATOM     10  C   UNL     1       4.128   4.381  17.685  0.00  0.00    +0.000 A 
ATOM     11  C   UNL     1       2.837   3.956  18.374  0.00  0.00    +0.000 C 
ATOM     12  C   UNL     1       1.620   4.455  17.541  0.00  0.00    +0.000 C 
ATOM     13  C   UNL     1       1.528   6.031  17.493  0.00  0.00    +0.000 C 
ATOM     14  N   UNL     1       2.507   6.757  18.292  0.00  0.00    +0.000 NA
ENDROOT
BRANCH   1  16
ATOM     15  O   UNL     1       1.720   2.277  22.110  0.00  0.00    +0.000 OA
ATOM     16  C   UNL     1       1.385   3.008  21.204  0.00  0.00    +0.000 C 
BRANCH  16  17
ATOM     17  O   UNL     1       0.301   2.720  20.430  0.00  0.00    +0.000 OA
ATOM     18  H   UNL     1       0.542   3.102  19.551  0.00  0.00    +0.000 HD
ENDBRANCH  16  17
ENDBRANCH   1  16
BRANCH   8  19
ATOM     19  O   UNL     1       5.990   3.196  14.835  0.00  0.00    +0.000 OA
ATOM     20  H   UNL     1       6.932   2.969  14.819  0.00  0.00    +0.000 HD
ENDBRANCH   8  19
BRANCH  11  21
ATOM     21  C   UNL     1       3.005   2.421  18.695  0.00  0.00    +0.000 C 
BRANCH  21  22
ATOM     22  C   UNL     1       4.293   1.618  19.052  0.00  0.00    +0.000 C 
BRANCH  22  23
ATOM     23  C   UNL     1       4.717   1.814  20.530  0.00  0.00    +0.000 C 
BRANCH  23  24
ATOM     24  C   UNL     1       5.625   0.736  21.095  0.00  0.00    +0.000 C 
ATOM     25  O   UNL     1       6.099   0.764  22.221  0.00  0.00    +0.000 OA
BRANCH  24  26
ATOM     26  O   UNL     1       5.784  -0.331  20.281  0.00  0.00    +0.000 OA
ATOM     27  H   UNL     1       6.588  -0.852  20.465  0.00  0.00    +0.000 HD
ENDBRANCH  24  26
ENDBRANCH  23  24
ENDBRANCH  22  23
ENDBRANCH  21  22
ENDBRANCH  11  21
BRANCH  14  28
ATOM     28  C   UNL     1       2.938   8.084  17.894  0.00  0.00    +0.000 C 
BRANCH  28  29
ATOM     29  C   UNL     1       1.806   9.069  17.758  0.00  0.00    +0.000 C 
ATOM     30  C   UNL     1       1.118   9.732  18.931  0.00  0.00    +0.000 C 
ATOM     31  C   UNL     1       2.049  10.530  18.067  0.00  0.00    +0.000 C 
ENDBRANCH  28  29
ENDBRANCH  14  28
TORSDOF 10
ENDMDL
MODEL 2
REMARK VINA RESULT:      -6.8      2.422      5.570
REMARK  Name = 
REMARK  10 active torsions:
REMARK  status: ('A' for Active; 'I' for Inactive)
REMARK    1  A    between atoms: C_2  and  O_3
REMARK    2  A    between atoms: C_2  and  C_4
REMARK    3  A    between atoms: C_11  and  O_12
REMARK    4  A    between atoms: C_15  and  C_16
REMARK    5  A    between atoms: C_16  and  C_17
REMARK    6  A    between atoms: C_17  and  C_18
REMARK    7  A    between atoms: C_18  and  C_19
REMARK    8  A    between atoms: C_19  and  O_21
REMARK    9  A    between atoms: N_24  and  C_25
REMARK   10  A    between atoms: C_25  and  C_26
REMARK                            x       y       z     vdW  Elec       q    Type
REMARK                         _______ _______ _______ _____ _____    ______ ____
ROOT
ATOM      1  C   UNL     1       5.761   5.277  14.609  0.00  0.00    +0.000 C 
ATOM      2  C   UNL     1       5.546   5.677  15.884  0.00  0.00    +0.000 C 
ATOM      3  C   UNL     1       5.735   7.129  16.288  0.00  0.00    +0.000 C 
ATOM      4  C   UNL     1       4.292   7.621  16.627  0.00  0.00    +0.000 C 
ATOM      5  C   UNL     1       3.726   6.852  17.807  0.00  0.00    +0.000 A 
ATOM      6  C   UNL     1       2.662   7.318  18.576  0.00  0.00    +0.000 A 
ATOM      7  C   UNL     1       2.266   6.619  19.726  0.00  0.00    +0.000 A 
ATOM      8  C   UNL     1       3.002   5.519  20.155  0.00  0.00    +0.000 A 
ATOM      9  C   UNL     1       4.056   5.050  19.402  0.00  0.00    +0.000 A 
ATOM     10  C   UNL     1       4.321   5.631  18.159  0.00  0.00    +0.000 A 
ATOM     11  C   UNL     1       5.158   4.862  17.143  0.00  0.00    +0.000 C 
ATOM     12  C   UNL     1       6.597   4.667  17.703  0.00  0.00    +0.000 C 
ATOM     13  C   UNL     1       7.366   6.035  17.878  0.00  0.00    +0.000 C 
ATOM     14  N   UNL     1       6.672   7.228  17.408  0.00  0.00    +0.000 NA
ENDROOT
BRANCH   1  16
ATOM     15  O   UNL     1       4.760   3.608  13.106  0.00  0.00    +0.000 OA
ATOM     16  C   UNL     1       5.532   3.960  13.971  0.00  0.00    +0.000 C 
BRANCH  16  17
ATOM     17  O   UNL     1       6.501   3.122  14.435  0.00  0.00    +0.000 OA
ATOM     18  H   UNL     1       7.206   3.187  13.745  0.00  0.00    +0.000 HD
ENDBRANCH  16  17
ENDBRANCH   1  16
BRANCH   8  19
ATOM     19  O   UNL     1       2.668   4.780  21.247  0.00  0.00    +0.000 OA
ATOM     20  H   UNL     1       3.065   3.900  21.162  0.00  0.00    +0.000 HD
ENDBRANCH   8  19
BRANCH  11  21
ATOM     21  C   UNL     1       4.290   3.612  16.729  0.00  0.00    +0.000 C 
BRANCH  21  22
ATOM     22  C   UNL     1       2.802   3.285  17.058  0.00  0.00    +0.000 C 
BRANCH  22  23
ATOM     23  C   UNL     1       2.664   2.077  18.020  0.00  0.00    +0.000 C 
BRANCH  23  24
ATOM     24  C   UNL     1       1.526   2.169  19.021  0.00  0.00    +0.000 C 
ATOM     25  O   UNL     1       1.685   2.238  20.230  0.00  0.00    +0.000 OA
BRANCH  24  26
ATOM     26  O   UNL     1       0.304   2.278  18.454  0.00  0.00    +0.000 OA
ATOM     27  H   UNL     1       0.203   3.062  17.883  0.00  0.00    +0.000 HD
ENDBRANCH  24  26
ENDBRANCH  23  24
ENDBRANCH  22  23
ENDBRANCH  21  22
ENDBRANCH  11  21
BRANCH  14  28
ATOM     28  C   UNL     1       6.934   8.516  18.022  0.00  0.00    +0.000 C 
BRANCH  28  29
ATOM     29  C   UNL     1       8.378   8.941  17.938  0.00  0.00    +0.000 C 
ATOM     30  C   UNL     1       8.832  10.382  17.906  0.00  0.00    +0.000 C 
ATOM     31  C   UNL     1       9.041   9.565  19.146  0.00  0.00    +0.000 C 
ENDBRANCH  28  29
ENDBRANCH  14  28
TORSDOF 10
ENDMDL
MODEL 3
REMARK VINA RESULT:      -6.3      6.127      9.558
REMARK  Name = 
REMARK  10 active torsions:
REMARK  status: ('A' for Active; 'I' for Inactive)
REMARK    1  A    between atoms: C_2  and  O_3
REMARK    2  A    between atoms: C_2  and  C_4
REMARK    3  A    between atoms: C_11  and  O_12
REMARK    4  A    between atoms: C_15  and  C_16
REMARK    5  A    between atoms: C_16  and  C_17
REMARK    6  A    between atoms: C_17  and  C_18
REMARK    7  A    between atoms: C_18  and  C_19
REMARK    8  A    between atoms: C_19  and  O_21
REMARK    9  A    between atoms: N_24  and  C_25
REMARK   10  A    between atoms: C_25  and  C_26
REMARK                            x       y       z     vdW  Elec       q    Type
REMARK                         _______ _______ _______ _____ _____    ______ ____
ROOT
ATOM      1  C   UNL     1      -3.806  12.272  19.618  0.00  0.00    +0.000 C 
ATOM      2  C   UNL     1      -2.474  12.028  19.635  0.00  0.00    +0.000 C 
ATOM      3  C   UNL     1      -1.597  12.560  20.756  0.00  0.00    +0.000 C 
ATOM      4  C   UNL     1      -1.138  11.279  21.521  0.00  0.00    +0.000 C 
ATOM      5  C   UNL     1      -0.299  10.388  20.623  0.00  0.00    +0.000 A 
ATOM      6  C   UNL     1       0.562   9.411  21.114  0.00  0.00    +0.000 A 
ATOM      7  C   UNL     1       1.400   8.705  20.236  0.00  0.00    +0.000 A 
ATOM      8  C   UNL     1       1.443   9.054  18.891  0.00  0.00    +0.000 A 
ATOM      9  C   UNL     1       0.595  10.019  18.394  0.00  0.00    +0.000 A 
ATOM     10  C   UNL     1      -0.373  10.578  19.234  0.00  0.00    +0.000 A 
ATOM     11  C   UNL     1      -1.574  11.284  18.616  0.00  0.00    +0.000 C 
ATOM     12  C   UNL     1      -1.087  12.538  17.832  0.00  0.00    +0.000 C 
ATOM     13  C   UNL     1      -0.445  13.628  18.777  0.00  0.00    +0.000 C 
ATOM     14  N   UNL     1      -0.493  13.350  20.207  0.00  0.00    +0.000 NA
ENDROOT
BRANCH   1  16
ATOM     15  O   UNL     1      -5.635  10.844  18.808  0.00  0.00    +0.000 OA
ATOM     16  C   UNL     1      -4.856  11.766  18.705  0.00  0.00    +0.000 C 
BRANCH  16  17
ATOM     17  O   UNL     1      -4.943  12.651  17.672  0.00  0.00    +0.000 OA
ATOM     18  H   UNL     1      -5.646  12.260  17.097  0.00  0.00    +0.000 HD
ENDBRANCH  16  17
ENDBRANCH   1  16
BRANCH   8  19
ATOM     19  O   UNL     1       2.213   8.403  17.977  0.00  0.00    +0.000 OA
ATOM     20  H   UNL     1       2.157   7.450  18.144  0.00  0.00    +0.000 HD
ENDBRANCH   8  19
BRANCH  11  21
ATOM     21  C   UNL     1      -2.404  10.161  17.884  0.00  0.00    +0.000 C 
BRANCH  21  22
ATOM     22  C   UNL     1      -2.352   9.700  16.396  0.00  0.00    +0.000 C 
BRANCH  22  23
ATOM     23  C   UNL     1      -3.611  10.132  15.602  0.00  0.00    +0.000 C 
BRANCH  23  24
ATOM     24  C   UNL     1      -3.528   9.945  14.097  0.00  0.00    +0.000 C 
ATOM     25  O   UNL     1      -2.480   9.820  13.482  0.00  0.00    +0.000 OA
BRANCH  24  26
ATOM     26  O   UNL     1      -4.730   9.818  13.492  0.00  0.00    +0.000 OA
ATOM     27  H   UNL     1      -5.146   8.945  13.623  0.00  0.00    +0.000 HD
ENDBRANCH  24  26
ENDBRANCH  23  24
ENDBRANCH  22  23
ENDBRANCH  21  22
ENDBRANCH  11  21
BRANCH  14  28
ATOM     28  C   UNL     1       0.526  13.882  21.091  0.00  0.00    +0.000 C 
BRANCH  28  29
ATOM     29  C   UNL     1       1.889  13.276  20.873  0.00  0.00    +0.000 C 
ATOM     30  C   UNL     1       2.656  13.372  19.574  0.00  0.00    +0.000 C 
ATOM     31  C   UNL     1       3.096  14.182  20.759  0.00  0.00    +0.000 C 
ENDBRANCH  28  29
ENDBRANCH  14  28
TORSDOF 10
ENDMDL
MODEL 4
REMARK VINA RESULT:      -6.1      8.581     10.984
REMARK  Name = 
REMARK  10 active torsions:
REMARK  status: ('A' for Active; 'I' for Inactive)
REMARK    1  A    between atoms: C_2  and  O_3
REMARK    2  A    between atoms: C_2  and  C_4
REMARK    3  A    between atoms: C_11  and  O_12
REMARK    4  A    between atoms: C_15  and  C_16
REMARK    5  A    between atoms: C_16  and  C_17
REMARK    6  A    between atoms: C_17  and  C_18
REMARK    7  A    between atoms: C_18  and  C_19
REMARK    8  A    between atoms: C_19  and  O_21
REMARK    9  A    between atoms: N_24  and  C_25
REMARK   10  A    between atoms: C_25  and  C_26
REMARK                            x       y       z     vdW  Elec       q    Type
REMARK                         _______ _______ _______ _____ _____    ______ ____
ROOT
ATOM      1  C   UNL     1      -2.208  12.744  23.435  0.00  0.00    +0.000 C 
ATOM      2  C   UNL     1      -1.689  12.705  22.185  0.00  0.00    +0.000 C 
ATOM      3  C   UNL     1      -0.195  12.550  21.965  0.00  0.00    +0.000 C 
ATOM      4  C   UNL     1      -0.050  11.136  21.317  0.00  0.00    +0.000 C 
ATOM      5  C   UNL     1      -0.752  11.086  19.973  0.00  0.00    +0.000 A 
ATOM      6  C   UNL     1      -0.469  10.128  19.004  0.00  0.00    +0.000 A 
ATOM      7  C   UNL     1      -1.064  10.210  17.736  0.00  0.00    +0.000 A 
ATOM      8  C   UNL     1      -1.857  11.307  17.415  0.00  0.00    +0.000 A 
ATOM      9  C   UNL     1      -2.144  12.262  18.365  0.00  0.00    +0.000 A 
ATOM     10  C   UNL     1      -1.709  12.070  19.680  0.00  0.00    +0.000 A 
ATOM     11  C   UNL     1      -2.378  12.852  20.804  0.00  0.00    +0.000 C 
ATOM     12  C   UNL     1      -2.105  14.372  20.609  0.00  0.00    +0.000 C 
ATOM     13  C   UNL     1      -0.574  14.732  20.749  0.00  0.00    +0.000 C 
ATOM     14  N   UNL     1       0.312  13.639  21.128  0.00  0.00    +0.000 NA
ENDROOT
BRANCH   1  16
ATOM     15  O   UNL     1      -4.348  11.900  24.303  0.00  0.00    +0.000 OA
ATOM     16  C   UNL     1      -3.620  12.772  23.881  0.00  0.00    +0.000 C 
BRANCH  16  17
ATOM     17  O   UNL     1      -4.007  14.078  23.889  0.00  0.00    +0.000 OA
ATOM     18  H   UNL     1      -4.991  14.023  23.968  0.00  0.00    +0.000 HD
ENDBRANCH  16  17
ENDBRANCH   1  16
BRANCH   8  19
ATOM     19  O   UNL     1      -2.484  11.446  16.215  0.00  0.00    +0.000 OA
ATOM     20  H   UNL     1      -2.033  10.894  15.560  0.00  0.00    +0.000 HD
ENDBRANCH   8  19
BRANCH  11  21
ATOM     21  C   UNL     1      -3.858  12.314  20.881  0.00  0.00    +0.000 C 
BRANCH  21  22
ATOM     22  C   UNL     1      -5.194  13.029  20.517  0.00  0.00    +0.000 C 
BRANCH  22  23
ATOM     23  C   UNL     1      -6.406  12.438  21.281  0.00  0.00    +0.000 C 
BRANCH  23  24
ATOM     24  C   UNL     1      -7.192  11.376  20.533  0.00  0.00    +0.000 C 
ATOM     25  O   UNL     1      -7.458  11.436  19.342  0.00  0.00    +0.000 OA
BRANCH  24  26
ATOM     26  O   UNL     1      -7.488  10.286  21.276  0.00  0.00    +0.000 OA
ATOM     27  H   UNL     1      -8.332  10.355  21.760  0.00  0.00    +0.000 HD
ENDBRANCH  24  26
ENDBRANCH  23  24
ENDBRANCH  22  23
ENDBRANCH  21  22
ENDBRANCH  11  21
BRANCH  14  28
ATOM     28  C   UNL     1       1.702  13.644  20.711  0.00  0.00    +0.000 C 
BRANCH  28  29
ATOM     29  C   UNL     1       1.884  13.844  19.228  0.00  0.00    +0.000 C 
ATOM     30  C   UNL     1       3.224  13.796  18.529  0.00  0.00    +0.000 C 
ATOM     31  C   UNL     1       2.256  12.663  18.358  0.00  0.00    +0.000 C 
ENDBRANCH  28  29
ENDBRANCH  14  28
TORSDOF 10
ENDMDL
MODEL 5
REMARK VINA RESULT:      -6.0      8.631     11.243
REMARK  Name = 
REMARK  10 active torsions:
REMARK  status: ('A' for Active; 'I' for Inactive)
REMARK    1  A    between atoms: C_2  and  O_3
REMARK    2  A    between atoms: C_2  and  C_4
REMARK    3  A    between atoms: C_11  and  O_12
REMARK    4  A    between atoms: C_15  and  C_16
REMARK    5  A    between atoms: C_16  and  C_17
REMARK    6  A    between atoms: C_17  and  C_18
REMARK    7  A    between atoms: C_18  and  C_19
REMARK    8  A    between atoms: C_19  and  O_21
REMARK    9  A    between atoms: N_24  and  C_25
REMARK   10  A    between atoms: C_25  and  C_26
REMARK                            x       y       z     vdW  Elec       q    Type
REMARK                         _______ _______ _______ _____ _____    ______ ____
ROOT
ATOM      1  C   UNL     1      -3.434  13.100  23.827  0.00  0.00    +0.000 C 
ATOM      2  C   UNL     1      -2.654  13.051  22.721  0.00  0.00    +0.000 C 
ATOM      3  C   UNL     1      -1.141  13.114  22.829  0.00  0.00    +0.000 C 
ATOM      4  C   UNL     1      -0.667  11.696  22.378  0.00  0.00    +0.000 C 
ATOM      5  C   UNL     1      -1.046  11.438  20.931  0.00  0.00    +0.000 A 
ATOM      6  C   UNL     1      -0.430  10.465  20.147  0.00  0.00    +0.000 A 
ATOM      7  C   UNL     1      -0.741  10.360  18.783  0.00  0.00    +0.000 A 
ATOM      8  C   UNL     1      -1.586  11.293  18.193  0.00  0.00    +0.000 A 
ATOM      9  C   UNL     1      -2.201  12.260  18.958  0.00  0.00    +0.000 A 
ATOM     10  C   UNL     1      -2.041  12.236  20.347  0.00  0.00    +0.000 A 
ATOM     11  C   UNL     1      -3.039  12.985  21.221  0.00  0.00    +0.000 C 
ATOM     12  C   UNL     1      -2.939  14.511  20.927  0.00  0.00    +0.000 C 
ATOM     13  C   UNL     1      -1.540  15.114  21.338  0.00  0.00    +0.000 C 
ATOM     14  N   UNL     1      -0.617  14.203  22.004  0.00  0.00    +0.000 NA
ENDROOT
BRANCH   1  16
ATOM     15  O   UNL     1      -5.574  12.013  24.358  0.00  0.00    +0.000 OA
ATOM     16  C   UNL     1      -4.899  12.941  23.970  0.00  0.00    +0.000 C 
BRANCH  16  17
ATOM     17  O   UNL     1      -5.456  14.157  23.709  0.00  0.00    +0.000 OA
ATOM     18  H   UNL     1      -5.376  14.237  22.726  0.00  0.00    +0.000 HD
ENDBRANCH  16  17
ENDBRANCH   1  16
BRANCH   8  19
ATOM     19  O   UNL     1      -1.950  11.244  16.882  0.00  0.00    +0.000 OA
ATOM     20  H   UNL     1      -2.655  10.588  16.778  0.00  0.00    +0.000 HD
ENDBRANCH   8  19
BRANCH  11  21
ATOM     21  C   UNL     1      -4.413  12.231  21.050  0.00  0.00    +0.000 C 
BRANCH  21  22
ATOM     22  C   UNL     1      -5.661  12.622  20.202  0.00  0.00    +0.000 C 
BRANCH  22  23
ATOM     23  C   UNL     1      -6.119  11.475  19.266  0.00  0.00    +0.000 C 
BRANCH  23  24
ATOM     24  C   UNL     1      -7.023  10.436  19.904  0.00  0.00    +0.000 C 
ATOM     25  O   UNL     1      -7.418  10.491  21.060  0.00  0.00    +0.000 OA
BRANCH  24  26
ATOM     26  O   UNL     1      -7.455   9.483  19.049  0.00  0.00    +0.000 OA
ATOM     27  H   UNL     1      -8.405   9.279  19.131  0.00  0.00    +0.000 HD
ENDBRANCH  24  26
ENDBRANCH  23  24
ENDBRANCH  22  23
ENDBRANCH  21  22
ENDBRANCH  11  21
BRANCH  14  28
ATOM     28  C   UNL     1       0.816  14.394  21.881  0.00  0.00    +0.000 C 
BRANCH  28  29
ATOM     29  C   UNL     1       1.311  14.348  20.458  0.00  0.00    +0.000 C 
ATOM     30  C   UNL     1       2.763  14.495  20.064  0.00  0.00    +0.000 C 
ATOM     31  C   UNL     1       2.103  13.150  19.983  0.00  0.00    +0.000 C 
ENDBRANCH  28  29
ENDBRANCH  14  28
TORSDOF 10
ENDMDL
MODEL 6
REMARK VINA RESULT:      -5.9      8.724     11.393
REMARK  Name = 
REMARK  10 active torsions:
REMARK  status: ('A' for Active; 'I' for Inactive)
REMARK    1  A    between atoms: C_2  and  O_3
REMARK    2  A    between atoms: C_2  and  C_4
REMARK    3  A    between atoms: C_11  and  O_12
REMARK    4  A    between atoms: C_15  and  C_16
REMARK    5  A    between atoms: C_16  and  C_17
REMARK    6  A    between atoms: C_17  and  C_18
REMARK    7  A    between atoms: C_18  and  C_19
REMARK    8  A    between atoms: C_19  and  O_21
REMARK    9  A    between atoms: N_24  and  C_25
REMARK   10  A    between atoms: C_25  and  C_26
REMARK                            x       y       z     vdW  Elec       q    Type
REMARK                         _______ _______ _______ _____ _____    ______ ____
ROOT
ATOM      1  C   UNL     1      -2.772  13.154  23.632  0.00  0.00    +0.000 C 
ATOM      2  C   UNL     1      -2.124  13.056  22.447  0.00  0.00    +0.000 C 
ATOM      3  C   UNL     1      -0.614  12.896  22.395  0.00  0.00    +0.000 C 
ATOM      4  C   UNL     1      -0.403  11.453  21.837  0.00  0.00    +0.000 C 
ATOM      5  C   UNL     1      -0.959  11.334  20.430  0.00  0.00    +0.000 A 
ATOM      6  C   UNL     1      -0.576  10.330  19.545  0.00  0.00    +0.000 A 
ATOM      7  C   UNL     1      -1.033  10.348  18.219  0.00  0.00    +0.000 A 
ATOM      8  C   UNL     1      -1.786  11.424  17.761  0.00  0.00    +0.000 A 
ATOM      9  C   UNL     1      -2.171  12.423  18.628  0.00  0.00    +0.000 A 
ATOM     10  C   UNL     1      -1.878  12.299  19.989  0.00  0.00    +0.000 A 
ATOM     11  C   UNL     1      -2.662  13.132  20.996  0.00  0.00    +0.000 C 
ATOM     12  C   UNL     1      -2.367  14.642  20.756  0.00  0.00    +0.000 C 
ATOM     13  C   UNL     1      -0.860  15.015  21.040  0.00  0.00    +0.000 C 
ATOM     14  N   UNL     1      -0.020  13.944  21.564  0.00  0.00    +0.000 NA
ENDROOT
BRANCH   1  16
ATOM     15  O   UNL     1      -5.041  14.084  23.806  0.00  0.00    +0.000 OA
ATOM     16  C   UNL     1      -4.224  13.198  23.924  0.00  0.00    +0.000 C 
BRANCH  16  17
ATOM     17  O   UNL     1      -4.600  11.931  24.253  0.00  0.00    +0.000 OA
ATOM     18  H   UNL     1      -5.337  12.073  24.897  0.00  0.00    +0.000 HD
ENDBRANCH  16  17
ENDBRANCH   1  16
BRANCH   8  19
ATOM     19  O   UNL     1      -2.282  11.502  16.496  0.00  0.00    +0.000 OA
ATOM     20  H   UNL     1      -1.546  11.455  15.869  0.00  0.00    +0.000 HD
ENDBRANCH   8  19
BRANCH  11  21
ATOM     21  C   UNL     1      -4.142  12.592  20.942  0.00  0.00    +0.000 C 
BRANCH  21  22
ATOM     22  C   UNL     1      -5.341  13.070  20.067  0.00  0.00    +0.000 C 
BRANCH  22  23
ATOM     23  C   UNL     1      -6.639  12.276  20.363  0.00  0.00    +0.000 C 
BRANCH  23  24
ATOM     24  C   UNL     1      -7.154  12.379  21.788  0.00  0.00    +0.000 C 
ATOM     25  O   UNL     1      -7.176  11.445  22.575  0.00  0.00    +0.000 OA
BRANCH  24  26
ATOM     26  O   UNL     1      -7.493  13.634  22.159  0.00  0.00    +0.000 OA
ATOM     27  H   UNL     1      -6.730  14.195  22.396  0.00  0.00    +0.000 HD
ENDBRANCH  24  26
ENDBRANCH  23  24
ENDBRANCH  22  23
ENDBRANCH  21  22
ENDBRANCH  11  21
BRANCH  14  28
ATOM     28  C   UNL     1       1.406  13.935  21.297  0.00  0.00    +0.000 C 
BRANCH  28  29
ATOM     29  C   UNL     1       1.748  14.145  19.844  0.00  0.00    +0.000 C 
ATOM     30  C   UNL     1       3.142  14.005  19.277  0.00  0.00    +0.000 C 
ATOM     31  C   UNL     1       2.112  12.954  18.985  0.00  0.00    +0.000 C 
ENDBRANCH  28  29
ENDBRANCH  14  28
TORSDOF 10
ENDMDL
MODEL 7
REMARK VINA RESULT:      -5.9      2.534      5.677
REMARK  Name = 
REMARK  10 active torsions:
REMARK  status: ('A' for Active; 'I' for Inactive)
REMARK    1  A    between atoms: C_2  and  O_3
REMARK    2  A    between atoms: C_2  and  C_4
REMARK    3  A    between atoms: C_11  and  O_12
REMARK    4  A    between atoms: C_15  and  C_16
REMARK    5  A    between atoms: C_16  and  C_17
REMARK    6  A    between atoms: C_17  and  C_18
REMARK    7  A    between atoms: C_18  and  C_19
REMARK    8  A    between atoms: C_19  and  O_21
REMARK    9  A    between atoms: N_24  and  C_25
REMARK   10  A    between atoms: C_25  and  C_26
REMARK                            x       y       z     vdW  Elec       q    Type
REMARK                         _______ _______ _______ _____ _____    ______ ____
ROOT
ATOM      1  C   UNL     1       5.951   5.183  14.710  0.00  0.00    +0.000 C 
ATOM      2  C   UNL     1       5.685   5.679  15.942  0.00  0.00    +0.000 C 
ATOM      3  C   UNL     1       5.858   7.157  16.243  0.00  0.00    +0.000 C 
ATOM      4  C   UNL     1       4.403   7.669  16.485  0.00  0.00    +0.000 C 
ATOM      5  C   UNL     1       3.789   6.990  17.696  0.00  0.00    +0.000 A 
ATOM      6  C   UNL     1       2.695   7.509  18.384  0.00  0.00    +0.000 A 
ATOM      7  C   UNL     1       2.253   6.898  19.568  0.00  0.00    +0.000 A 
ATOM      8  C   UNL     1       2.971   5.836  20.107  0.00  0.00    +0.000 A 
ATOM      9  C   UNL     1       4.055   5.315  19.435  0.00  0.00    +0.000 A 
ATOM     10  C   UNL     1       4.369   5.800  18.163  0.00  0.00    +0.000 A 
ATOM     11  C   UNL     1       5.246   4.959  17.243  0.00  0.00    +0.000 C 
ATOM     12  C   UNL     1       6.662   4.812  17.873  0.00  0.00    +0.000 C 
ATOM     13  C   UNL     1       7.424   6.191  17.974  0.00  0.00    +0.000 C 
ATOM     14  N   UNL     1       6.749   7.343  17.389  0.00  0.00    +0.000 NA
ENDROOT
BRANCH   1  16
ATOM     15  O   UNL     1       6.037   2.729  14.602  0.00  0.00    +0.000 OA
ATOM     16  C   UNL     1       5.747   3.821  14.166  0.00  0.00    +0.000 C 
BRANCH  16  17
ATOM     17  O   UNL     1       4.984   3.953  13.045  0.00  0.00    +0.000 OA
ATOM     18  H   UNL     1       4.681   4.894  13.086  0.00  0.00    +0.000 HD
ENDBRANCH  16  17
ENDBRANCH   1  16
BRANCH   8  19
ATOM     19  O   UNL     1       2.593   5.180  21.238  0.00  0.00    +0.000 OA
ATOM     20  H   UNL     1       1.669   4.905  21.145  0.00  0.00    +0.000 HD
ENDBRANCH   8  19
BRANCH  11  21
ATOM     21  C   UNL     1       4.396   3.680  16.889  0.00  0.00    +0.000 C 
BRANCH  21  22
ATOM     22  C   UNL     1       3.946   2.503  17.807  0.00  0.00    +0.000 C 
BRANCH  22  23
ATOM     23  C   UNL     1       2.437   2.183  17.657  0.00  0.00    +0.000 C 
BRANCH  23  24
ATOM     24  C   UNL     1       1.490   3.272  18.128  0.00  0.00    +0.000 C 
ATOM     25  O   UNL     1       1.080   4.175  17.413  0.00  0.00    +0.000 OA
BRANCH  24  26
ATOM     26  O   UNL     1       1.042   3.103  19.391  0.00  0.00    +0.000 OA
ATOM     27  H   UNL     1       0.070   3.116  19.470  0.00  0.00    +0.000 HD
ENDBRANCH  24  26
ENDBRANCH  23  24
ENDBRANCH  22  23
ENDBRANCH  21  22
ENDBRANCH  11  21
BRANCH  14  28
ATOM     28  C   UNL     1       6.986   8.675  17.913  0.00  0.00    +0.000 C 
BRANCH  28  29
ATOM     29  C   UNL     1       8.445   9.051  17.965  0.00  0.00    +0.000 C 
ATOM     30  C   UNL     1       8.949  10.476  17.957  0.00  0.00    +0.000 C 
ATOM     31  C   UNL     1       9.009   9.674  19.223  0.00  0.00    +0.000 C 
ENDBRANCH  28  29
ENDBRANCH  14  28
TORSDOF 10
ENDMDL
MODEL 8
REMARK VINA RESULT:      -5.9      8.632     11.153
REMARK  Name = 
REMARK  10 active torsions:
REMARK  status: ('A' for Active; 'I' for Inactive)
REMARK    1  A    between atoms: C_2  and  O_3
REMARK    2  A    between atoms: C_2  and  C_4
REMARK    3  A    between atoms: C_11  and  O_12
REMARK    4  A    between atoms: C_15  and  C_16
REMARK    5  A    between atoms: C_16  and  C_17
REMARK    6  A    between atoms: C_17  and  C_18
REMARK    7  A    between atoms: C_18  and  C_19
REMARK    8  A    between atoms: C_19  and  O_21
REMARK    9  A    between atoms: N_24  and  C_25
REMARK   10  A    between atoms: C_25  and  C_26
REMARK                            x       y       z     vdW  Elec       q    Type
REMARK                         _______ _______ _______ _____ _____    ______ ____
ROOT
ATOM      1  C   UNL     1      -2.662  13.075  23.481  0.00  0.00    +0.000 C 
ATOM      2  C   UNL     1      -2.015  12.955  22.297  0.00  0.00    +0.000 C 
ATOM      3  C   UNL     1      -0.513  12.732  22.248  0.00  0.00    +0.000 C 
ATOM      4  C   UNL     1      -0.362  11.283  21.684  0.00  0.00    +0.000 C 
ATOM      5  C   UNL     1      -0.918  11.194  20.275  0.00  0.00    +0.000 A 
ATOM      6  C   UNL     1      -0.576  10.179  19.386  0.00  0.00    +0.000 A 
ATOM      7  C   UNL     1      -1.029  10.222  18.059  0.00  0.00    +0.000 A 
ATOM      8  C   UNL     1      -1.734  11.331  17.605  0.00  0.00    +0.000 A 
ATOM      9  C   UNL     1      -2.079  12.342  18.475  0.00  0.00    +0.000 A 
ATOM     10  C   UNL     1      -1.795  12.199  19.836  0.00  0.00    +0.000 A 
ATOM     11  C   UNL     1      -2.546  13.060  20.845  0.00  0.00    +0.000 C 
ATOM     12  C   UNL     1      -2.187  14.557  20.613  0.00  0.00    +0.000 C 
ATOM     13  C   UNL     1      -0.666  14.865  20.902  0.00  0.00    +0.000 C 
ATOM     14  N   UNL     1       0.127  13.758  21.423  0.00  0.00    +0.000 NA
ENDROOT
BRANCH   1  16
ATOM     15  O   UNL     1      -4.912  14.062  23.557  0.00  0.00    +0.000 OA
ATOM     16  C   UNL     1      -4.110  13.179  23.770  0.00  0.00    +0.000 C 
BRANCH  16  17
ATOM     17  O   UNL     1      -4.509  11.963  24.237  0.00  0.00    +0.000 OA
ATOM     18  H   UNL     1      -5.422  11.867  23.870  0.00  0.00    +0.000 HD
ENDBRANCH  16  17
ENDBRANCH   1  16
BRANCH   8  19
ATOM     19  O   UNL     1      -2.224  11.435  16.339  0.00  0.00    +0.000 OA
ATOM     20  H   UNL     1      -3.178  11.272  16.359  0.00  0.00    +0.000 HD
ENDBRANCH   8  19
BRANCH  11  21
ATOM     21  C   UNL     1      -4.047  12.583  20.786  0.00  0.00    +0.000 C 
BRANCH  21  22
ATOM     22  C   UNL     1      -5.265  13.230  20.059  0.00  0.00    +0.000 C 
BRANCH  22  23
ATOM     23  C   UNL     1      -5.981  12.235  19.111  0.00  0.00    +0.000 C 
BRANCH  23  24
ATOM     24  C   UNL     1      -5.701  12.429  17.631  0.00  0.00    +0.000 C 
ATOM     25  O   UNL     1      -5.167  11.589  16.922  0.00  0.00    +0.000 OA
BRANCH  24  26
ATOM     26  O   UNL     1      -6.193  13.581  17.125  0.00  0.00    +0.000 OA
ATOM     27  H   UNL     1      -5.513  14.169  16.747  0.00  0.00    +0.000 HD
ENDBRANCH  24  26
ENDBRANCH  23  24
ENDBRANCH  22  23
ENDBRANCH  21  22
ENDBRANCH  11  21
BRANCH  14  28
ATOM     28  C   UNL     1       1.552  13.689  21.159  0.00  0.00    +0.000 C 
BRANCH  28  29
ATOM     29  C   UNL     1       1.888  13.076  19.824  0.00  0.00    +0.000 C 
ATOM     30  C   UNL     1       1.404  13.621  18.499  0.00  0.00    +0.000 C 
ATOM     31  C   UNL     1       2.841  13.795  18.894  0.00  0.00    +0.000 C 
ENDBRANCH  28  29
ENDBRANCH  14  28
TORSDOF 10
ENDMDL
MODEL 9
REMARK VINA RESULT:      -5.9      3.413      6.339
REMARK  Name = 
REMARK  10 active torsions:
REMARK  status: ('A' for Active; 'I' for Inactive)
REMARK    1  A    between atoms: C_2  and  O_3
REMARK    2  A    between atoms: C_2  and  C_4
REMARK    3  A    between atoms: C_11  and  O_12
REMARK    4  A    between atoms: C_15  and  C_16
REMARK    5  A    between atoms: C_16  and  C_17
REMARK    6  A    between atoms: C_17  and  C_18
REMARK    7  A    between atoms: C_18  and  C_19
REMARK    8  A    between atoms: C_19  and  O_21
REMARK    9  A    between atoms: N_24  and  C_25
REMARK   10  A    between atoms: C_25  and  C_26
REMARK                            x       y       z     vdW  Elec       q    Type
REMARK                         _______ _______ _______ _____ _____    ______ ____
ROOT
ATOM      1  C   UNL     1       5.933   4.346  19.289  0.00  0.00    +0.000 C 
ATOM      2  C   UNL     1       4.790   4.955  18.896  0.00  0.00    +0.000 C 
ATOM      3  C   UNL     1       3.432   4.382  19.266  0.00  0.00    +0.000 C 
ATOM      4  C   UNL     1       2.832   5.433  20.253  0.00  0.00    +0.000 C 
ATOM      5  C   UNL     1       2.629   6.768  19.559  0.00  0.00    +0.000 A 
ATOM      6  C   UNL     1       1.767   7.750  20.039  0.00  0.00    +0.000 A 
ATOM      7  C   UNL     1       1.532   8.910  19.287  0.00  0.00    +0.000 A 
ATOM      8  C   UNL     1       2.080   9.032  18.014  0.00  0.00    +0.000 A 
ATOM      9  C   UNL     1       2.934   8.067  17.528  0.00  0.00    +0.000 A 
ATOM     10  C   UNL     1       3.319   7.012  18.361  0.00  0.00    +0.000 A 
ATOM     11  C   UNL     1       4.571   6.213  18.017  0.00  0.00    +0.000 C 
ATOM     12  C   UNL     1       4.355   5.473  16.664  0.00  0.00    +0.000 C 
ATOM     13  C   UNL     1       3.216   4.384  16.748  0.00  0.00    +0.000 C 
ATOM     14  N   UNL     1       2.625   4.170  18.064  0.00  0.00    +0.000 NA
ENDROOT
BRANCH   1  16
ATOM     15  O   UNL     1       8.092   5.341  19.913  0.00  0.00    +0.000 OA
ATOM     16  C   UNL     1       7.342   4.778  19.147  0.00  0.00    +0.000 C 
BRANCH  16  17
ATOM     17  O   UNL     1       7.788   4.286  17.956  0.00  0.00    +0.000 OA
ATOM     18  H   UNL     1       7.684   3.309  18.062  0.00  0.00    +0.000 HD
ENDBRANCH  16  17
ENDBRANCH   1  16
BRANCH   8  19
ATOM     19  O   UNL     1       1.914  10.135  17.234  0.00  0.00    +0.000 OA
ATOM     20  H   UNL     1       1.356   9.901  16.478  0.00  0.00    +0.000 HD
ENDBRANCH   8  19
BRANCH  11  21
ATOM     21  C   UNL     1       5.779   7.210  18.195  0.00  0.00    +0.000 C 
BRANCH  21  22
ATOM     22  C   UNL     1       6.812   7.714  17.142  0.00  0.00    +0.000 C 
BRANCH  22  23
ATOM     23  C   UNL     1       8.206   7.980  17.765  0.00  0.00    +0.000 C 
BRANCH  23  24
ATOM     24  C   UNL     1       8.450   9.404  18.233  0.00  0.00    +0.000 C 
ATOM     25  O   UNL     1       7.969  10.390  17.695  0.00  0.00    +0.000 OA
BRANCH  24  26
ATOM     26  O   UNL     1       9.165   9.492  19.375  0.00  0.00    +0.000 OA
ATOM     27  H   UNL     1       9.980   8.955  19.374  0.00  0.00    +0.000 HD
ENDBRANCH  24  26
ENDBRANCH  23  24
ENDBRANCH  22  23
ENDBRANCH  21  22
ENDBRANCH  11  21
BRANCH  14  28
ATOM     28  C   UNL     1       1.253   3.714  18.185  0.00  0.00    +0.000 C 
BRANCH  28  29
ATOM     29  C   UNL     1       1.124   2.359  18.831  0.00  0.00    +0.000 C 
ATOM     30  C   UNL     1       2.229   1.691  19.618  0.00  0.00    +0.000 C 
ATOM     31  C   UNL     1       1.042   2.258  20.339  0.00  0.00    +0.000 C 
ENDBRANCH  28  29
ENDBRANCH  14  28
TORSDOF 10
ENDMDL
