MODEL 1
REMARK VINA RESULT:      -7.3      0.000      0.000
REMARK  Name = 
REMARK  12 active torsions:
REMARK  status: ('A' for Active; 'I' for Inactive)
REMARK    1  A    between atoms: C_1  and  C_2
REMARK    2  A    between atoms: C_2  and  O_3
REMARK    3  A    between atoms: C_2  and  C_4
REMARK    4  A    between atoms: C_4  and  C_5
REMARK    5  A    between atoms: C_4  and  O_6
REMARK    6  A    between atoms: O_6  and  C_7
REMARK    7  A    between atoms: N_10  and  C_11
REMARK    8  A    between atoms: C_14  and  S_15
REMARK    9  A    between atoms: S_15  and  C_18
REMARK   10  A    between atoms: C_18  and  C_19
REMARK   11  A    between atoms: C_19  and  O_20
REMARK   12  A    between atoms: C_25  and  C_26
REMARK                            x       y       z     vdW  Elec       q    Type
REMARK                         _______ _______ _______ _____ _____    ______ ____
ROOT
ATOM      1  C   UNL     1       3.911   4.500  17.651  0.00  0.00    +0.000 A 
ATOM      2  N   UNL     1       3.820   5.839  17.485  0.00  0.00    +0.000 NA
ATOM      3  C   UNL     1       2.817   6.472  18.125  0.00  0.00    +0.000 A 
ATOM      4  N   UNL     1       2.784   7.868  18.090  0.00  0.00    +0.000 N 
ATOM      5  N   UNL     1       1.910   5.821  18.866  0.00  0.00    +0.000 NA
ATOM      6  C   UNL     1       2.059   4.502  19.032  0.00  0.00    +0.000 A 
ATOM      7  C   UNL     1       3.080   3.778  18.471  0.00  0.00    +0.000 A 
ATOM      8  H   UNL     1       3.649   8.244  17.733  0.00  0.00    +0.000 HD
ENDROOT
BRANCH   4   9
ATOM      9  C   UNL     1       1.873   8.755  18.690  0.00  0.00    +0.000 A 
ATOM     10  C   UNL     1       1.235   9.739  17.917  0.00  0.00    +0.000 A 
ATOM     11  C   UNL     1       0.367  10.673  18.503  0.00  0.00    +0.000 A 
ATOM     12  C   UNL     1       0.122  10.625  19.875  0.00  0.00    +0.000 A 
ATOM     13  C   UNL     1       0.767   9.681  20.670  0.00  0.00    +0.000 A 
ATOM     14  C   UNL     1       1.637   8.763  20.074  0.00  0.00    +0.000 A 
BRANCH  12  15
ATOM     15  S   UNL     1      -0.999  11.790  20.621  0.00  0.00    +0.000 S 
ATOM     16  O   UNL     1      -0.349  13.090  20.620  0.00  0.00    +0.000 OA
ATOM     17  O   UNL     1      -2.283  11.591  19.977  0.00  0.00    +0.000 OA
BRANCH  15  18
ATOM     18  C   UNL     1      -1.130  11.244  22.302  0.00  0.00    +0.000 C 
BRANCH  18  19
ATOM     19  C   UNL     1      -1.637  12.364  23.184  0.00  0.00    +0.000 C 
BRANCH  19  20
ATOM     20  O   UNL     1      -0.577  13.281  23.449  0.00  0.00    +0.000 OA
ATOM     21  H   UNL     1      -0.432  13.813  22.647  0.00  0.00    +0.000 HD
ENDBRANCH  19  20
ENDBRANCH  18  19
ENDBRANCH  15  18
ENDBRANCH  12  15
ENDBRANCH   4   9
BRANCH   7  22
ATOM     22  C   UNL     1       3.208   2.343  18.821  0.00  0.00    +0.000 C 
ATOM     23  F   UNL     1       2.199   1.815  19.560  0.00  0.00    +0.000 F 
ATOM     24  F   UNL     1       3.290   1.564  17.703  0.00  0.00    +0.000 F 
ATOM     25  F   UNL     1       4.353   2.087  19.517  0.00  0.00    +0.000 F 
ENDBRANCH   7  22
BRANCH   1  26
ATOM     26  O   UNL     1       4.948   3.811  17.048  0.00  0.00    +0.000 OA
BRANCH  26  27
ATOM     27  C   UNL     1       5.865   4.561  16.228  0.00  0.00    +0.000 C 
ATOM     28  C   UNL     1       6.203   3.737  14.982  0.00  0.00    +0.000 C 
BRANCH  27  30
ATOM     29  C   UNL     1       7.372   6.281  17.387  0.00  0.00    +0.000 C 
ATOM     30  C   UNL     1       7.157   4.810  17.048  0.00  0.00    +0.000 C 
BRANCH  30  31
ATOM     31  O   UNL     1       7.139   4.074  18.275  0.00  0.00    +0.000 OA
ATOM     32  H   UNL     1       7.649   4.590  18.926  0.00  0.00    +0.000 HD
ENDBRANCH  30  31
ENDBRANCH  27  30
ENDBRANCH  26  27
ENDBRANCH   1  26
TORSDOF 10
ENDMDL
MODEL 2
REMARK VINA RESULT:      -7.3      0.864      1.169
REMARK  Name = 
REMARK  12 active torsions:
REMARK  status: ('A' for Active; 'I' for Inactive)
REMARK    1  A    between atoms: C_1  and  C_2
REMARK    2  A    between atoms: C_2  and  O_3
REMARK    3  A    between atoms: C_2  and  C_4
REMARK    4  A    between atoms: C_4  and  C_5
REMARK    5  A    between atoms: C_4  and  O_6
REMARK    6  A    between atoms: O_6  and  C_7
REMARK    7  A    between atoms: N_10  and  C_11
REMARK    8  A    between atoms: C_14  and  S_15
REMARK    9  A    between atoms: S_15  and  C_18
REMARK   10  A    between atoms: C_18  and  C_19
REMARK   11  A    between atoms: C_19  and  O_20
REMARK   12  A    between atoms: C_25  and  C_26
REMARK                            x       y       z     vdW  Elec       q    Type
REMARK                         _______ _______ _______ _____ _____    ______ ____
ROOT
ATOM      1  C   UNL     1       3.979   4.498  17.659  0.00  0.00    +0.000 A 
ATOM      2  N   UNL     1       3.813   5.833  17.514  0.00  0.00    +0.000 NA
ATOM      3  C   UNL     1       2.842   6.416  18.244  0.00  0.00    +0.000 A 
ATOM      4  N   UNL     1       2.743   7.809  18.225  0.00  0.00    +0.000 N 
ATOM      5  N   UNL     1       2.032   5.719  19.053  0.00  0.00    +0.000 NA
ATOM      6  C   UNL     1       2.254   4.408  19.194  0.00  0.00    +0.000 A 
ATOM      7  C   UNL     1       3.254   3.734  18.540  0.00  0.00    +0.000 A 
ATOM      8  H   UNL     1       3.556   8.225  17.799  0.00  0.00    +0.000 HD
ENDROOT
BRANCH   4   9
ATOM      9  C   UNL     1       1.847   8.650  18.908  0.00  0.00    +0.000 A 
ATOM     10  C   UNL     1       1.199   9.693  18.227  0.00  0.00    +0.000 A 
ATOM     11  C   UNL     1       0.347  10.582  18.900  0.00  0.00    +0.000 A 
ATOM     12  C   UNL     1       0.128  10.428  20.269  0.00  0.00    +0.000 A 
ATOM     13  C   UNL     1       0.783   9.423  20.975  0.00  0.00    +0.000 A 
ATOM     14  C   UNL     1       1.637   8.551  20.293  0.00  0.00    +0.000 A 
BRANCH  12  15
ATOM     15  S   UNL     1      -0.973  11.535  21.124  0.00  0.00    +0.000 S 
ATOM     16  O   UNL     1      -2.029  11.910  20.198  0.00  0.00    +0.000 OA
ATOM     17  O   UNL     1      -1.276  10.909  22.396  0.00  0.00    +0.000 OA
BRANCH  15  18
ATOM     18  C   UNL     1       0.018  12.971  21.434  0.00  0.00    +0.000 C 
BRANCH  18  19
ATOM     19  C   UNL     1      -0.550  13.769  22.587  0.00  0.00    +0.000 C 
BRANCH  19  20
ATOM     20  O   UNL     1       0.263  14.917  22.821  0.00  0.00    +0.000 OA
ATOM     21  H   UNL     1       0.764  14.769  23.643  0.00  0.00    +0.000 HD
ENDBRANCH  19  20
ENDBRANCH  18  19
ENDBRANCH  15  18
ENDBRANCH  12  15
ENDBRANCH   4   9
BRANCH   7  22
ATOM     22  C   UNL     1       3.477   2.305  18.865  0.00  0.00    +0.000 C 
ATOM     23  F   UNL     1       3.527   1.452  17.810  0.00  0.00    +0.000 F 
ATOM     24  F   UNL     1       4.652   2.125  19.537  0.00  0.00    +0.000 F 
ATOM     25  F   UNL     1       2.514   1.814  19.697  0.00  0.00    +0.000 F 
ENDBRANCH   7  22
BRANCH   1  26
ATOM     26  O   UNL     1       4.990   3.861  16.963  0.00  0.00    +0.000 OA
BRANCH  26  27
ATOM     27  C   UNL     1       5.856   4.671  16.144  0.00  0.00    +0.000 C 
ATOM     28  C   UNL     1       6.133   3.930  14.833  0.00  0.00    +0.000 C 
BRANCH  27  30
ATOM     29  C   UNL     1       7.426   6.339  17.293  0.00  0.00    +0.000 C 
ATOM     30  C   UNL     1       7.187   4.883  16.909  0.00  0.00    +0.000 C 
BRANCH  30  31
ATOM     31  O   UNL     1       7.225   4.101  18.106  0.00  0.00    +0.000 OA
ATOM     32  H   UNL     1       6.391   3.600  18.148  0.00  0.00    +0.000 HD
ENDBRANCH  30  31
ENDBRANCH  27  30
ENDBRANCH  26  27
ENDBRANCH   1  26
TORSDOF 10
ENDMDL
MODEL 3
REMARK VINA RESULT:      -7.2      1.516      1.922
REMARK  Name = 
REMARK  12 active torsions:
REMARK  status: ('A' for Active; 'I' for Inactive)
REMARK    1  A    between atoms: C_1  and  C_2
REMARK    2  A    between atoms: C_2  and  O_3
REMARK    3  A    between atoms: C_2  and  C_4
REMARK    4  A    between atoms: C_4  and  C_5
REMARK    5  A    between atoms: C_4  and  O_6
REMARK    6  A    between atoms: O_6  and  C_7
REMARK    7  A    between atoms: N_10  and  C_11
REMARK    8  A    between atoms: C_14  and  S_15
REMARK    9  A    between atoms: S_15  and  C_18
REMARK   10  A    between atoms: C_18  and  C_19
REMARK   11  A    between atoms: C_19  and  O_20
REMARK   12  A    between atoms: C_25  and  C_26
REMARK                            x       y       z     vdW  Elec       q    Type
REMARK                         _______ _______ _______ _____ _____    ______ ____
ROOT
ATOM      1  C   UNL     1       3.465   4.753  19.175  0.00  0.00    +0.000 A 
ATOM      2  N   UNL     1       3.261   6.068  18.934  0.00  0.00    +0.000 NA
ATOM      3  C   UNL     1       2.288   6.679  19.637  0.00  0.00    +0.000 A 
ATOM      4  N   UNL     1       2.152   8.064  19.516  0.00  0.00    +0.000 N 
ATOM      5  N   UNL     1       1.512   6.025  20.512  0.00  0.00    +0.000 NA
ATOM      6  C   UNL     1       1.771   4.734  20.746  0.00  0.00    +0.000 A 
ATOM      7  C   UNL     1       2.778   4.039  20.124  0.00  0.00    +0.000 A 
ATOM      8  H   UNL     1       2.945   8.468  19.044  0.00  0.00    +0.000 HD
ENDROOT
BRANCH   4   9
ATOM      9  C   UNL     1       1.247   8.931  20.153  0.00  0.00    +0.000 A 
ATOM     10  C   UNL     1       0.530   9.878  19.403  0.00  0.00    +0.000 A 
ATOM     11  C   UNL     1      -0.334  10.793  20.023  0.00  0.00    +0.000 A 
ATOM     12  C   UNL     1      -0.497  10.763  21.408  0.00  0.00    +0.000 A 
ATOM     13  C   UNL     1       0.227   9.857  22.179  0.00  0.00    +0.000 A 
ATOM     14  C   UNL     1       1.092   8.958  21.548  0.00  0.00    +0.000 A 
BRANCH  12  15
ATOM     15  S   UNL     1      -1.612  11.904  22.198  0.00  0.00    +0.000 S 
ATOM     16  O   UNL     1      -2.610  12.297  21.217  0.00  0.00    +0.000 OA
ATOM     17  O   UNL     1      -1.995  11.294  23.457  0.00  0.00    +0.000 OA
BRANCH  15  18
ATOM     18  C   UNL     1      -0.602  13.317  22.549  0.00  0.00    +0.000 C 
BRANCH  18  19
ATOM     19  C   UNL     1      -1.229  14.158  23.640  0.00  0.00    +0.000 C 
BRANCH  19  20
ATOM     20  O   UNL     1      -2.650  14.127  23.510  0.00  0.00    +0.000 OA
ATOM     21  H   UNL     1      -3.001  14.973  23.838  0.00  0.00    +0.000 HD
ENDBRANCH  19  20
ENDBRANCH  18  19
ENDBRANCH  15  18
ENDBRANCH  12  15
ENDBRANCH   4   9
BRANCH   7  22
ATOM     22  C   UNL     1       3.044   2.644  20.551  0.00  0.00    +0.000 C 
ATOM     23  F   UNL     1       2.756   1.675  19.645  0.00  0.00    +0.000 F 
ATOM     24  F   UNL     1       4.359   2.465  20.871  0.00  0.00    +0.000 F 
ATOM     25  F   UNL     1       2.356   2.314  21.681  0.00  0.00    +0.000 F 
ENDBRANCH   7  22
BRANCH   1  26
ATOM     26  O   UNL     1       4.480   4.090  18.507  0.00  0.00    +0.000 OA
BRANCH  26  27
ATOM     27  C   UNL     1       5.335   4.866  17.646  0.00  0.00    +0.000 C 
ATOM     28  C   UNL     1       5.576   4.083  16.352  0.00  0.00    +0.000 C 
BRANCH  27  30
ATOM     29  C   UNL     1       7.422   6.333  17.895  0.00  0.00    +0.000 C 
ATOM     30  C   UNL     1       6.685   5.087  18.374  0.00  0.00    +0.000 C 
BRANCH  30  31
ATOM     31  O   UNL     1       6.497   5.205  19.787  0.00  0.00    +0.000 OA
ATOM     32  H   UNL     1       5.536   5.235  19.947  0.00  0.00    +0.000 HD
ENDBRANCH  30  31
ENDBRANCH  27  30
ENDBRANCH  26  27
ENDBRANCH   1  26
TORSDOF 10
ENDMDL
MODEL 4
REMARK VINA RESULT:      -7.2      1.041      1.724
REMARK  Name = 
REMARK  12 active torsions:
REMARK  status: ('A' for Active; 'I' for Inactive)
REMARK    1  A    between atoms: C_1  and  C_2
REMARK    2  A    between atoms: C_2  and  O_3
REMARK    3  A    between atoms: C_2  and  C_4
REMARK    4  A    between atoms: C_4  and  C_5
REMARK    5  A    between atoms: C_4  and  O_6
REMARK    6  A    between atoms: O_6  and  C_7
REMARK    7  A    between atoms: N_10  and  C_11
REMARK    8  A    between atoms: C_14  and  S_15
REMARK    9  A    between atoms: S_15  and  C_18
REMARK   10  A    between atoms: C_18  and  C_19
REMARK   11  A    between atoms: C_19  and  O_20
REMARK   12  A    between atoms: C_25  and  C_26
REMARK                            x       y       z     vdW  Elec       q    Type
REMARK                         _______ _______ _______ _____ _____    ______ ____
ROOT
ATOM      1  C   UNL     1       3.870   4.557  17.646  0.00  0.00    +0.000 A 
ATOM      2  N   UNL     1       3.771   5.894  17.471  0.00  0.00    +0.000 NA
ATOM      3  C   UNL     1       2.790   6.532  18.138  0.00  0.00    +0.000 A 
ATOM      4  N   UNL     1       2.753   7.927  18.092  0.00  0.00    +0.000 N 
ATOM      5  N   UNL     1       1.910   5.886  18.916  0.00  0.00    +0.000 NA
ATOM      6  C   UNL     1       2.066   4.569  19.090  0.00  0.00    +0.000 A 
ATOM      7  C   UNL     1       3.069   3.841  18.500  0.00  0.00    +0.000 A 
ATOM      8  H   UNL     1       3.604   8.301  17.702  0.00  0.00    +0.000 HD
ENDROOT
BRANCH   4   9
ATOM      9  C   UNL     1       1.861   8.818  18.714  0.00  0.00    +0.000 A 
ATOM     10  C   UNL     1       1.693   8.790  20.108  0.00  0.00    +0.000 A 
ATOM     11  C   UNL     1       0.766   9.629  20.745  0.00  0.00    +0.000 A 
ATOM     12  C   UNL     1       0.000  10.515  19.989  0.00  0.00    +0.000 A 
ATOM     13  C   UNL     1       0.123  10.541  18.602  0.00  0.00    +0.000 A 
ATOM     14  C   UNL     1       1.043   9.692  17.980  0.00  0.00    +0.000 A 
BRANCH  12  15
ATOM     15  S   UNL     1      -1.159  11.601  20.793  0.00  0.00    +0.000 S 
ATOM     16  O   UNL     1      -2.315  11.737  19.922  0.00  0.00    +0.000 OA
ATOM     17  O   UNL     1      -1.295  11.117  22.154  0.00  0.00    +0.000 OA
BRANCH  15  18
ATOM     18  C   UNL     1      -0.323  13.163  20.841  0.00  0.00    +0.000 C 
BRANCH  18  19
ATOM     19  C   UNL     1      -0.863  14.086  19.770  0.00  0.00    +0.000 C 
BRANCH  19  20
ATOM     20  O   UNL     1      -2.175  14.517  20.130  0.00  0.00    +0.000 OA
ATOM     21  H   UNL     1      -2.670  13.741  20.447  0.00  0.00    +0.000 HD
ENDBRANCH  19  20
ENDBRANCH  18  19
ENDBRANCH  15  18
ENDBRANCH  12  15
ENDBRANCH   4   9
BRANCH   7  22
ATOM     22  C   UNL     1       3.212   2.410  18.860  0.00  0.00    +0.000 C 
ATOM     23  F   UNL     1       3.242   1.532  17.825  0.00  0.00    +0.000 F 
ATOM     24  F   UNL     1       4.361   2.186  19.562  0.00  0.00    +0.000 F 
ATOM     25  F   UNL     1       2.208   1.986  19.679  0.00  0.00    +0.000 F 
ENDBRANCH   7  22
BRANCH   1  26
ATOM     26  O   UNL     1       4.887   3.864  17.014  0.00  0.00    +0.000 OA
BRANCH  26  27
ATOM     27  C   UNL     1       5.820   4.619  16.217  0.00  0.00    +0.000 C 
ATOM     28  C   UNL     1       6.135   3.829  14.943  0.00  0.00    +0.000 C 
BRANCH  27  30
ATOM     29  C   UNL     1       7.386   6.267  17.401  0.00  0.00    +0.000 C 
ATOM     30  C   UNL     1       7.119   4.809  17.041  0.00  0.00    +0.000 C 
BRANCH  30  31
ATOM     31  O   UNL     1       7.074   4.057  18.257  0.00  0.00    +0.000 OA
ATOM     32  H   UNL     1       6.444   4.507  18.849  0.00  0.00    +0.000 HD
ENDBRANCH  30  31
ENDBRANCH  27  30
ENDBRANCH  26  27
ENDBRANCH   1  26
TORSDOF 10
ENDMDL
MODEL 5
REMARK VINA RESULT:      -7.1      1.390      2.060
REMARK  Name = 
REMARK  12 active torsions:
REMARK  status: ('A' for Active; 'I' for Inactive)
REMARK    1  A    between atoms: C_1  and  C_2
REMARK    2  A    between atoms: C_2  and  O_3
REMARK    3  A    between atoms: C_2  and  C_4
REMARK    4  A    between atoms: C_4  and  C_5
REMARK    5  A    between atoms: C_4  and  O_6
REMARK    6  A    between atoms: O_6  and  C_7
REMARK    7  A    between atoms: N_10  and  C_11
REMARK    8  A    between atoms: C_14  and  S_15
REMARK    9  A    between atoms: S_15  and  C_18
REMARK   10  A    between atoms: C_18  and  C_19
REMARK   11  A    between atoms: C_19  and  O_20
REMARK   12  A    between atoms: C_25  and  C_26
REMARK                            x       y       z     vdW  Elec       q    Type
REMARK                         _______ _______ _______ _____ _____    ______ ____
ROOT
ATOM      1  C   UNL     1       3.539   4.799  18.527  0.00  0.00    +0.000 A 
ATOM      2  N   UNL     1       3.230   6.094  18.289  0.00  0.00    +0.000 NA
ATOM      3  C   UNL     1       2.439   6.713  19.187  0.00  0.00    +0.000 A 
ATOM      4  N   UNL     1       2.222   8.086  19.045  0.00  0.00    +0.000 N 
ATOM      5  N   UNL     1       1.932   6.084  20.256  0.00  0.00    +0.000 NA
ATOM      6  C   UNL     1       2.293   4.814  20.472  0.00  0.00    +0.000 A 
ATOM      7  C   UNL     1       3.139   4.116  19.648  0.00  0.00    +0.000 A 
ATOM      8  H   UNL     1       2.857   8.487  18.373  0.00  0.00    +0.000 HD
ENDROOT
BRANCH   4   9
ATOM      9  C   UNL     1       1.471   8.959  19.851  0.00  0.00    +0.000 A 
ATOM     10  C   UNL     1       1.167   8.609  21.177  0.00  0.00    +0.000 A 
ATOM     11  C   UNL     1       0.369   9.437  21.982  0.00  0.00    +0.000 A 
ATOM     12  C   UNL     1      -0.128  10.633  21.466  0.00  0.00    +0.000 A 
ATOM     13  C   UNL     1       0.130  10.988  20.145  0.00  0.00    +0.000 A 
ATOM     14  C   UNL     1       0.918  10.149  19.351  0.00  0.00    +0.000 A 
BRANCH  12  15
ATOM     15  S   UNL     1      -1.119  11.701  22.490  0.00  0.00    +0.000 S 
ATOM     16  O   UNL     1      -1.812  10.865  23.457  0.00  0.00    +0.000 OA
ATOM     17  O   UNL     1      -0.249  12.780  22.917  0.00  0.00    +0.000 OA
BRANCH  15  18
ATOM     18  C   UNL     1      -2.325  12.366  21.376  0.00  0.00    +0.000 C 
BRANCH  18  19
ATOM     19  C   UNL     1      -3.586  12.741  22.123  0.00  0.00    +0.000 C 
BRANCH  19  20
ATOM     20  O   UNL     1      -3.246  13.493  23.287  0.00  0.00    +0.000 OA
ATOM     21  H   UNL     1      -3.714  14.346  23.242  0.00  0.00    +0.000 HD
ENDBRANCH  19  20
ENDBRANCH  18  19
ENDBRANCH  15  18
ENDBRANCH  12  15
ENDBRANCH   4   9
BRANCH   7  22
ATOM     22  C   UNL     1       3.558   2.753  20.053  0.00  0.00    +0.000 C 
ATOM     23  F   UNL     1       4.895   2.551  20.183  0.00  0.00    +0.000 F 
ATOM     24  F   UNL     1       3.017   2.404  21.257  0.00  0.00    +0.000 F 
ATOM     25  F   UNL     1       3.121   1.802  19.179  0.00  0.00    +0.000 F 
ENDBRANCH   7  22
BRANCH   1  26
ATOM     26  O   UNL     1       4.382   4.132  17.655  0.00  0.00    +0.000 OA
BRANCH  26  27
ATOM     27  C   UNL     1       5.166   4.923  16.742  0.00  0.00    +0.000 C 
ATOM     28  C   UNL     1       5.169   4.239  15.371  0.00  0.00    +0.000 C 
BRANCH  27  30
ATOM     29  C   UNL     1       7.045   6.414  17.644  0.00  0.00    +0.000 C 
ATOM     30  C   UNL     1       6.616   4.996  17.285  0.00  0.00    +0.000 C 
BRANCH  30  31
ATOM     31  O   UNL     1       6.772   4.182  18.451  0.00  0.00    +0.000 OA
ATOM     32  H   UNL     1       7.501   4.565  18.973  0.00  0.00    +0.000 HD
ENDBRANCH  30  31
ENDBRANCH  27  30
ENDBRANCH  26  27
ENDBRANCH   1  26
TORSDOF 10
ENDMDL
MODEL 6
REMARK VINA RESULT:      -7.1      1.370      1.912
REMARK  Name = 
REMARK  12 active torsions:
REMARK  status: ('A' for Active; 'I' for Inactive)
REMARK    1  A    between atoms: C_1  and  C_2
REMARK    2  A    between atoms: C_2  and  O_3
REMARK    3  A    between atoms: C_2  and  C_4
REMARK    4  A    between atoms: C_4  and  C_5
REMARK    5  A    between atoms: C_4  and  O_6
REMARK    6  A    between atoms: O_6  and  C_7
REMARK    7  A    between atoms: N_10  and  C_11
REMARK    8  A    between atoms: C_14  and  S_15
REMARK    9  A    between atoms: S_15  and  C_18
REMARK   10  A    between atoms: C_18  and  C_19
REMARK   11  A    between atoms: C_19  and  O_20
REMARK   12  A    between atoms: C_25  and  C_26
REMARK                            x       y       z     vdW  Elec       q    Type
REMARK                         _______ _______ _______ _____ _____    ______ ____
ROOT
ATOM      1  C   UNL     1       3.591   4.785  18.479  0.00  0.00    +0.000 A 
ATOM      2  N   UNL     1       3.302   6.094  18.300  0.00  0.00    +0.000 NA
ATOM      3  C   UNL     1       2.443   6.660  19.170  0.00  0.00    +0.000 A 
ATOM      4  N   UNL     1       2.239   8.039  19.099  0.00  0.00    +0.000 N 
ATOM      5  N   UNL     1       1.851   5.966  20.152  0.00  0.00    +0.000 NA
ATOM      6  C   UNL     1       2.192   4.684  20.315  0.00  0.00    +0.000 A 
ATOM      7  C   UNL     1       3.101   4.034  19.519  0.00  0.00    +0.000 A 
ATOM      8  H   UNL     1       2.925   8.479  18.506  0.00  0.00    +0.000 HD
ENDROOT
BRANCH   4   9
ATOM      9  C   UNL     1       1.426   8.864  19.896  0.00  0.00    +0.000 A 
ATOM     10  C   UNL     1       0.573   9.806  19.296  0.00  0.00    +0.000 A 
ATOM     11  C   UNL     1      -0.204  10.680  20.071  0.00  0.00    +0.000 A 
ATOM     12  C   UNL     1      -0.140  10.613  21.463  0.00  0.00    +0.000 A 
ATOM     13  C   UNL     1       0.721   9.713  22.083  0.00  0.00    +0.000 A 
ATOM     14  C   UNL     1       1.497   8.854  21.298  0.00  0.00    +0.000 A 
BRANCH  12  15
ATOM     15  S   UNL     1      -1.143  11.702  22.453  0.00  0.00    +0.000 S 
ATOM     16  O   UNL     1      -1.846  10.887  23.430  0.00  0.00    +0.000 OA
ATOM     17  O   UNL     1      -0.279  12.791  22.865  0.00  0.00    +0.000 OA
BRANCH  15  18
ATOM     18  C   UNL     1      -2.338  12.341  21.311  0.00  0.00    +0.000 C 
BRANCH  18  19
ATOM     19  C   UNL     1      -3.603  12.742  22.038  0.00  0.00    +0.000 C 
BRANCH  19  20
ATOM     20  O   UNL     1      -4.727  12.552  21.180  0.00  0.00    +0.000 OA
ATOM     21  H   UNL     1      -5.242  11.800  21.520  0.00  0.00    +0.000 HD
ENDBRANCH  19  20
ENDBRANCH  18  19
ENDBRANCH  15  18
ENDBRANCH  12  15
ENDBRANCH   4   9
BRANCH   7  22
ATOM     22  C   UNL     1       3.486   2.646  19.869  0.00  0.00    +0.000 C 
ATOM     23  F   UNL     1       3.240   1.701  18.926  0.00  0.00    +0.000 F 
ATOM     24  F   UNL     1       4.821   2.553  20.139  0.00  0.00    +0.000 F 
ATOM     25  F   UNL     1       2.864   2.213  21.002  0.00  0.00    +0.000 F 
ENDBRANCH   7  22
BRANCH   1  26
ATOM     26  O   UNL     1       4.500   4.169  17.637  0.00  0.00    +0.000 OA
BRANCH  26  27
ATOM     27  C   UNL     1       5.262   5.006  16.745  0.00  0.00    +0.000 C 
ATOM     28  C   UNL     1       5.279   4.361  15.355  0.00  0.00    +0.000 C 
BRANCH  27  30
ATOM     29  C   UNL     1       7.072   6.498  17.777  0.00  0.00    +0.000 C 
ATOM     30  C   UNL     1       6.710   5.100  17.288  0.00  0.00    +0.000 C 
BRANCH  30  31
ATOM     31  O   UNL     1       6.917   4.188  18.370  0.00  0.00    +0.000 OA
ATOM     32  H   UNL     1       7.830   4.320  18.686  0.00  0.00    +0.000 HD
ENDBRANCH  30  31
ENDBRANCH  27  30
ENDBRANCH  26  27
ENDBRANCH   1  26
TORSDOF 10
ENDMDL
MODEL 7
REMARK VINA RESULT:      -7.1      2.163      3.754
REMARK  Name = 
REMARK  12 active torsions:
REMARK  status: ('A' for Active; 'I' for Inactive)
REMARK    1  A    between atoms: C_1  and  C_2
REMARK    2  A    between atoms: C_2  and  O_3
REMARK    3  A    between atoms: C_2  and  C_4
REMARK    4  A    between atoms: C_4  and  C_5
REMARK    5  A    between atoms: C_4  and  O_6
REMARK    6  A    between atoms: O_6  and  C_7
REMARK    7  A    between atoms: N_10  and  C_11
REMARK    8  A    between atoms: C_14  and  S_15
REMARK    9  A    between atoms: S_15  and  C_18
REMARK   10  A    between atoms: C_18  and  C_19
REMARK   11  A    between atoms: C_19  and  O_20
REMARK   12  A    between atoms: C_25  and  C_26
REMARK                            x       y       z     vdW  Elec       q    Type
REMARK                         _______ _______ _______ _____ _____    ______ ____
ROOT
ATOM      1  C   UNL     1       4.013   4.703  18.637  0.00  0.00    +0.000 A 
ATOM      2  N   UNL     1       3.251   5.222  19.627  0.00  0.00    +0.000 NA
ATOM      3  C   UNL     1       2.900   6.518  19.519  0.00  0.00    +0.000 A 
ATOM      4  N   UNL     1       1.997   7.040  20.448  0.00  0.00    +0.000 N 
ATOM      5  N   UNL     1       3.309   7.293  18.506  0.00  0.00    +0.000 NA
ATOM      6  C   UNL     1       4.031   6.731  17.530  0.00  0.00    +0.000 A 
ATOM      7  C   UNL     1       4.389   5.407  17.520  0.00  0.00    +0.000 A 
ATOM      8  H   UNL     1       1.566   6.307  20.989  0.00  0.00    +0.000 HD
ENDROOT
BRANCH   4   9
ATOM      9  C   UNL     1       1.457   8.335  20.538  0.00  0.00    +0.000 A 
ATOM     10  C   UNL     1       1.310   9.120  19.382  0.00  0.00    +0.000 A 
ATOM     11  C   UNL     1       0.830  10.436  19.454  0.00  0.00    +0.000 A 
ATOM     12  C   UNL     1       0.481  10.979  20.690  0.00  0.00    +0.000 A 
ATOM     13  C   UNL     1       0.649  10.236  21.855  0.00  0.00    +0.000 A 
ATOM     14  C   UNL     1       1.138   8.929  21.769  0.00  0.00    +0.000 A 
BRANCH  12  15
ATOM     15  S   UNL     1      -0.154  12.640  20.785  0.00  0.00    +0.000 S 
ATOM     16  O   UNL     1      -1.586  12.579  20.540  0.00  0.00    +0.000 OA
ATOM     17  O   UNL     1       0.375  13.210  22.009  0.00  0.00    +0.000 OA
BRANCH  15  18
ATOM     18  C   UNL     1       0.602  13.468  19.414  0.00  0.00    +0.000 C 
BRANCH  18  19
ATOM     19  C   UNL     1      -0.453  14.081  18.518  0.00  0.00    +0.000 C 
BRANCH  19  20
ATOM     20  O   UNL     1      -0.933  13.098  17.603  0.00  0.00    +0.000 OA
ATOM     21  H   UNL     1      -0.286  12.371  17.577  0.00  0.00    +0.000 HD
ENDBRANCH  19  20
ENDBRANCH  18  19
ENDBRANCH  15  18
ENDBRANCH  12  15
ENDBRANCH   4   9
BRANCH   7  22
ATOM     22  C   UNL     1       5.089   4.870  16.328  0.00  0.00    +0.000 C 
ATOM     23  F   UNL     1       6.305   4.309  16.550  0.00  0.00    +0.000 F 
ATOM     24  F   UNL     1       4.348   3.905  15.709  0.00  0.00    +0.000 F 
ATOM     25  F   UNL     1       5.289   5.828  15.378  0.00  0.00    +0.000 F 
ENDBRANCH   7  22
BRANCH   1  26
ATOM     26  O   UNL     1       4.365   3.366  18.682  0.00  0.00    +0.000 OA
BRANCH  26  27
ATOM     27  C   UNL     1       3.711   2.532  19.658  0.00  0.00    +0.000 C 
ATOM     28  C   UNL     1       4.727   1.527  20.211  0.00  0.00    +0.000 C 
BRANCH  27  30
ATOM     29  C   UNL     1       1.184   2.331  19.279  0.00  0.00    +0.000 C 
ATOM     30  C   UNL     1       2.563   1.768  18.951  0.00  0.00    +0.000 C 
BRANCH  30  31
ATOM     31  O   UNL     1       2.721   1.796  17.529  0.00  0.00    +0.000 OA
ATOM     32  H   UNL     1       3.521   2.321  17.340  0.00  0.00    +0.000 HD
ENDBRANCH  30  31
ENDBRANCH  27  30
ENDBRANCH  26  27
ENDBRANCH   1  26
TORSDOF 10
ENDMDL
MODEL 8
REMARK VINA RESULT:      -7.0      1.417      1.815
REMARK  Name = 
REMARK  12 active torsions:
REMARK  status: ('A' for Active; 'I' for Inactive)
REMARK    1  A    between atoms: C_1  and  C_2
REMARK    2  A    between atoms: C_2  and  O_3
REMARK    3  A    between atoms: C_2  and  C_4
REMARK    4  A    between atoms: C_4  and  C_5
REMARK    5  A    between atoms: C_4  and  O_6
REMARK    6  A    between atoms: O_6  and  C_7
REMARK    7  A    between atoms: N_10  and  C_11
REMARK    8  A    between atoms: C_14  and  S_15
REMARK    9  A    between atoms: S_15  and  C_18
REMARK   10  A    between atoms: C_18  and  C_19
REMARK   11  A    between atoms: C_19  and  O_20
REMARK   12  A    between atoms: C_25  and  C_26
REMARK                            x       y       z     vdW  Elec       q    Type
REMARK                         _______ _______ _______ _____ _____    ______ ____
ROOT
ATOM      1  C   UNL     1       3.720   5.021  17.973  0.00  0.00    +0.000 A 
ATOM      2  N   UNL     1       3.345   6.311  17.819  0.00  0.00    +0.000 NA
ATOM      3  C   UNL     1       2.525   6.830  18.754  0.00  0.00    +0.000 A 
ATOM      4  N   UNL     1       2.239   8.196  18.702  0.00  0.00    +0.000 N 
ATOM      5  N   UNL     1       2.052   6.108  19.779  0.00  0.00    +0.000 NA
ATOM      6  C   UNL     1       2.477   4.846  19.913  0.00  0.00    +0.000 A 
ATOM      7  C   UNL     1       3.356   4.247  19.047  0.00  0.00    +0.000 A 
ATOM      8  H   UNL     1       2.851   8.672  18.057  0.00  0.00    +0.000 HD
ENDROOT
BRANCH   4   9
ATOM      9  C   UNL     1       1.446   8.976  19.561  0.00  0.00    +0.000 A 
ATOM     10  C   UNL     1       0.741  10.083  19.060  0.00  0.00    +0.000 A 
ATOM     11  C   UNL     1      -0.010  10.911  19.908  0.00  0.00    +0.000 A 
ATOM     12  C   UNL     1      -0.069  10.632  21.274  0.00  0.00    +0.000 A 
ATOM     13  C   UNL     1       0.647   9.561  21.802  0.00  0.00    +0.000 A 
ATOM     14  C   UNL     1       1.399   8.750  20.946  0.00  0.00    +0.000 A 
BRANCH  12  15
ATOM     15  S   UNL     1      -1.041  11.662  22.352  0.00  0.00    +0.000 S 
ATOM     16  O   UNL     1      -1.683  10.798  23.329  0.00  0.00    +0.000 OA
ATOM     17  O   UNL     1      -0.177  12.751  22.764  0.00  0.00    +0.000 OA
BRANCH  15  18
ATOM     18  C   UNL     1      -2.300  12.323  21.294  0.00  0.00    +0.000 C 
BRANCH  18  19
ATOM     19  C   UNL     1      -2.122  13.816  21.127  0.00  0.00    +0.000 C 
BRANCH  19  20
ATOM     20  O   UNL     1      -2.585  14.486  22.299  0.00  0.00    +0.000 OA
ATOM     21  H   UNL     1      -3.532  14.678  22.182  0.00  0.00    +0.000 HD
ENDBRANCH  19  20
ENDBRANCH  18  19
ENDBRANCH  15  18
ENDBRANCH  12  15
ENDBRANCH   4   9
BRANCH   7  22
ATOM     22  C   UNL     1       3.844   2.883  19.363  0.00  0.00    +0.000 C 
ATOM     23  F   UNL     1       3.747   1.966  18.367  0.00  0.00    +0.000 F 
ATOM     24  F   UNL     1       5.162   2.898  19.719  0.00  0.00    +0.000 F 
ATOM     25  F   UNL     1       3.194   2.343  20.433  0.00  0.00    +0.000 F 
ENDBRANCH   7  22
BRANCH   1  26
ATOM     26  O   UNL     1       4.593   4.455  17.061  0.00  0.00    +0.000 OA
BRANCH  26  27
ATOM     27  C   UNL     1       5.327   5.342  16.195  0.00  0.00    +0.000 C 
ATOM     28  C   UNL     1       5.625   4.616  14.880  0.00  0.00    +0.000 C 
BRANCH  27  30
ATOM     29  C   UNL     1       7.348   4.507  17.533  0.00  0.00    +0.000 C 
ATOM     30  C   UNL     1       6.660   5.709  16.896  0.00  0.00    +0.000 C 
BRANCH  30  31
ATOM     31  O   UNL     1       7.580   6.305  15.976  0.00  0.00    +0.000 OA
ATOM     32  H   UNL     1       7.055   6.828  15.343  0.00  0.00    +0.000 HD
ENDBRANCH  30  31
ENDBRANCH  27  30
ENDBRANCH  26  27
ENDBRANCH   1  26
TORSDOF 10
ENDMDL
MODEL 9
REMARK VINA RESULT:      -7.0      1.742      2.354
REMARK  Name = 
REMARK  12 active torsions:
REMARK  status: ('A' for Active; 'I' for Inactive)
REMARK    1  A    between atoms: C_1  and  C_2
REMARK    2  A    between atoms: C_2  and  O_3
REMARK    3  A    between atoms: C_2  and  C_4
REMARK    4  A    between atoms: C_4  and  C_5
REMARK    5  A    between atoms: C_4  and  O_6
REMARK    6  A    between atoms: O_6  and  C_7
REMARK    7  A    between atoms: N_10  and  C_11
REMARK    8  A    between atoms: C_14  and  S_15
REMARK    9  A    between atoms: S_15  and  C_18
REMARK   10  A    between atoms: C_18  and  C_19
REMARK   11  A    between atoms: C_19  and  O_20
REMARK   12  A    between atoms: C_25  and  C_26
REMARK                            x       y       z     vdW  Elec       q    Type
REMARK                         _______ _______ _______ _____ _____    ______ ____
ROOT
ATOM      1  C   UNL     1       3.287   4.937  19.317  0.00  0.00    +0.000 A 
ATOM      2  N   UNL     1       3.080   6.258  19.112  0.00  0.00    +0.000 NA
ATOM      3  C   UNL     1       2.149   6.861  19.876  0.00  0.00    +0.000 A 
ATOM      4  N   UNL     1       2.016   8.249  19.788  0.00  0.00    +0.000 N 
ATOM      5  N   UNL     1       1.416   6.195  20.779  0.00  0.00    +0.000 NA
ATOM      6  C   UNL     1       1.678   4.899  20.975  0.00  0.00    +0.000 A 
ATOM      7  C   UNL     1       2.646   4.210  20.288  0.00  0.00    +0.000 A 
ATOM      8  H   UNL     1       2.786   8.657  19.283  0.00  0.00    +0.000 HD
ENDROOT
BRANCH   4   9
ATOM      9  C   UNL     1       1.151   9.109  20.488  0.00  0.00    +0.000 A 
ATOM     10  C   UNL     1       0.502  10.157  19.815  0.00  0.00    +0.000 A 
ATOM     11  C   UNL     1      -0.319  11.064  20.502  0.00  0.00    +0.000 A 
ATOM     12  C   UNL     1      -0.505  10.924  21.877  0.00  0.00    +0.000 A 
ATOM     13  C   UNL     1       0.152   9.915  22.575  0.00  0.00    +0.000 A 
ATOM     14  C   UNL     1       0.975   9.024  21.878  0.00  0.00    +0.000 A 
BRANCH  12  15
ATOM     15  S   UNL     1      -1.567  12.055  22.751  0.00  0.00    +0.000 S 
ATOM     16  O   UNL     1      -2.499  11.266  23.540  0.00  0.00    +0.000 OA
ATOM     17  O   UNL     1      -0.696  13.033  23.375  0.00  0.00    +0.000 OA
BRANCH  15  18
ATOM     18  C   UNL     1      -2.482  12.864  21.468  0.00  0.00    +0.000 C 
BRANCH  18  19
ATOM     19  C   UNL     1      -3.107  14.141  21.987  0.00  0.00    +0.000 C 
BRANCH  19  20
ATOM     20  O   UNL     1      -3.466  13.974  23.357  0.00  0.00    +0.000 OA
ATOM     21  H   UNL     1      -4.185  13.319  23.402  0.00  0.00    +0.000 HD
ENDBRANCH  19  20
ENDBRANCH  18  19
ENDBRANCH  15  18
ENDBRANCH  12  15
ENDBRANCH   4   9
BRANCH   7  22
ATOM     22  C   UNL     1       2.925   2.806  20.674  0.00  0.00    +0.000 C 
ATOM     23  F   UNL     1       2.652   2.473  21.961  0.00  0.00    +0.000 F 
ATOM     24  F   UNL     1       2.210   1.929  19.910  0.00  0.00    +0.000 F 
ATOM     25  F   UNL     1       4.231   2.470  20.471  0.00  0.00    +0.000 F 
ENDBRANCH   7  22
BRANCH   1  26
ATOM     26  O   UNL     1       4.262   4.282  18.585  0.00  0.00    +0.000 OA
BRANCH  26  27
ATOM     27  C   UNL     1       3.965   3.957  17.213  0.00  0.00    +0.000 C 
ATOM     28  C   UNL     1       3.627   2.466  17.119  0.00  0.00    +0.000 C 
BRANCH  27  30
ATOM     29  C   UNL     1       5.297   5.703  15.891  0.00  0.00    +0.000 C 
ATOM     30  C   UNL     1       5.226   4.255  16.361  0.00  0.00    +0.000 C 
BRANCH  30  31
ATOM     31  O   UNL     1       6.422   3.971  17.092  0.00  0.00    +0.000 OA
ATOM     32  H   UNL     1       6.888   3.260  16.615  0.00  0.00    +0.000 HD
ENDBRANCH  30  31
ENDBRANCH  27  30
ENDBRANCH  26  27
ENDBRANCH   1  26
TORSDOF 10
ENDMDL
