MODEL 1
REMARK VINA RESULT:      -8.4      0.000      0.000
REMARK  Name = 
REMARK  9 active torsions:
REMARK  status: ('A' for Active; 'I' for Inactive)
REMARK    1  A    between atoms: C_1  and  C_2
REMARK    2  A    between atoms: C_2  and  C_4
REMARK    3  A    between atoms: C_7  and  C_8
REMARK    4  A    between atoms: C_11  and  C_12
REMARK    5  A    between atoms: C_12  and  C_13
REMARK    6  A    between atoms: C_13  and  C_14
REMARK    7  A    between atoms: N_16  and  C_17
REMARK    8  A    between atoms: N_16  and  C_18
REMARK    9  A    between atoms: C_18  and  C_19
REMARK                            x       y       z     vdW  Elec       q    Type
REMARK                         _______ _______ _______ _____ _____    ______ ____
ROOT
ATOM      1  C   UNL     1       7.407   5.063  17.674  0.00  0.00    +0.000 C 
ENDROOT
BRANCH   1   2
ATOM      2  C   UNL     1       6.054   4.408  17.897  0.00  0.00    +0.000 C 
ATOM      3  O   UNL     1       5.855   3.696  18.882  0.00  0.00    +0.000 OA
ATOM      4  N   UNL     1       5.076   4.645  16.937  0.00  0.00    +0.000 N 
ATOM      5  C   UNL     1       5.276   5.466  15.748  0.00  0.00    +0.000 C 
BRANCH   4   6
ATOM      6  C   UNL     1       3.743   4.057  17.127  0.00  0.00    +0.000 C 
BRANCH   6   7
ATOM      7  C   UNL     1       3.051   4.558  18.384  0.00  0.00    +0.000 A 
ATOM      8  C   UNL     1       2.825   3.625  19.417  0.00  0.00    +0.000 A 
ATOM      9  C   UNL     1       2.274   4.016  20.633  0.00  0.00    +0.000 A 
ATOM     10  C   UNL     1       1.966   5.353  20.853  0.00  0.00    +0.000 A 
ATOM     11  C   UNL     1       2.173   6.307  19.845  0.00  0.00    +0.000 A 
ATOM     12  C   UNL     1       1.889   7.659  20.056  0.00  0.00    +0.000 A 
ATOM     13  N   UNL     1       2.044   8.636  19.134  0.00  0.00    +0.000 NA
ATOM     14  C   UNL     1       2.484   8.244  17.927  0.00  0.00    +0.000 A 
ATOM     15  C   UNL     1       2.797   6.932  17.607  0.00  0.00    +0.000 A 
ATOM     16  C   UNL     1       2.683   5.920  18.583  0.00  0.00    +0.000 A 
ENDBRANCH   6   7
ENDBRANCH   4   6
ENDBRANCH   1   2
BRANCH   1  17
ATOM     17  C   UNL     1       7.798   5.986  18.825  0.00  0.00    +0.000 C 
BRANCH  17  21
ATOM     18  C   UNL     1       8.640   9.406  18.413  0.00  0.00    +0.000 A 
ATOM     19  N   UNL     1       7.879   9.283  17.338  0.00  0.00    +0.000 NA
ATOM     20  N   UNL     1       7.433   7.979  17.302  0.00  0.00    +0.000 NA
ATOM     21  C   UNL     1       7.942   7.386  18.361  0.00  0.00    +0.000 A 
ATOM     22  O   UNL     1       8.720   8.222  19.113  0.00  0.00    +0.000 OA
BRANCH  18  26
ATOM     23  C   UNL     1      10.113  12.968  18.944  0.00  0.00    +0.000 A 
ATOM     24  C   UNL     1      10.626  12.161  19.940  0.00  0.00    +0.000 A 
ATOM     25  C   UNL     1      10.152  10.819  19.853  0.00  0.00    +0.000 A 
ATOM     26  C   UNL     1       9.293  10.629  18.790  0.00  0.00    +0.000 A 
ATOM     27  S   UNL     1       9.070  12.077  17.910  0.00  0.00    +0.000 S 
BRANCH  23  29
ATOM     28  C   UNL     1      10.693  15.247  19.874  0.00  0.00    +0.000 C 
ATOM     29  C   UNL     1      10.334  14.388  18.684  0.00  0.00    +0.000 C 
ATOM     30  O   UNL     1      10.254  14.905  17.570  0.00  0.00    +0.000 OA
ENDBRANCH  23  29
ENDBRANCH  18  26
ENDBRANCH  17  21
ENDBRANCH   1  17
TORSDOF 7
ENDMDL
MODEL 2
REMARK VINA RESULT:      -8.4      1.192      1.418
REMARK  Name = 
REMARK  9 active torsions:
REMARK  status: ('A' for Active; 'I' for Inactive)
REMARK    1  A    between atoms: C_1  and  C_2
REMARK    2  A    between atoms: C_2  and  C_4
REMARK    3  A    between atoms: C_7  and  C_8
REMARK    4  A    between atoms: C_11  and  C_12
REMARK    5  A    between atoms: C_12  and  C_13
REMARK    6  A    between atoms: C_13  and  C_14
REMARK    7  A    between atoms: N_16  and  C_17
REMARK    8  A    between atoms: N_16  and  C_18
REMARK    9  A    between atoms: C_18  and  C_19
REMARK                            x       y       z     vdW  Elec       q    Type
REMARK                         _______ _______ _______ _____ _____    ______ ____
ROOT
ATOM      1  C   UNL     1       7.381   4.786  16.951  0.00  0.00    +0.000 C 
ENDROOT
BRANCH   1   2
ATOM      2  C   UNL     1       5.927   4.730  16.514  0.00  0.00    +0.000 C 
ATOM      3  O   UNL     1       5.576   5.209  15.435  0.00  0.00    +0.000 OA
ATOM      4  N   UNL     1       5.031   4.129  17.391  0.00  0.00    +0.000 N 
ATOM      5  C   UNL     1       5.401   3.567  18.685  0.00  0.00    +0.000 C 
BRANCH   4   6
ATOM      6  C   UNL     1       3.619   4.025  16.996  0.00  0.00    +0.000 C 
BRANCH   6   7
ATOM      7  C   UNL     1       2.672   4.041  18.185  0.00  0.00    +0.000 A 
ATOM      8  C   UNL     1       2.163   2.803  18.627  0.00  0.00    +0.000 A 
ATOM      9  C   UNL     1       1.358   2.717  19.758  0.00  0.00    +0.000 A 
ATOM     10  C   UNL     1       1.069   3.864  20.488  0.00  0.00    +0.000 A 
ATOM     11  C   UNL     1       1.554   5.113  20.073  0.00  0.00    +0.000 A 
ATOM     12  C   UNL     1       1.292   6.274  20.806  0.00  0.00    +0.000 A 
ATOM     13  N   UNL     1       1.706   7.515  20.467  0.00  0.00    +0.000 NA
ATOM     14  C   UNL     1       2.402   7.612  19.322  0.00  0.00    +0.000 A 
ATOM     15  C   UNL     1       2.721   6.530  18.517  0.00  0.00    +0.000 A 
ATOM     16  C   UNL     1       2.331   5.228  18.896  0.00  0.00    +0.000 A 
ENDBRANCH   6   7
ENDBRANCH   4   6
ENDBRANCH   1   2
BRANCH   1  17
ATOM     17  C   UNL     1       7.565   5.563  18.251  0.00  0.00    +0.000 C 
BRANCH  17  21
ATOM     18  C   UNL     1       8.452   8.995  18.329  0.00  0.00    +0.000 A 
ATOM     19  N   UNL     1       7.705   9.033  17.238  0.00  0.00    +0.000 NA
ATOM     20  N   UNL     1       7.245   7.753  17.015  0.00  0.00    +0.000 NA
ATOM     21  C   UNL     1       7.732   7.012  17.987  0.00  0.00    +0.000 A 
ATOM     22  O   UNL     1       8.509   7.725  18.858  0.00  0.00    +0.000 OA
BRANCH  18  26
ATOM     23  C   UNL     1      10.321  12.288  19.227  0.00  0.00    +0.000 A 
ATOM     24  C   UNL     1      10.012  11.656  20.415  0.00  0.00    +0.000 A 
ATOM     25  C   UNL     1       9.316  10.428  20.215  0.00  0.00    +0.000 A 
ATOM     26  C   UNL     1       9.114  10.146  18.879  0.00  0.00    +0.000 A 
ATOM     27  S   UNL     1       9.768  11.371  17.883  0.00  0.00    +0.000 S 
BRANCH  23  29
ATOM     28  C   UNL     1      11.465  14.315  20.216  0.00  0.00    +0.000 C 
ATOM     29  C   UNL     1      11.011  13.554  18.992  0.00  0.00    +0.000 C 
ATOM     30  O   UNL     1      11.244  14.015  17.875  0.00  0.00    +0.000 OA
ENDBRANCH  23  29
ENDBRANCH  18  26
ENDBRANCH  17  21
ENDBRANCH   1  17
TORSDOF 7
ENDMDL
MODEL 3
REMARK VINA RESULT:      -8.2      3.111     10.227
REMARK  Name = 
REMARK  9 active torsions:
REMARK  status: ('A' for Active; 'I' for Inactive)
REMARK    1  A    between atoms: C_1  and  C_2
REMARK    2  A    between atoms: C_2  and  C_4
REMARK    3  A    between atoms: C_7  and  C_8
REMARK    4  A    between atoms: C_11  and  C_12
REMARK    5  A    between atoms: C_12  and  C_13
REMARK    6  A    between atoms: C_13  and  C_14
REMARK    7  A    between atoms: N_16  and  C_17
REMARK    8  A    between atoms: N_16  and  C_18
REMARK    9  A    between atoms: C_18  and  C_19
REMARK                            x       y       z     vdW  Elec       q    Type
REMARK                         _______ _______ _______ _____ _____    ______ ____
ROOT
ATOM      1  C   UNL     1       7.724   9.152  17.663  0.00  0.00    +0.000 C 
ENDROOT
BRANCH   1   2
ATOM      2  C   UNL     1       8.661   9.909  18.588  0.00  0.00    +0.000 C 
ATOM      3  O   UNL     1       9.314   9.313  19.447  0.00  0.00    +0.000 OA
ATOM      4  N   UNL     1       8.729  11.288  18.422  0.00  0.00    +0.000 N 
ATOM      5  C   UNL     1       7.959  12.034  17.432  0.00  0.00    +0.000 C 
BRANCH   4   6
ATOM      6  C   UNL     1       9.645  12.058  19.274  0.00  0.00    +0.000 C 
BRANCH   6   7
ATOM      7  C   UNL     1      10.517  13.020  18.485  0.00  0.00    +0.000 A 
ATOM      8  C   UNL     1      11.542  12.468  17.692  0.00  0.00    +0.000 A 
ATOM      9  C   UNL     1      12.332  13.269  16.872  0.00  0.00    +0.000 A 
ATOM     10  C   UNL     1      12.093  14.637  16.808  0.00  0.00    +0.000 A 
ATOM     11  C   UNL     1      11.084  15.220  17.589  0.00  0.00    +0.000 A 
ATOM     12  C   UNL     1      10.815  16.591  17.521  0.00  0.00    +0.000 A 
ATOM     13  N   UNL     1       9.875  17.232  18.250  0.00  0.00    +0.000 NA
ATOM     14  C   UNL     1       9.178  16.474  19.113  0.00  0.00    +0.000 A 
ATOM     15  C   UNL     1       9.359  15.108  19.263  0.00  0.00    +0.000 A 
ATOM     16  C   UNL     1      10.305  14.430  18.467  0.00  0.00    +0.000 A 
ENDBRANCH   6   7
ENDBRANCH   4   6
ENDBRANCH   1   2
BRANCH   1  17
ATOM     17  C   UNL     1       8.209   7.732  17.384  0.00  0.00    +0.000 C 
BRANCH  17  21
ATOM     18  C   UNL     1       5.600   5.621  18.526  0.00  0.00    +0.000 A 
ATOM     19  N   UNL     1       6.540   5.200  19.356  0.00  0.00    +0.000 NA
ATOM     20  N   UNL     1       7.684   5.915  19.070  0.00  0.00    +0.000 NA
ATOM     21  C   UNL     1       7.371   6.734  18.090  0.00  0.00    +0.000 A 
ATOM     22  O   UNL     1       6.071   6.606  17.687  0.00  0.00    +0.000 OA
BRANCH  18  26
ATOM     23  C   UNL     1       2.170   3.830  18.941  0.00  0.00    +0.000 A 
ATOM     24  C   UNL     1       2.012   4.797  17.967  0.00  0.00    +0.000 A 
ATOM     25  C   UNL     1       3.211   5.530  17.726  0.00  0.00    +0.000 A 
ATOM     26  C   UNL     1       4.260   5.103  18.515  0.00  0.00    +0.000 A 
ATOM     27  S   UNL     1       3.780   3.822  19.540  0.00  0.00    +0.000 S 
BRANCH  23  29
ATOM     28  C   UNL     1       1.238   2.659  20.980  0.00  0.00    +0.000 C 
ATOM     29  C   UNL     1       1.201   2.883  19.486  0.00  0.00    +0.000 C 
ATOM     30  O   UNL     1       0.369   2.282  18.807  0.00  0.00    +0.000 OA
ENDBRANCH  23  29
ENDBRANCH  18  26
ENDBRANCH  17  21
ENDBRANCH   1  17
TORSDOF 7
ENDMDL
MODEL 4
REMARK VINA RESULT:      -7.9      3.097      9.836
REMARK  Name = 
REMARK  9 active torsions:
REMARK  status: ('A' for Active; 'I' for Inactive)
REMARK    1  A    between atoms: C_1  and  C_2
REMARK    2  A    between atoms: C_2  and  C_4
REMARK    3  A    between atoms: C_7  and  C_8
REMARK    4  A    between atoms: C_11  and  C_12
REMARK    5  A    between atoms: C_12  and  C_13
REMARK    6  A    between atoms: C_13  and  C_14
REMARK    7  A    between atoms: N_16  and  C_17
REMARK    8  A    between atoms: N_16  and  C_18
REMARK    9  A    between atoms: C_18  and  C_19
REMARK                            x       y       z     vdW  Elec       q    Type
REMARK                         _______ _______ _______ _____ _____    ______ ____
ROOT
ATOM      1  C   UNL     1       7.563   9.227  17.787  0.00  0.00    +0.000 C 
ENDROOT
BRANCH   1   2
ATOM      2  C   UNL     1       8.737   9.861  18.514  0.00  0.00    +0.000 C 
ATOM      3  O   UNL     1       9.429   9.198  19.288  0.00  0.00    +0.000 OA
ATOM      4  N   UNL     1       8.974  11.209  18.268  0.00  0.00    +0.000 N 
ATOM      5  C   UNL     1       8.168  12.034  17.375  0.00  0.00    +0.000 C 
BRANCH   4   6
ATOM      6  C   UNL     1      10.117  11.856  18.926  0.00  0.00    +0.000 C 
BRANCH   6   7
ATOM      7  C   UNL     1       9.706  12.722  20.106  0.00  0.00    +0.000 A 
ATOM      8  C   UNL     1       9.341  12.065  21.298  0.00  0.00    +0.000 A 
ATOM      9  C   UNL     1       9.033  12.781  22.451  0.00  0.00    +0.000 A 
ATOM     10  C   UNL     1       9.112  14.169  22.443  0.00  0.00    +0.000 A 
ATOM     11  C   UNL     1       9.467  14.855  21.271  0.00  0.00    +0.000 A 
ATOM     12  C   UNL     1       9.573  16.249  21.250  0.00  0.00    +0.000 A 
ATOM     13  N   UNL     1       9.891  16.985  20.162  0.00  0.00    +0.000 NA
ATOM     14  C   UNL     1      10.094  16.299  19.024  0.00  0.00    +0.000 A 
ATOM     15  C   UNL     1      10.016  14.919  18.929  0.00  0.00    +0.000 A 
ATOM     16  C   UNL     1       9.733  14.147  20.075  0.00  0.00    +0.000 A 
ENDBRANCH   6   7
ENDBRANCH   4   6
ENDBRANCH   1   2
BRANCH   1  17
ATOM     17  C   UNL     1       7.928   7.885  17.161  0.00  0.00    +0.000 C 
BRANCH  17  21
ATOM     18  C   UNL     1       5.708   5.339  18.239  0.00  0.00    +0.000 A 
ATOM     19  N   UNL     1       6.645   5.151  19.153  0.00  0.00    +0.000 NA
ATOM     20  N   UNL     1       7.643   6.070  18.907  0.00  0.00    +0.000 NA
ATOM     21  C   UNL     1       7.252   6.767  17.862  0.00  0.00    +0.000 A 
ATOM     22  O   UNL     1       6.038   6.363  17.380  0.00  0.00    +0.000 OA
BRANCH  18  26
ATOM     23  C   UNL     1       2.376   3.371  18.645  0.00  0.00    +0.000 A 
ATOM     24  C   UNL     1       2.775   3.232  17.329  0.00  0.00    +0.000 A 
ATOM     25  C   UNL     1       3.994   3.919  17.054  0.00  0.00    +0.000 A 
ATOM     26  C   UNL     1       4.502   4.561  18.165  0.00  0.00    +0.000 A 
ATOM     27  S   UNL     1       3.497   4.327  19.528  0.00  0.00    +0.000 S 
BRANCH  23  29
ATOM     28  C   UNL     1       1.123   3.057  20.819  0.00  0.00    +0.000 C 
ATOM     29  C   UNL     1       1.196   2.842  19.325  0.00  0.00    +0.000 C 
ATOM     30  O   UNL     1       0.278   2.254  18.755  0.00  0.00    +0.000 OA
ENDBRANCH  23  29
ENDBRANCH  18  26
ENDBRANCH  17  21
ENDBRANCH   1  17
TORSDOF 7
ENDMDL
MODEL 5
REMARK VINA RESULT:      -7.9      3.119      9.743
REMARK  Name = 
REMARK  9 active torsions:
REMARK  status: ('A' for Active; 'I' for Inactive)
REMARK    1  A    between atoms: C_1  and  C_2
REMARK    2  A    between atoms: C_2  and  C_4
REMARK    3  A    between atoms: C_7  and  C_8
REMARK    4  A    between atoms: C_11  and  C_12
REMARK    5  A    between atoms: C_12  and  C_13
REMARK    6  A    between atoms: C_13  and  C_14
REMARK    7  A    between atoms: N_16  and  C_17
REMARK    8  A    between atoms: N_16  and  C_18
REMARK    9  A    between atoms: C_18  and  C_19
REMARK                            x       y       z     vdW  Elec       q    Type
REMARK                         _______ _______ _______ _____ _____    ______ ____
ROOT
ATOM      1  C   UNL     1       8.107   9.744  17.901  0.00  0.00    +0.000 C 
ENDROOT
BRANCH   1   2
ATOM      2  C   UNL     1       9.082  10.784  18.427  0.00  0.00    +0.000 C 
ATOM      3  O   UNL     1      10.011  10.457  19.168  0.00  0.00    +0.000 OA
ATOM      4  N   UNL     1       8.864  12.102  18.040  0.00  0.00    +0.000 N 
ATOM      5  C   UNL     1       7.767  12.533  17.181  0.00  0.00    +0.000 C 
BRANCH   4   6
ATOM      6  C   UNL     1       9.800  13.137  18.500  0.00  0.00    +0.000 C 
BRANCH   6   7
ATOM      7  C   UNL     1       9.271  13.925  19.687  0.00  0.00    +0.000 A 
ATOM      8  C   UNL     1       9.419  13.352  20.966  0.00  0.00    +0.000 A 
ATOM      9  C   UNL     1       9.040  14.042  22.114  0.00  0.00    +0.000 A 
ATOM     10  C   UNL     1       8.531  15.331  22.007  0.00  0.00    +0.000 A 
ATOM     11  C   UNL     1       8.364  15.928  20.748  0.00  0.00    +0.000 A 
ATOM     12  C   UNL     1       7.873  17.232  20.624  0.00  0.00    +0.000 A 
ATOM     13  N   UNL     1       7.667  17.872  19.451  0.00  0.00    +0.000 NA
ATOM     14  C   UNL     1       7.942  17.171  18.339  0.00  0.00    +0.000 A 
ATOM     15  C   UNL     1       8.433  15.875  18.344  0.00  0.00    +0.000 A 
ATOM     16  C   UNL     1       8.695  15.224  19.568  0.00  0.00    +0.000 A 
ENDBRANCH   6   7
ENDBRANCH   4   6
ENDBRANCH   1   2
BRANCH   1  17
ATOM     17  C   UNL     1       8.448   8.337  18.383  0.00  0.00    +0.000 C 
BRANCH  17  21
ATOM     18  C   UNL     1       6.064   5.881  17.458  0.00  0.00    +0.000 A 
ATOM     19  N   UNL     1       6.718   5.930  16.310  0.00  0.00    +0.000 NA
ATOM     20  N   UNL     1       7.723   6.862  16.454  0.00  0.00    +0.000 NA
ATOM     21  C   UNL     1       7.627   7.320  17.683  0.00  0.00    +0.000 A 
ATOM     22  O   UNL     1       6.600   6.750  18.382  0.00  0.00    +0.000 OA
BRANCH  18  26
ATOM     23  C   UNL     1       3.016   3.791  18.678  0.00  0.00    +0.000 A 
ATOM     24  C   UNL     1       3.245   3.450  17.359  0.00  0.00    +0.000 A 
ATOM     25  C   UNL     1       4.346   4.159  16.795  0.00  0.00    +0.000 A 
ATOM     26  C   UNL     1       4.937   5.021  17.696  0.00  0.00    +0.000 A 
ATOM     27  S   UNL     1       4.153   4.963  19.213  0.00  0.00    +0.000 S 
BRANCH  23  29
ATOM     28  C   UNL     1       1.265   4.360  20.411  0.00  0.00    +0.000 C 
ATOM     29  C   UNL     1       1.995   3.311  19.605  0.00  0.00    +0.000 C 
ATOM     30  O   UNL     1       1.699   2.125  19.751  0.00  0.00    +0.000 OA
ENDBRANCH  23  29
ENDBRANCH  18  26
ENDBRANCH  17  21
ENDBRANCH   1  17
TORSDOF 7
ENDMDL
MODEL 6
REMARK VINA RESULT:      -7.8      1.801      2.754
REMARK  Name = 
REMARK  9 active torsions:
REMARK  status: ('A' for Active; 'I' for Inactive)
REMARK    1  A    between atoms: C_1  and  C_2
REMARK    2  A    between atoms: C_2  and  C_4
REMARK    3  A    between atoms: C_7  and  C_8
REMARK    4  A    between atoms: C_11  and  C_12
REMARK    5  A    between atoms: C_12  and  C_13
REMARK    6  A    between atoms: C_13  and  C_14
REMARK    7  A    between atoms: N_16  and  C_17
REMARK    8  A    between atoms: N_16  and  C_18
REMARK    9  A    between atoms: C_18  and  C_19
REMARK                            x       y       z     vdW  Elec       q    Type
REMARK                         _______ _______ _______ _____ _____    ______ ____
ROOT
ATOM      1  C   UNL     1       7.387   5.677  16.705  0.00  0.00    +0.000 C 
ENDROOT
BRANCH   1   2
ATOM      2  C   UNL     1       6.380   4.760  17.378  0.00  0.00    +0.000 C 
ATOM      3  O   UNL     1       6.488   4.476  18.572  0.00  0.00    +0.000 OA
ATOM      4  N   UNL     1       5.356   4.260  16.581  0.00  0.00    +0.000 N 
ATOM      5  C   UNL     1       5.202   4.556  15.161  0.00  0.00    +0.000 C 
BRANCH   4   6
ATOM      6  C   UNL     1       4.341   3.394  17.197  0.00  0.00    +0.000 C 
BRANCH   6   7
ATOM      7  C   UNL     1       3.494   4.119  18.229  0.00  0.00    +0.000 A 
ATOM      8  C   UNL     1       2.895   5.335  17.841  0.00  0.00    +0.000 A 
ATOM      9  C   UNL     1       2.037   6.021  18.694  0.00  0.00    +0.000 A 
ATOM     10  C   UNL     1       1.736   5.491  19.943  0.00  0.00    +0.000 A 
ATOM     11  C   UNL     1       2.320   4.286  20.364  0.00  0.00    +0.000 A 
ATOM     12  C   UNL     1       2.013   3.727  21.608  0.00  0.00    +0.000 A 
ATOM     13  N   UNL     1       2.542   2.582  22.094  0.00  0.00    +0.000 NA
ATOM     14  C   UNL     1       3.445   1.969  21.310  0.00  0.00    +0.000 A 
ATOM     15  C   UNL     1       3.825   2.433  20.060  0.00  0.00    +0.000 A 
ATOM     16  C   UNL     1       3.235   3.600  19.531  0.00  0.00    +0.000 A 
ENDBRANCH   6   7
ENDBRANCH   4   6
ENDBRANCH   1   2
BRANCH   1  17
ATOM     17  C   UNL     1       6.927   7.132  16.695  0.00  0.00    +0.000 C 
BRANCH  17  21
ATOM     18  C   UNL     1       8.656   9.739  18.364  0.00  0.00    +0.000 A 
ATOM     19  N   UNL     1       8.994   8.755  19.180  0.00  0.00    +0.000 NA
ATOM     20  N   UNL     1       8.402   7.606  18.700  0.00  0.00    +0.000 NA
ATOM     21  C   UNL     1       7.745   7.956  17.616  0.00  0.00    +0.000 A 
ATOM     22  O   UNL     1       7.854   9.291  17.338  0.00  0.00    +0.000 OA
BRANCH  18  26
ATOM     23  C   UNL     1      10.061  13.224  19.373  0.00  0.00    +0.000 A 
ATOM     24  C   UNL     1       9.414  13.379  18.163  0.00  0.00    +0.000 A 
ATOM     25  C   UNL     1       8.854  12.159  17.684  0.00  0.00    +0.000 A 
ATOM     26  C   UNL     1       9.081  11.100  18.540  0.00  0.00    +0.000 A 
ATOM     27  S   UNL     1       9.969  11.596  19.913  0.00  0.00    +0.000 S 
BRANCH  23  29
ATOM     28  C   UNL     1      10.200  14.480  21.564  0.00  0.00    +0.000 C 
ATOM     29  C   UNL     1      10.767  14.208  20.190  0.00  0.00    +0.000 C 
ATOM     30  O   UNL     1      11.781  14.805  19.828  0.00  0.00    +0.000 OA
ENDBRANCH  23  29
ENDBRANCH  18  26
ENDBRANCH  17  21
ENDBRANCH   1  17
TORSDOF 7
ENDMDL
MODEL 7
REMARK VINA RESULT:      -7.8      5.237      8.626
REMARK  Name = 
REMARK  9 active torsions:
REMARK  status: ('A' for Active; 'I' for Inactive)
REMARK    1  A    between atoms: C_1  and  C_2
REMARK    2  A    between atoms: C_2  and  C_4
REMARK    3  A    between atoms: C_7  and  C_8
REMARK    4  A    between atoms: C_11  and  C_12
REMARK    5  A    between atoms: C_12  and  C_13
REMARK    6  A    between atoms: C_13  and  C_14
REMARK    7  A    between atoms: N_16  and  C_17
REMARK    8  A    between atoms: N_16  and  C_18
REMARK    9  A    between atoms: C_18  and  C_19
REMARK                            x       y       z     vdW  Elec       q    Type
REMARK                         _______ _______ _______ _____ _____    ______ ____
ROOT
ATOM      1  C   UNL     1       1.224   6.583  20.737  0.00  0.00    +0.000 C 
ENDROOT
BRANCH   1   2
ATOM      2  C   UNL     1       2.171   5.442  20.404  0.00  0.00    +0.000 C 
ATOM      3  O   UNL     1       2.440   4.583  21.245  0.00  0.00    +0.000 OA
ATOM      4  N   UNL     1       2.713   5.430  19.124  0.00  0.00    +0.000 N 
ATOM      5  C   UNL     1       2.437   6.437  18.106  0.00  0.00    +0.000 C 
BRANCH   4   6
ATOM      6  C   UNL     1       3.609   4.328  18.748  0.00  0.00    +0.000 C 
BRANCH   6   7
ATOM      7  C   UNL     1       5.006   4.802  18.382  0.00  0.00    +0.000 A 
ATOM      8  C   UNL     1       5.826   5.276  19.426  0.00  0.00    +0.000 A 
ATOM      9  C   UNL     1       7.146   5.651  19.193  0.00  0.00    +0.000 A 
ATOM     10  C   UNL     1       7.682   5.531  17.916  0.00  0.00    +0.000 A 
ATOM     11  C   UNL     1       6.892   5.068  16.853  0.00  0.00    +0.000 A 
ATOM     12  C   UNL     1       7.420   4.921  15.567  0.00  0.00    +0.000 A 
ATOM     13  N   UNL     1       6.724   4.499  14.488  0.00  0.00    +0.000 NA
ATOM     14  C   UNL     1       5.424   4.230  14.692  0.00  0.00    +0.000 A 
ATOM     15  C   UNL     1       4.795   4.340  15.923  0.00  0.00    +0.000 A 
ATOM     16  C   UNL     1       5.533   4.732  17.059  0.00  0.00    +0.000 A 
ENDBRANCH   6   7
ENDBRANCH   4   6
ENDBRANCH   1   2
BRANCH   1  17
ATOM     17  C   UNL     1       1.914   7.695  21.523  0.00  0.00    +0.000 C 
BRANCH  17  21
ATOM     18  C   UNL     1      -0.207  10.350  20.512  0.00  0.00    +0.000 A 
ATOM     19  N   UNL     1       0.458  11.005  21.449  0.00  0.00    +0.000 NA
ATOM     20  N   UNL     1       1.366  10.124  21.995  0.00  0.00    +0.000 NA
ATOM     21  C   UNL     1       1.207   8.986  21.354  0.00  0.00    +0.000 A 
ATOM     22  O   UNL     1       0.227   9.048  20.401  0.00  0.00    +0.000 OA
BRANCH  18  26
ATOM     23  C   UNL     1      -2.924  11.476  17.964  0.00  0.00    +0.000 A 
ATOM     24  C   UNL     1      -2.938  12.384  19.005  0.00  0.00    +0.000 A 
ATOM     25  C   UNL     1      -1.979  12.073  20.013  0.00  0.00    +0.000 A 
ATOM     26  C   UNL     1      -1.249  10.939  19.718  0.00  0.00    +0.000 A 
ATOM     27  S   UNL     1      -1.734  10.264  18.224  0.00  0.00    +0.000 S 
BRANCH  23  29
ATOM     28  C   UNL     1      -3.077  10.890  15.508  0.00  0.00    +0.000 C 
ATOM     29  C   UNL     1      -3.742  11.425  16.755  0.00  0.00    +0.000 C 
ATOM     30  O   UNL     1      -4.920  11.779  16.705  0.00  0.00    +0.000 OA
ENDBRANCH  23  29
ENDBRANCH  18  26
ENDBRANCH  17  21
ENDBRANCH   1  17
TORSDOF 7
ENDMDL
MODEL 8
REMARK VINA RESULT:      -7.7      5.177      7.772
REMARK  Name = 
REMARK  9 active torsions:
REMARK  status: ('A' for Active; 'I' for Inactive)
REMARK    1  A    between atoms: C_1  and  C_2
REMARK    2  A    between atoms: C_2  and  C_4
REMARK    3  A    between atoms: C_7  and  C_8
REMARK    4  A    between atoms: C_11  and  C_12
REMARK    5  A    between atoms: C_12  and  C_13
REMARK    6  A    between atoms: C_13  and  C_14
REMARK    7  A    between atoms: N_16  and  C_17
REMARK    8  A    between atoms: N_16  and  C_18
REMARK    9  A    between atoms: C_18  and  C_19
REMARK                            x       y       z     vdW  Elec       q    Type
REMARK                         _______ _______ _______ _____ _____    ______ ____
ROOT
ATOM      1  C   UNL     1       1.266   5.015  19.959  0.00  0.00    +0.000 C 
ENDROOT
BRANCH   1   2
ATOM      2  C   UNL     1       2.243   4.568  18.885  0.00  0.00    +0.000 C 
ATOM      3  O   UNL     1       2.253   5.110  17.779  0.00  0.00    +0.000 OA
ATOM      4  N   UNL     1       3.101   3.523  19.212  0.00  0.00    +0.000 N 
ATOM      5  C   UNL     1       3.109   2.841  20.502  0.00  0.00    +0.000 C 
BRANCH   4   6
ATOM      6  C   UNL     1       4.084   3.078  18.215  0.00  0.00    +0.000 C 
BRANCH   6   7
ATOM      7  C   UNL     1       5.208   4.079  18.007  0.00  0.00    +0.000 A 
ATOM      8  C   UNL     1       5.779   4.662  19.156  0.00  0.00    +0.000 A 
ATOM      9  C   UNL     1       6.868   5.523  19.062  0.00  0.00    +0.000 A 
ATOM     10  C   UNL     1       7.427   5.796  17.819  0.00  0.00    +0.000 A 
ATOM     11  C   UNL     1       6.879   5.237  16.654  0.00  0.00    +0.000 A 
ATOM     12  C   UNL     1       7.440   5.483  15.398  0.00  0.00    +0.000 A 
ATOM     13  N   UNL     1       6.965   4.999  14.229  0.00  0.00    +0.000 NA
ATOM     14  C   UNL     1       5.856   4.246  14.310  0.00  0.00    +0.000 A 
ATOM     15  C   UNL     1       5.216   3.937  15.500  0.00  0.00    +0.000 A 
ATOM     16  C   UNL     1       5.740   4.401  16.725  0.00  0.00    +0.000 A 
ENDBRANCH   6   7
ENDBRANCH   4   6
ENDBRANCH   1   2
BRANCH   1  17
ATOM     17  C   UNL     1       1.887   6.024  20.921  0.00  0.00    +0.000 C 
BRANCH  17  21
ATOM     18  C   UNL     1       0.980   9.440  20.644  0.00  0.00    +0.000 A 
ATOM     19  N   UNL     1       1.459   9.288  19.421  0.00  0.00    +0.000 NA
ATOM     20  N   UNL     1       1.887   7.982  19.312  0.00  0.00    +0.000 NA
ATOM     21  C   UNL     1       1.636   7.414  20.472  0.00  0.00    +0.000 A 
ATOM     22  O   UNL     1       1.064   8.273  21.369  0.00  0.00    +0.000 OA
BRANCH  18  26
ATOM     23  C   UNL     1      -0.799  12.433  22.383  0.00  0.00    +0.000 A 
ATOM     24  C   UNL     1       0.018  12.957  21.400  0.00  0.00    +0.000 A 
ATOM     25  C   UNL     1       0.732  11.949  20.689  0.00  0.00    +0.000 A 
ATOM     26  C   UNL     1       0.441  10.677  21.139  0.00  0.00    +0.000 A 
ATOM     27  S   UNL     1      -0.692  10.719  22.417  0.00  0.00    +0.000 S 
BRANCH  23  29
ATOM     28  C   UNL     1      -3.064  12.535  23.504  0.00  0.00    +0.000 C 
ATOM     29  C   UNL     1      -1.678  13.113  23.330  0.00  0.00    +0.000 C 
ATOM     30  O   UNL     1      -1.351  14.102  23.986  0.00  0.00    +0.000 OA
ENDBRANCH  23  29
ENDBRANCH  18  26
ENDBRANCH  17  21
ENDBRANCH   1  17
TORSDOF 7
ENDMDL
MODEL 9
REMARK VINA RESULT:      -7.7      2.792     10.128
REMARK  Name = 
REMARK  9 active torsions:
REMARK  status: ('A' for Active; 'I' for Inactive)
REMARK    1  A    between atoms: C_1  and  C_2
REMARK    2  A    between atoms: C_2  and  C_4
REMARK    3  A    between atoms: C_7  and  C_8
REMARK    4  A    between atoms: C_11  and  C_12
REMARK    5  A    between atoms: C_12  and  C_13
REMARK    6  A    between atoms: C_13  and  C_14
REMARK    7  A    between atoms: N_16  and  C_17
REMARK    8  A    between atoms: N_16  and  C_18
REMARK    9  A    between atoms: C_18  and  C_19
REMARK                            x       y       z     vdW  Elec       q    Type
REMARK                         _______ _______ _______ _____ _____    ______ ____
ROOT
ATOM      1  C   UNL     1       8.356   9.730  18.356  0.00  0.00    +0.000 C 
ENDROOT
BRANCH   1   2
ATOM      2  C   UNL     1       9.580  10.617  18.509  0.00  0.00    +0.000 C 
ATOM      3  O   UNL     1      10.291  10.880  17.537  0.00  0.00    +0.000 OA
ATOM      4  N   UNL     1       9.853  11.097  19.785  0.00  0.00    +0.000 N 
ATOM      5  C   UNL     1       9.050  10.795  20.964  0.00  0.00    +0.000 C 
BRANCH   4   6
ATOM      6  C   UNL     1      11.010  11.983  19.973  0.00  0.00    +0.000 C 
BRANCH   6   7
ATOM      7  C   UNL     1      10.614  13.439  20.157  0.00  0.00    +0.000 A 
ATOM      8  C   UNL     1      10.156  13.832  21.431  0.00  0.00    +0.000 A 
ATOM      9  C   UNL     1       9.852  15.161  21.710  0.00  0.00    +0.000 A 
ATOM     10  C   UNL     1      10.029  16.129  20.729  0.00  0.00    +0.000 A 
ATOM     11  C   UNL     1      10.477  15.772  19.448  0.00  0.00    +0.000 A 
ATOM     12  C   UNL     1      10.681  16.735  18.456  0.00  0.00    +0.000 A 
ATOM     13  N   UNL     1      11.094  16.473  17.195  0.00  0.00    +0.000 NA
ATOM     14  C   UNL     1      11.294  15.178  16.897  0.00  0.00    +0.000 A 
ATOM     15  C   UNL     1      11.123  14.141  17.801  0.00  0.00    +0.000 A 
ATOM     16  C   UNL     1      10.741  14.419  19.130  0.00  0.00    +0.000 A 
ENDBRANCH   6   7
ENDBRANCH   4   6
ENDBRANCH   1   2
BRANCH   1  17
ATOM     17  C   UNL     1       8.674   8.259  18.602  0.00  0.00    +0.000 C 
BRANCH  17  21
ATOM     18  C   UNL     1       6.127   6.016  17.577  0.00  0.00    +0.000 A 
ATOM     19  N   UNL     1       6.650   6.242  16.384  0.00  0.00    +0.000 NA
ATOM     20  N   UNL     1       7.694   7.125  16.558  0.00  0.00    +0.000 NA
ATOM     21  C   UNL     1       7.750   7.379  17.848  0.00  0.00    +0.000 A 
ATOM     22  O   UNL     1       6.788   6.717  18.560  0.00  0.00    +0.000 OA
BRANCH  18  26
ATOM     23  C   UNL     1       3.047   3.940  18.739  0.00  0.00    +0.000 A 
ATOM     24  C   UNL     1       3.385   3.497  17.474  0.00  0.00    +0.000 A 
ATOM     25  C   UNL     1       4.509   4.191  16.936  0.00  0.00    +0.000 A 
ATOM     26  C   UNL     1       5.007   5.144  17.802  0.00  0.00    +0.000 A 
ATOM     27  S   UNL     1       4.109   5.187  19.255  0.00  0.00    +0.000 S 
BRANCH  23  29
ATOM     28  C   UNL     1       2.219   3.637  21.109  0.00  0.00    +0.000 C 
ATOM     29  C   UNL     1       1.969   3.506  19.624  0.00  0.00    +0.000 C 
ATOM     30  O   UNL     1       0.891   3.061  19.231  0.00  0.00    +0.000 OA
ENDBRANCH  23  29
ENDBRANCH  18  26
ENDBRANCH  17  21
ENDBRANCH   1  17
TORSDOF 7
ENDMDL
