MODEL 1
REMARK VINA RESULT:      -8.6      0.000      0.000
REMARK  Name = 
REMARK  7 active torsions:
REMARK  status: ('A' for Active; 'I' for Inactive)
REMARK    1  A    between atoms: C_4  and  C_5
REMARK    2  A    between atoms: C_7  and  N_8
REMARK    3  A    between atoms: N_8  and  C_9
REMARK    4  A    between atoms: C_9  and  C_10
REMARK    5  A    between atoms: C_10  and  C_11
REMARK    6  A    between atoms: C_11  and  N_12
REMARK    7  A    between atoms: C_18  and  C_19
REMARK                            x       y       z     vdW  Elec       q    Type
REMARK                         _______ _______ _______ _____ _____    ______ ____
ROOT
ATOM      1  C   UNL     1       5.025   5.080  17.767  0.00  0.00    +0.000 A 
ATOM      2  C   UNL     1       5.977   5.845  18.411  0.00  0.00    +0.000 A 
ATOM      3  C   UNL     1       7.078   6.240  17.685  0.00  0.00    +0.000 A 
ATOM      4  N   UNL     1       7.250   5.874  16.412  0.00  0.00    +0.000 NA
ATOM      5  C   UNL     1       6.302   5.100  15.853  0.00  0.00    +0.000 A 
ATOM      6  N   UNL     1       5.183   4.698  16.482  0.00  0.00    +0.000 NA
ENDROOT
BRANCH   1  10
ATOM      7  C   UNL     1       1.325   3.926  19.644  0.00  0.00    +0.000 A 
ATOM      8  C   UNL     1       1.800   3.224  18.541  0.00  0.00    +0.000 A 
ATOM      9  C   UNL     1       3.006   3.595  17.940  0.00  0.00    +0.000 A 
ATOM     10  C   UNL     1       3.765   4.676  18.425  0.00  0.00    +0.000 A 
ATOM     11  C   UNL     1       3.262   5.362  19.547  0.00  0.00    +0.000 A 
ATOM     12  C   UNL     1       2.055   4.997  20.148  0.00  0.00    +0.000 A 
ENDBRANCH   1  10
BRANCH   5  13
ATOM     13  C   UNL     1       6.503   4.673  14.461  0.00  0.00    +0.000 A 
ATOM     14  C   UNL     1       5.659   3.751  13.821  0.00  0.00    +0.000 A 
ATOM     15  C   UNL     1       5.889   3.371  12.498  0.00  0.00    +0.000 A 
ATOM     16  C   UNL     1       6.967   3.927  11.834  0.00  0.00    +0.000 A 
ATOM     17  N   UNL     1       7.811   4.813  12.397  0.00  0.00    +0.000 NA
ATOM     18  C   UNL     1       7.555   5.160  13.686  0.00  0.00    +0.000 A 
ENDBRANCH   5  13
BRANCH   3  19
ATOM     19  N   UNL     1       7.987   7.102  18.315  0.00  0.00    +0.000 N 
ATOM     20  H   UNL     1       8.899   6.661  18.390  0.00  0.00    +0.000 HD
BRANCH  19  21
ATOM     21  C   UNL     1       8.021   8.479  17.838  0.00  0.00    +0.000 C 
BRANCH  21  22
ATOM     22  C   UNL     1       8.797   9.361  18.821  0.00  0.00    +0.000 C 
BRANCH  22  23
ATOM     23  C   UNL     1       9.040  10.755  18.242  0.00  0.00    +0.000 C 
BRANCH  23  24
ATOM     24  N   UNL     1      10.280  11.335  18.706  0.00  0.00    +0.000 N 
ATOM     25  C   UNL     1      11.302  11.795  17.928  0.00  0.00    +0.000 A 
ATOM     26  C   UNL     1      12.268  12.198  18.820  0.00  0.00    +0.000 A 
ATOM     27  N   UNL     1      11.858  11.985  20.112  0.00  0.00    +0.000 NA
ATOM     28  C   UNL     1      10.657  11.464  20.013  0.00  0.00    +0.000 A 
ENDBRANCH  23  24
ENDBRANCH  22  23
ENDBRANCH  21  22
ENDBRANCH  19  21
ENDBRANCH   3  19
TORSDOF 7
ENDMDL
MODEL 2
REMARK VINA RESULT:      -8.4      0.518      1.167
REMARK  Name = 
REMARK  7 active torsions:
REMARK  status: ('A' for Active; 'I' for Inactive)
REMARK    1  A    between atoms: C_4  and  C_5
REMARK    2  A    between atoms: C_7  and  N_8
REMARK    3  A    between atoms: N_8  and  C_9
REMARK    4  A    between atoms: C_9  and  C_10
REMARK    5  A    between atoms: C_10  and  C_11
REMARK    6  A    between atoms: C_11  and  N_12
REMARK    7  A    between atoms: C_18  and  C_19
REMARK                            x       y       z     vdW  Elec       q    Type
REMARK                         _______ _______ _______ _____ _____    ______ ____
ROOT
ATOM      1  C   UNL     1       5.108   4.869  17.770  0.00  0.00    +0.000 A 
ATOM      2  C   UNL     1       6.026   5.668  18.421  0.00  0.00    +0.000 A 
ATOM      3  C   UNL     1       7.085   6.153  17.688  0.00  0.00    +0.000 A 
ATOM      4  N   UNL     1       7.252   5.841  16.400  0.00  0.00    +0.000 NA
ATOM      5  C   UNL     1       6.340   5.030  15.833  0.00  0.00    +0.000 A 
ATOM      6  N   UNL     1       5.261   4.539  16.470  0.00  0.00    +0.000 NA
ENDROOT
BRANCH   1  10
ATOM      7  C   UNL     1       1.580   3.410  19.765  0.00  0.00    +0.000 A 
ATOM      8  C   UNL     1       1.886   4.768  19.784  0.00  0.00    +0.000 A 
ATOM      9  C   UNL     1       3.027   5.239  19.127  0.00  0.00    +0.000 A 
ATOM     10  C   UNL     1       3.889   4.367  18.438  0.00  0.00    +0.000 A 
ATOM     11  C   UNL     1       3.549   3.000  18.431  0.00  0.00    +0.000 A 
ATOM     12  C   UNL     1       2.413   2.525  19.089  0.00  0.00    +0.000 A 
ENDBRANCH   1  10
BRANCH   5  13
ATOM     13  C   UNL     1       6.536   4.662  14.424  0.00  0.00    +0.000 A 
ATOM     14  C   UNL     1       5.729   3.719  13.766  0.00  0.00    +0.000 A 
ATOM     15  C   UNL     1       5.954   3.398  12.427  0.00  0.00    +0.000 A 
ATOM     16  C   UNL     1       6.989   4.032  11.765  0.00  0.00    +0.000 A 
ATOM     17  N   UNL     1       7.795   4.941  12.344  0.00  0.00    +0.000 NA
ATOM     18  C   UNL     1       7.547   5.230  13.648  0.00  0.00    +0.000 A 
ENDBRANCH   5  13
BRANCH   3  19
ATOM     19  N   UNL     1       7.954   7.048  18.330  0.00  0.00    +0.000 N 
ATOM     20  H   UNL     1       8.860   6.613  18.483  0.00  0.00    +0.000 HD
BRANCH  19  21
ATOM     21  C   UNL     1       8.019   8.399  17.788  0.00  0.00    +0.000 C 
BRANCH  21  22
ATOM     22  C   UNL     1       8.770   9.322  18.753  0.00  0.00    +0.000 C 
BRANCH  22  23
ATOM     23  C   UNL     1       9.007  10.699  18.132  0.00  0.00    +0.000 C 
BRANCH  23  24
ATOM     24  N   UNL     1      10.207  11.329  18.634  0.00  0.00    +0.000 N 
ATOM     25  C   UNL     1      10.525  11.543  19.943  0.00  0.00    +0.000 A 
ATOM     26  C   UNL     1      11.727  12.209  19.908  0.00  0.00    +0.000 A 
ATOM     27  N   UNL     1      12.138  12.407  18.614  0.00  0.00    +0.000 NA
ATOM     28  C   UNL     1      11.202  11.866  17.867  0.00  0.00    +0.000 A 
ENDBRANCH  23  24
ENDBRANCH  22  23
ENDBRANCH  21  22
ENDBRANCH  19  21
ENDBRANCH   3  19
TORSDOF 7
ENDMDL
MODEL 3
REMARK VINA RESULT:      -8.3      1.199      5.192
REMARK  Name = 
REMARK  7 active torsions:
REMARK  status: ('A' for Active; 'I' for Inactive)
REMARK    1  A    between atoms: C_4  and  C_5
REMARK    2  A    between atoms: C_7  and  N_8
REMARK    3  A    between atoms: N_8  and  C_9
REMARK    4  A    between atoms: C_9  and  C_10
REMARK    5  A    between atoms: C_10  and  C_11
REMARK    6  A    between atoms: C_11  and  N_12
REMARK    7  A    between atoms: C_18  and  C_19
REMARK                            x       y       z     vdW  Elec       q    Type
REMARK                         _______ _______ _______ _____ _____    ______ ____
ROOT
ATOM      1  C   UNL     1       6.122   5.164  15.723  0.00  0.00    +0.000 A 
ATOM      2  C   UNL     1       7.019   6.001  16.356  0.00  0.00    +0.000 A 
ATOM      3  C   UNL     1       6.764   6.338  17.666  0.00  0.00    +0.000 A 
ATOM      4  N   UNL     1       5.672   5.907  18.304  0.00  0.00    +0.000 NA
ATOM      5  C   UNL     1       4.820   5.121  17.620  0.00  0.00    +0.000 A 
ATOM      6  N   UNL     1       5.012   4.721  16.350  0.00  0.00    +0.000 NA
ENDROOT
BRANCH   1  10
ATOM      7  C   UNL     1       6.750   3.769  11.697  0.00  0.00    +0.000 A 
ATOM      8  C   UNL     1       7.634   4.679  12.269  0.00  0.00    +0.000 A 
ATOM      9  C   UNL     1       7.432   5.122  13.580  0.00  0.00    +0.000 A 
ATOM     10  C   UNL     1       6.345   4.669  14.348  0.00  0.00    +0.000 A 
ATOM     11  C   UNL     1       5.472   3.743  13.743  0.00  0.00    +0.000 A 
ATOM     12  C   UNL     1       5.668   3.301  12.433  0.00  0.00    +0.000 A 
ENDBRANCH   1  10
BRANCH   5  13
ATOM     13  C   UNL     1       3.605   4.668  18.310  0.00  0.00    +0.000 A 
ATOM     14  C   UNL     1       2.476   4.190  17.625  0.00  0.00    +0.000 A 
ATOM     15  C   UNL     1       1.341   3.773  18.322  0.00  0.00    +0.000 A 
ATOM     16  C   UNL     1       1.357   3.842  19.703  0.00  0.00    +0.000 A 
ATOM     17  N   UNL     1       2.408   4.294  20.413  0.00  0.00    +0.000 NA
ATOM     18  C   UNL     1       3.496   4.690  19.701  0.00  0.00    +0.000 A 
ENDBRANCH   5  13
BRANCH   3  19
ATOM     19  N   UNL     1       7.732   7.102  18.333  0.00  0.00    +0.000 N 
ATOM     20  H   UNL     1       8.529   6.523  18.582  0.00  0.00    +0.000 HD
BRANCH  19  21
ATOM     21  C   UNL     1       8.082   8.383  17.733  0.00  0.00    +0.000 C 
BRANCH  21  22
ATOM     22  C   UNL     1       8.718   9.303  18.780  0.00  0.00    +0.000 C 
BRANCH  22  23
ATOM     23  C   UNL     1       8.943  10.708  18.220  0.00  0.00    +0.000 C 
BRANCH  23  24
ATOM     24  N   UNL     1      10.194  11.282  18.663  0.00  0.00    +0.000 N 
ATOM     25  C   UNL     1      10.590  11.462  19.956  0.00  0.00    +0.000 A 
ATOM     26  C   UNL     1      11.814  12.081  19.864  0.00  0.00    +0.000 A 
ATOM     27  N   UNL     1      12.161  12.284  18.552  0.00  0.00    +0.000 NA
ATOM     28  C   UNL     1      11.166  11.792  17.851  0.00  0.00    +0.000 A 
ENDBRANCH  23  24
ENDBRANCH  22  23
ENDBRANCH  21  22
ENDBRANCH  19  21
ENDBRANCH   3  19
TORSDOF 7
ENDMDL
MODEL 4
REMARK VINA RESULT:      -8.2      1.347      5.127
REMARK  Name = 
REMARK  7 active torsions:
REMARK  status: ('A' for Active; 'I' for Inactive)
REMARK    1  A    between atoms: C_4  and  C_5
REMARK    2  A    between atoms: C_7  and  N_8
REMARK    3  A    between atoms: N_8  and  C_9
REMARK    4  A    between atoms: C_9  and  C_10
REMARK    5  A    between atoms: C_10  and  C_11
REMARK    6  A    between atoms: C_11  and  N_12
REMARK    7  A    between atoms: C_18  and  C_19
REMARK                            x       y       z     vdW  Elec       q    Type
REMARK                         _______ _______ _______ _____ _____    ______ ____
ROOT
ATOM      1  C   UNL     1       6.414   5.213  16.121  0.00  0.00    +0.000 A 
ATOM      2  C   UNL     1       7.287   6.165  16.606  0.00  0.00    +0.000 A 
ATOM      3  C   UNL     1       7.216   6.474  17.946  0.00  0.00    +0.000 A 
ATOM      4  N   UNL     1       6.315   5.907  18.753  0.00  0.00    +0.000 NA
ATOM      5  C   UNL     1       5.470   5.011  18.210  0.00  0.00    +0.000 A 
ATOM      6  N   UNL     1       5.495   4.631  16.920  0.00  0.00    +0.000 NA
ENDROOT
BRANCH   1  10
ATOM      7  C   UNL     1       6.575   3.796  12.057  0.00  0.00    +0.000 A 
ATOM      8  C   UNL     1       5.532   3.408  12.894  0.00  0.00    +0.000 A 
ATOM      9  C   UNL     1       5.478   3.878  14.210  0.00  0.00    +0.000 A 
ATOM     10  C   UNL     1       6.463   4.743  14.721  0.00  0.00    +0.000 A 
ATOM     11  C   UNL     1       7.501   5.122  13.847  0.00  0.00    +0.000 A 
ATOM     12  C   UNL     1       7.561   4.652  12.534  0.00  0.00    +0.000 A 
ENDBRANCH   1  10
BRANCH   5  13
ATOM     13  C   UNL     1       4.460   4.405  19.089  0.00  0.00    +0.000 A 
ATOM     14  C   UNL     1       3.411   5.142  19.661  0.00  0.00    +0.000 A 
ATOM     15  C   UNL     1       2.476   4.525  20.493  0.00  0.00    +0.000 A 
ATOM     16  C   UNL     1       2.609   3.171  20.739  0.00  0.00    +0.000 A 
ATOM     17  N   UNL     1       3.594   2.414  20.220  0.00  0.00    +0.000 NA
ATOM     18  C   UNL     1       4.486   3.048  19.414  0.00  0.00    +0.000 A 
ENDBRANCH   5  13
BRANCH   3  19
ATOM     19  N   UNL     1       8.173   7.365  18.452  0.00  0.00    +0.000 N 
ATOM     20  H   UNL     1       9.091   6.928  18.463  0.00  0.00    +0.000 HD
BRANCH  19  21
ATOM     21  C   UNL     1       8.158   8.719  17.912  0.00  0.00    +0.000 C 
BRANCH  21  22
ATOM     22  C   UNL     1       8.932   9.666  18.834  0.00  0.00    +0.000 C 
BRANCH  22  23
ATOM     23  C   UNL     1       9.072  11.055  18.211  0.00  0.00    +0.000 C 
BRANCH  23  24
ATOM     24  N   UNL     1      10.346  11.667  18.513  0.00  0.00    +0.000 N 
ATOM     25  C   UNL     1      11.164  12.314  17.634  0.00  0.00    +0.000 A 
ATOM     26  C   UNL     1      12.266  12.669  18.376  0.00  0.00    +0.000 A 
ATOM     27  N   UNL     1      12.135  12.249  19.675  0.00  0.00    +0.000 NA
ATOM     28  C   UNL     1      10.969  11.647  19.729  0.00  0.00    +0.000 A 
ENDBRANCH  23  24
ENDBRANCH  22  23
ENDBRANCH  21  22
ENDBRANCH  19  21
ENDBRANCH   3  19
TORSDOF 7
ENDMDL
MODEL 5
REMARK VINA RESULT:      -8.2      0.648      1.348
REMARK  Name = 
REMARK  7 active torsions:
REMARK  status: ('A' for Active; 'I' for Inactive)
REMARK    1  A    between atoms: C_4  and  C_5
REMARK    2  A    between atoms: C_7  and  N_8
REMARK    3  A    between atoms: N_8  and  C_9
REMARK    4  A    between atoms: C_9  and  C_10
REMARK    5  A    between atoms: C_10  and  C_11
REMARK    6  A    between atoms: C_11  and  N_12
REMARK    7  A    between atoms: C_18  and  C_19
REMARK                            x       y       z     vdW  Elec       q    Type
REMARK                         _______ _______ _______ _____ _____    ______ ____
ROOT
ATOM      1  C   UNL     1       5.222   4.828  17.803  0.00  0.00    +0.000 A 
ATOM      2  C   UNL     1       6.097   5.665  18.467  0.00  0.00    +0.000 A 
ATOM      3  C   UNL     1       7.132   6.212  17.742  0.00  0.00    +0.000 A 
ATOM      4  N   UNL     1       7.317   5.924  16.451  0.00  0.00    +0.000 NA
ATOM      5  C   UNL     1       6.448   5.076  15.871  0.00  0.00    +0.000 A 
ATOM      6  N   UNL     1       5.394   4.524  16.500  0.00  0.00    +0.000 NA
ENDROOT
BRANCH   1  10
ATOM      7  C   UNL     1       1.772   3.156  19.767  0.00  0.00    +0.000 A 
ATOM      8  C   UNL     1       2.187   4.452  20.060  0.00  0.00    +0.000 A 
ATOM      9  C   UNL     1       3.301   4.996  19.413  0.00  0.00    +0.000 A 
ATOM     10  C   UNL     1       4.028   4.258  18.461  0.00  0.00    +0.000 A 
ATOM     11  C   UNL     1       3.580   2.952  18.181  0.00  0.00    +0.000 A 
ATOM     12  C   UNL     1       2.470   2.405  18.828  0.00  0.00    +0.000 A 
ENDBRANCH   1  10
BRANCH   5  13
ATOM     13  C   UNL     1       6.664   4.736  14.458  0.00  0.00    +0.000 A 
ATOM     14  C   UNL     1       7.624   5.381  13.661  0.00  0.00    +0.000 A 
ATOM     15  C   UNL     1       7.792   5.028  12.321  0.00  0.00    +0.000 A 
ATOM     16  C   UNL     1       6.993   4.028  11.800  0.00  0.00    +0.000 A 
ATOM     17  N   UNL     1       6.056   3.377  12.515  0.00  0.00    +0.000 NA
ATOM     18  C   UNL     1       5.920   3.746  13.816  0.00  0.00    +0.000 A 
ENDBRANCH   5  13
BRANCH   3  19
ATOM     19  N   UNL     1       7.953   7.140  18.397  0.00  0.00    +0.000 N 
ATOM     20  H   UNL     1       8.842   6.714  18.645  0.00  0.00    +0.000 HD
BRANCH  19  21
ATOM     21  C   UNL     1       8.068   8.458  17.786  0.00  0.00    +0.000 C 
BRANCH  21  22
ATOM     22  C   UNL     1       8.756   9.431  18.748  0.00  0.00    +0.000 C 
BRANCH  22  23
ATOM     23  C   UNL     1       9.023  10.779  18.077  0.00  0.00    +0.000 C 
BRANCH  23  24
ATOM     24  N   UNL     1      10.200  11.432  18.605  0.00  0.00    +0.000 N 
ATOM     25  C   UNL     1      11.215  11.985  17.880  0.00  0.00    +0.000 A 
ATOM     26  C   UNL     1      12.115  12.430  18.819  0.00  0.00    +0.000 A 
ATOM     27  N   UNL     1      11.673  12.154  20.088  0.00  0.00    +0.000 NA
ATOM     28  C   UNL     1      10.516  11.552  19.928  0.00  0.00    +0.000 A 
ENDBRANCH  23  24
ENDBRANCH  22  23
ENDBRANCH  21  22
ENDBRANCH  19  21
ENDBRANCH   3  19
TORSDOF 7
ENDMDL
MODEL 6
REMARK VINA RESULT:      -8.1      1.181      5.121
REMARK  Name = 
REMARK  7 active torsions:
REMARK  status: ('A' for Active; 'I' for Inactive)
REMARK    1  A    between atoms: C_4  and  C_5
REMARK    2  A    between atoms: C_7  and  N_8
REMARK    3  A    between atoms: N_8  and  C_9
REMARK    4  A    between atoms: C_9  and  C_10
REMARK    5  A    between atoms: C_10  and  C_11
REMARK    6  A    between atoms: C_11  and  N_12
REMARK    7  A    between atoms: C_18  and  C_19
REMARK                            x       y       z     vdW  Elec       q    Type
REMARK                         _______ _______ _______ _____ _____    ______ ____
ROOT
ATOM      1  C   UNL     1       5.969   4.970  15.601  0.00  0.00    +0.000 A 
ATOM      2  C   UNL     1       6.787   5.838  16.296  0.00  0.00    +0.000 A 
ATOM      3  C   UNL     1       6.475   6.093  17.613  0.00  0.00    +0.000 A 
ATOM      4  N   UNL     1       5.402   5.556  18.200  0.00  0.00    +0.000 NA
ATOM      5  C   UNL     1       4.627   4.745  17.457  0.00  0.00    +0.000 A 
ATOM      6  N   UNL     1       4.880   4.419  16.176  0.00  0.00    +0.000 NA
ENDROOT
BRANCH   1  10
ATOM      7  C   UNL     1       6.841   3.722  11.572  0.00  0.00    +0.000 A 
ATOM      8  C   UNL     1       5.732   3.210  12.240  0.00  0.00    +0.000 A 
ATOM      9  C   UNL     1       5.447   3.625  13.545  0.00  0.00    +0.000 A 
ATOM     10  C   UNL     1       6.261   4.558  14.213  0.00  0.00    +0.000 A 
ATOM     11  C   UNL     1       7.372   5.062  13.507  0.00  0.00    +0.000 A 
ATOM     12  C   UNL     1       7.662   4.648  12.206  0.00  0.00    +0.000 A 
ENDBRANCH   1  10
BRANCH   5  13
ATOM     13  C   UNL     1       3.431   4.173  18.092  0.00  0.00    +0.000 A 
ATOM     14  C   UNL     1       2.942   2.895  17.777  0.00  0.00    +0.000 A 
ATOM     15  C   UNL     1       1.799   2.395  18.403  0.00  0.00    +0.000 A 
ATOM     16  C   UNL     1       1.164   3.187  19.340  0.00  0.00    +0.000 A 
ATOM     17  N   UNL     1       1.586   4.420  19.681  0.00  0.00    +0.000 NA
ATOM     18  C   UNL     1       2.701   4.875  19.052  0.00  0.00    +0.000 A 
ENDBRANCH   5  13
BRANCH   3  19
ATOM     19  N   UNL     1       7.368   6.893  18.341  0.00  0.00    +0.000 N 
ATOM     20  H   UNL     1       8.061   6.314  18.808  0.00  0.00    +0.000 HD
BRANCH  19  21
ATOM     21  C   UNL     1       7.919   8.053  17.652  0.00  0.00    +0.000 C 
BRANCH  21  22
ATOM     22  C   UNL     1       8.594   8.994  18.655  0.00  0.00    +0.000 C 
BRANCH  22  23
ATOM     23  C   UNL     1       8.765  10.397  18.070  0.00  0.00    +0.000 C 
BRANCH  23  24
ATOM     24  N   UNL     1       9.910  11.086  18.622  0.00  0.00    +0.000 N 
ATOM     25  C   UNL     1      10.968  11.589  17.923  0.00  0.00    +0.000 A 
ATOM     26  C   UNL     1      11.811  12.099  18.881  0.00  0.00    +0.000 A 
ATOM     27  N   UNL     1      11.293  11.909  20.137  0.00  0.00    +0.000 NA
ATOM     28  C   UNL     1      10.147  11.296  19.950  0.00  0.00    +0.000 A 
ENDBRANCH  23  24
ENDBRANCH  22  23
ENDBRANCH  21  22
ENDBRANCH  19  21
ENDBRANCH   3  19
TORSDOF 7
ENDMDL
MODEL 7
REMARK VINA RESULT:      -8.1      1.292      5.215
REMARK  Name = 
REMARK  7 active torsions:
REMARK  status: ('A' for Active; 'I' for Inactive)
REMARK    1  A    between atoms: C_4  and  C_5
REMARK    2  A    between atoms: C_7  and  N_8
REMARK    3  A    between atoms: N_8  and  C_9
REMARK    4  A    between atoms: C_9  and  C_10
REMARK    5  A    between atoms: C_10  and  C_11
REMARK    6  A    between atoms: C_11  and  N_12
REMARK    7  A    between atoms: C_18  and  C_19
REMARK                            x       y       z     vdW  Elec       q    Type
REMARK                         _______ _______ _______ _____ _____    ______ ____
ROOT
ATOM      1  C   UNL     1       6.051   4.817  15.536  0.00  0.00    +0.000 A 
ATOM      2  C   UNL     1       6.867   5.686  16.232  0.00  0.00    +0.000 A 
ATOM      3  C   UNL     1       6.587   5.899  17.563  0.00  0.00    +0.000 A 
ATOM      4  N   UNL     1       5.543   5.321  18.164  0.00  0.00    +0.000 NA
ATOM      5  C   UNL     1       4.767   4.511  17.421  0.00  0.00    +0.000 A 
ATOM      6  N   UNL     1       4.991   4.226  16.125  0.00  0.00    +0.000 NA
ENDROOT
BRANCH   1  10
ATOM      7  C   UNL     1       6.839   3.698  11.452  0.00  0.00    +0.000 A 
ATOM      8  C   UNL     1       5.768   3.134  12.139  0.00  0.00    +0.000 A 
ATOM      9  C   UNL     1       5.510   3.507  13.462  0.00  0.00    +0.000 A 
ATOM     10  C   UNL     1       6.314   4.449  14.129  0.00  0.00    +0.000 A 
ATOM     11  C   UNL     1       7.386   5.007  13.404  0.00  0.00    +0.000 A 
ATOM     12  C   UNL     1       7.650   4.634  12.085  0.00  0.00    +0.000 A 
ENDBRANCH   1  10
BRANCH   5  13
ATOM     13  C   UNL     1       3.603   3.895  18.072  0.00  0.00    +0.000 A 
ATOM     14  C   UNL     1       2.478   4.633  18.473  0.00  0.00    +0.000 A 
ATOM     15  C   UNL     1       1.396   4.006  19.091  0.00  0.00    +0.000 A 
ATOM     16  C   UNL     1       1.459   2.641  19.298  0.00  0.00    +0.000 A 
ATOM     17  N   UNL     1       2.511   1.882  18.938  0.00  0.00    +0.000 NA
ATOM     18  C   UNL     1       3.546   2.526  18.337  0.00  0.00    +0.000 A 
ENDBRANCH   5  13
BRANCH   3  19
ATOM     19  N   UNL     1       7.481   6.700  18.287  0.00  0.00    +0.000 N 
ATOM     20  H   UNL     1       8.314   6.170  18.531  0.00  0.00    +0.000 HD
BRANCH  19  21
ATOM     21  C   UNL     1       7.749   8.029  17.754  0.00  0.00    +0.000 C 
BRANCH  21  22
ATOM     22  C   UNL     1       8.698   8.792  18.683  0.00  0.00    +0.000 C 
BRANCH  22  23
ATOM     23  C   UNL     1       8.918  10.225  18.197  0.00  0.00    +0.000 C 
BRANCH  23  24
ATOM     24  N   UNL     1       9.666  11.018  19.145  0.00  0.00    +0.000 N 
ATOM     25  C   UNL     1       9.400  11.156  20.476  0.00  0.00    +0.000 A 
ATOM     26  C   UNL     1      10.348  12.040  20.934  0.00  0.00    +0.000 A 
ATOM     27  N   UNL     1      11.172  12.443  19.915  0.00  0.00    +0.000 NA
ATOM     28  C   UNL     1      10.738  11.811  18.848  0.00  0.00    +0.000 A 
ENDBRANCH  23  24
ENDBRANCH  22  23
ENDBRANCH  21  22
ENDBRANCH  19  21
ENDBRANCH   3  19
TORSDOF 7
ENDMDL
MODEL 8
REMARK VINA RESULT:      -8.1      1.292      5.174
REMARK  Name = 
REMARK  7 active torsions:
REMARK  status: ('A' for Active; 'I' for Inactive)
REMARK    1  A    between atoms: C_4  and  C_5
REMARK    2  A    between atoms: C_7  and  N_8
REMARK    3  A    between atoms: N_8  and  C_9
REMARK    4  A    between atoms: C_9  and  C_10
REMARK    5  A    between atoms: C_10  and  C_11
REMARK    6  A    between atoms: C_11  and  N_12
REMARK    7  A    between atoms: C_18  and  C_19
REMARK                            x       y       z     vdW  Elec       q    Type
REMARK                         _______ _______ _______ _____ _____    ______ ____
ROOT
ATOM      1  C   UNL     1       6.207   4.977  15.719  0.00  0.00    +0.000 A 
ATOM      2  C   UNL     1       7.045   5.863  16.366  0.00  0.00    +0.000 A 
ATOM      3  C   UNL     1       6.803   6.116  17.697  0.00  0.00    +0.000 A 
ATOM      4  N   UNL     1       5.776   5.560  18.345  0.00  0.00    +0.000 NA
ATOM      5  C   UNL     1       4.976   4.731  17.649  0.00  0.00    +0.000 A 
ATOM      6  N   UNL     1       5.162   4.407  16.356  0.00  0.00    +0.000 NA
ENDROOT
BRANCH   1  10
ATOM      7  C   UNL     1       6.828   3.827  11.616  0.00  0.00    +0.000 A 
ATOM      8  C   UNL     1       7.675   4.752  12.220  0.00  0.00    +0.000 A 
ATOM      9  C   UNL     1       7.476   5.115  13.556  0.00  0.00    +0.000 A 
ATOM     10  C   UNL     1       6.428   4.566  14.317  0.00  0.00    +0.000 A 
ATOM     11  C   UNL     1       5.593   3.628  13.679  0.00  0.00    +0.000 A 
ATOM     12  C   UNL     1       5.785   3.266  12.344  0.00  0.00    +0.000 A 
ENDBRANCH   1  10
BRANCH   5  13
ATOM     13  C   UNL     1       3.830   4.138  18.351  0.00  0.00    +0.000 A 
ATOM     14  C   UNL     1       3.976   3.233  19.415  0.00  0.00    +0.000 A 
ATOM     15  C   UNL     1       2.858   2.692  20.050  0.00  0.00    +0.000 A 
ATOM     16  C   UNL     1       1.604   3.071  19.608  0.00  0.00    +0.000 A 
ATOM     17  N   UNL     1       1.403   3.932  18.593  0.00  0.00    +0.000 NA
ATOM     18  C   UNL     1       2.514   4.440  17.997  0.00  0.00    +0.000 A 
ENDBRANCH   5  13
BRANCH   3  19
ATOM     19  N   UNL     1       7.720   6.935  18.371  0.00  0.00    +0.000 N 
ATOM     20  H   UNL     1       8.555   6.408  18.612  0.00  0.00    +0.000 HD
BRANCH  19  21
ATOM     21  C   UNL     1       7.983   8.244  17.787  0.00  0.00    +0.000 C 
BRANCH  21  22
ATOM     22  C   UNL     1       8.710   9.139  18.795  0.00  0.00    +0.000 C 
BRANCH  22  23
ATOM     23  C   UNL     1       9.139  10.460  18.155  0.00  0.00    +0.000 C 
BRANCH  23  24
ATOM     24  N   UNL     1      10.035  11.215  19.002  0.00  0.00    +0.000 N 
ATOM     25  C   UNL     1      11.213  11.792  18.625  0.00  0.00    +0.000 A 
ATOM     26  C   UNL     1      11.717  12.345  19.779  0.00  0.00    +0.000 A 
ATOM     27  N   UNL     1      10.878  12.110  20.839  0.00  0.00    +0.000 NA
ATOM     28  C   UNL     1       9.873  11.427  20.341  0.00  0.00    +0.000 A 
ENDBRANCH  23  24
ENDBRANCH  22  23
ENDBRANCH  21  22
ENDBRANCH  19  21
ENDBRANCH   3  19
TORSDOF 7
ENDMDL
MODEL 9
REMARK VINA RESULT:      -8.0      1.019      1.058
REMARK  Name = 
REMARK  7 active torsions:
REMARK  status: ('A' for Active; 'I' for Inactive)
REMARK    1  A    between atoms: C_4  and  C_5
REMARK    2  A    between atoms: C_7  and  N_8
REMARK    3  A    between atoms: N_8  and  C_9
REMARK    4  A    between atoms: C_9  and  C_10
REMARK    5  A    between atoms: C_10  and  C_11
REMARK    6  A    between atoms: C_11  and  N_12
REMARK    7  A    between atoms: C_18  and  C_19
REMARK                            x       y       z     vdW  Elec       q    Type
REMARK                         _______ _______ _______ _____ _____    ______ ____
ROOT
ATOM      1  C   UNL     1       4.520   4.805  17.462  0.00  0.00    +0.000 A 
ATOM      2  C   UNL     1       5.088   5.950  17.983  0.00  0.00    +0.000 A 
ATOM      3  C   UNL     1       5.972   6.644  17.188  0.00  0.00    +0.000 A 
ATOM      4  N   UNL     1       6.306   6.218  15.967  0.00  0.00    +0.000 NA
ATOM      5  C   UNL     1       5.742   5.076  15.531  0.00  0.00    +0.000 A 
ATOM      6  N   UNL     1       4.847   4.357  16.232  0.00  0.00    +0.000 NA
ENDROOT
BRANCH   1  10
ATOM      7  C   UNL     1       1.511   2.601  19.616  0.00  0.00    +0.000 A 
ATOM      8  C   UNL     1       1.189   3.251  18.428  0.00  0.00    +0.000 A 
ATOM      9  C   UNL     1       2.171   3.957  17.726  0.00  0.00    +0.000 A 
ATOM     10  C   UNL     1       3.495   4.033  18.194  0.00  0.00    +0.000 A 
ATOM     11  C   UNL     1       3.791   3.359  19.396  0.00  0.00    +0.000 A 
ATOM     12  C   UNL     1       2.813   2.656  20.102  0.00  0.00    +0.000 A 
ENDBRANCH   1  10
BRANCH   5  13
ATOM     13  C   UNL     1       6.128   4.590  14.199  0.00  0.00    +0.000 A 
ATOM     14  C   UNL     1       5.367   3.651  13.484  0.00  0.00    +0.000 A 
ATOM     15  C   UNL     1       5.773   3.215  12.222  0.00  0.00    +0.000 A 
ATOM     16  C   UNL     1       6.943   3.730  11.695  0.00  0.00    +0.000 A 
ATOM     17  N   UNL     1       7.714   4.629  12.335  0.00  0.00    +0.000 NA
ATOM     18  C   UNL     1       7.287   5.033  13.561  0.00  0.00    +0.000 A 
ENDBRANCH   5  13
BRANCH   3  19
ATOM     19  N   UNL     1       6.463   7.860  17.684  0.00  0.00    +0.000 N 
ATOM     20  H   UNL     1       5.946   8.139  18.514  0.00  0.00    +0.000 HD
BRANCH  19  21
ATOM     21  C   UNL     1       7.910   7.979  17.810  0.00  0.00    +0.000 C 
BRANCH  21  22
ATOM     22  C   UNL     1       8.318   9.454  17.872  0.00  0.00    +0.000 C 
BRANCH  22  23
ATOM     23  C   UNL     1       9.061   9.770  19.170  0.00  0.00    +0.000 C 
BRANCH  23  24
ATOM     24  N   UNL     1       9.921  10.926  19.044  0.00  0.00    +0.000 N 
ATOM     25  C   UNL     1      10.334  11.506  17.881  0.00  0.00    +0.000 A 
ATOM     26  C   UNL     1      11.166  12.527  18.275  0.00  0.00    +0.000 A 
ATOM     27  N   UNL     1      11.270  12.572  19.642  0.00  0.00    +0.000 NA
ATOM     28  C   UNL     1      10.509  11.595  20.080  0.00  0.00    +0.000 A 
ENDBRANCH  23  24
ENDBRANCH  22  23
ENDBRANCH  21  22
ENDBRANCH  19  21
ENDBRANCH   3  19
TORSDOF 7
ENDMDL
