MODEL 1
REMARK VINA RESULT:      -8.8      0.000      0.000
REMARK  Name = 
REMARK  4 active torsions:
REMARK  status: ('A' for Active; 'I' for Inactive)
REMARK    1  A    between atoms: C_1  and  C_2
REMARK    2  A    between atoms: C_9  and  C_11
REMARK    3  A    between atoms: C_11  and  N_12
REMARK    4  A    between atoms: N_15  and  C_16
REMARK                            x       y       z     vdW  Elec       q    Type
REMARK                         _______ _______ _______ _____ _____    ______ ____
ROOT
ATOM      1  C   UNL     1      10.972  15.088  17.223  0.00  0.00    +0.000 C 
ATOM      2  C   UNL     1       9.693  15.150  18.069  0.00  0.00    +0.000 C 
ATOM      3  C   UNL     1      10.022  15.203  19.581  0.00  0.00    +0.000 C 
ATOM      4  C   UNL     1      10.717  13.930  20.097  0.00  0.00    +0.000 C 
ATOM      5  C   UNL     1      10.058  12.720  19.527  0.00  0.00    +0.000 A 
ATOM      6  S   UNL     1      10.329  11.129  20.073  0.00  0.00    +0.000 S 
ATOM      7  C   UNL     1       9.228  10.560  18.889  0.00  0.00    +0.000 A 
ATOM      8  N   UNL     1       9.020   9.208  18.927  0.00  0.00    +0.000 N 
ATOM      9  C   UNL     1       8.120   8.579  18.099  0.00  0.00    +0.000 C 
ATOM     10  O   UNL     1       7.498   9.088  17.174  0.00  0.00    +0.000 OA
ATOM     11  N   UNL     1       8.700  11.470  18.106  0.00  0.00    +0.000 NA
ATOM     12  C   UNL     1       9.179  12.714  18.462  0.00  0.00    +0.000 A 
ATOM     13  C   UNL     1       8.745  13.963  17.756  0.00  0.00    +0.000 C 
ATOM     14  H   UNL     1       9.464   8.672  19.660  0.00  0.00    +0.000 HD
ENDROOT
BRANCH   9  15
ATOM     15  C   UNL     1       7.971   7.075  18.375  0.00  0.00    +0.000 C 
BRANCH  15  16
ATOM     16  N   UNL     1       7.462   6.297  17.214  0.00  0.00    +0.000 NA
ATOM     17  C   UNL     1       7.369   4.839  17.511  0.00  0.00    +0.000 C 
ATOM     18  C   UNL     1       6.322   4.431  18.574  0.00  0.00    +0.000 C 
ATOM     19  N   UNL     1       5.005   4.987  18.232  0.00  0.00    +0.000 N 
ATOM     20  C   UNL     1       4.978   6.423  17.932  0.00  0.00    +0.000 C 
ATOM     21  C   UNL     1       6.078   6.758  16.883  0.00  0.00    +0.000 C 
BRANCH  19  22
ATOM     22  C   UNL     1       3.857   4.220  18.251  0.00  0.00    +0.000 A 
ATOM     23  C   UNL     1       3.893   2.825  18.400  0.00  0.00    +0.000 A 
ATOM     24  C   UNL     1       2.723   2.057  18.441  0.00  0.00    +0.000 A 
ATOM     25  C   UNL     1       1.490   2.684  18.337  0.00  0.00    +0.000 A 
ATOM     26  F   UNL     1       0.367   1.957  18.381  0.00  0.00    +0.000 F 
ATOM     27  C   UNL     1       1.410   4.058  18.193  0.00  0.00    +0.000 A 
ATOM     28  C   UNL     1       2.585   4.814  18.149  0.00  0.00    +0.000 A 
ENDBRANCH  19  22
ENDBRANCH  15  16
ENDBRANCH   9  15
TORSDOF 3
ENDMDL
MODEL 2
REMARK VINA RESULT:      -8.6      1.395      2.039
REMARK  Name = 
REMARK  4 active torsions:
REMARK  status: ('A' for Active; 'I' for Inactive)
REMARK    1  A    between atoms: C_1  and  C_2
REMARK    2  A    between atoms: C_9  and  C_11
REMARK    3  A    between atoms: C_11  and  N_12
REMARK    4  A    between atoms: N_15  and  C_16
REMARK                            x       y       z     vdW  Elec       q    Type
REMARK                         _______ _______ _______ _____ _____    ______ ____
ROOT
ATOM      1  C   UNL     1       9.225  13.795  21.771  0.00  0.00    +0.000 C 
ATOM      2  C   UNL     1      10.486  13.384  21.001  0.00  0.00    +0.000 C 
ATOM      3  C   UNL     1      10.643  14.208  19.698  0.00  0.00    +0.000 C 
ATOM      4  C   UNL     1       9.515  13.955  18.680  0.00  0.00    +0.000 C 
ATOM      5  C   UNL     1       9.217  12.496  18.599  0.00  0.00    +0.000 A 
ATOM      6  S   UNL     1       8.255  11.777  17.390  0.00  0.00    +0.000 S 
ATOM      7  C   UNL     1       8.506  10.252  18.132  0.00  0.00    +0.000 A 
ATOM      8  N   UNL     1       7.927   9.207  17.465  0.00  0.00    +0.000 N 
ATOM      9  C   UNL     1       8.076   7.901  17.872  0.00  0.00    +0.000 C 
ATOM     10  O   UNL     1       8.614   7.513  18.902  0.00  0.00    +0.000 OA
ATOM     11  N   UNL     1       9.230  10.253  19.226  0.00  0.00    +0.000 NA
ATOM     12  C   UNL     1       9.635  11.542  19.505  0.00  0.00    +0.000 A 
ATOM     13  C   UNL     1      10.494  11.864  20.691  0.00  0.00    +0.000 C 
ATOM     14  H   UNL     1       7.465   9.393  16.585  0.00  0.00    +0.000 HD
ENDROOT
BRANCH   9  15
ATOM     15  C   UNL     1       7.426   6.880  16.925  0.00  0.00    +0.000 C 
BRANCH  15  16
ATOM     16  N   UNL     1       7.435   5.486  17.445  0.00  0.00    +0.000 NA
ATOM     17  C   UNL     1       6.752   5.373  18.766  0.00  0.00    +0.000 C 
ATOM     18  C   UNL     1       5.228   5.639  18.764  0.00  0.00    +0.000 C 
ATOM     19  N   UNL     1       4.566   4.803  17.753  0.00  0.00    +0.000 N 
ATOM     20  C   UNL     1       5.151   4.847  16.407  0.00  0.00    +0.000 C 
ATOM     21  C   UNL     1       6.686   4.604  16.497  0.00  0.00    +0.000 C 
BRANCH  19  22
ATOM     22  C   UNL     1       3.431   4.069  18.035  0.00  0.00    +0.000 A 
ATOM     23  C   UNL     1       3.269   2.745  17.597  0.00  0.00    +0.000 A 
ATOM     24  C   UNL     1       2.125   2.001  17.907  0.00  0.00    +0.000 A 
ATOM     25  C   UNL     1       1.121   2.577  18.670  0.00  0.00    +0.000 A 
ATOM     26  F   UNL     1       0.027   1.868  18.976  0.00  0.00    +0.000 F 
ATOM     27  C   UNL     1       1.243   3.878  19.126  0.00  0.00    +0.000 A 
ATOM     28  C   UNL     1       2.388   4.614  18.807  0.00  0.00    +0.000 A 
ENDBRANCH  19  22
ENDBRANCH  15  16
ENDBRANCH   9  15
TORSDOF 3
ENDMDL
MODEL 3
REMARK VINA RESULT:      -8.2      1.494      2.261
REMARK  Name = 
REMARK  4 active torsions:
REMARK  status: ('A' for Active; 'I' for Inactive)
REMARK    1  A    between atoms: C_1  and  C_2
REMARK    2  A    between atoms: C_9  and  C_11
REMARK    3  A    between atoms: C_11  and  N_12
REMARK    4  A    between atoms: N_15  and  C_16
REMARK                            x       y       z     vdW  Elec       q    Type
REMARK                         _______ _______ _______ _____ _____    ______ ____
ROOT
ATOM      1  C   UNL     1       9.163  13.658  21.800  0.00  0.00    +0.000 C 
ATOM      2  C   UNL     1      10.440  13.232  21.065  0.00  0.00    +0.000 C 
ATOM      3  C   UNL     1      10.636  14.047  19.763  0.00  0.00    +0.000 C 
ATOM      4  C   UNL     1       9.533  13.798  18.717  0.00  0.00    +0.000 C 
ATOM      5  C   UNL     1       9.225  12.342  18.636  0.00  0.00    +0.000 A 
ATOM      6  S   UNL     1       8.288  11.623  17.407  0.00  0.00    +0.000 S 
ATOM      7  C   UNL     1       8.507  10.100  18.163  0.00  0.00    +0.000 A 
ATOM      8  N   UNL     1       7.937   9.056  17.488  0.00  0.00    +0.000 N 
ATOM      9  C   UNL     1       8.065   7.752  17.905  0.00  0.00    +0.000 C 
ATOM     10  O   UNL     1       8.573   7.365  18.951  0.00  0.00    +0.000 OA
ATOM     11  N   UNL     1       9.203  10.102  19.275  0.00  0.00    +0.000 NA
ATOM     12  C   UNL     1       9.612  11.389  19.558  0.00  0.00    +0.000 A 
ATOM     13  C   UNL     1      10.442  11.711  20.763  0.00  0.00    +0.000 C 
ATOM     14  H   UNL     1       7.499   9.241  16.596  0.00  0.00    +0.000 HD
ENDROOT
BRANCH   9  15
ATOM     15  C   UNL     1       7.431   6.731  16.948  0.00  0.00    +0.000 C 
BRANCH  15  16
ATOM     16  N   UNL     1       6.030   7.054  16.565  0.00  0.00    +0.000 NA
ATOM     17  C   UNL     1       5.395   5.959  15.777  0.00  0.00    +0.000 C 
ATOM     18  C   UNL     1       5.157   4.631  16.533  0.00  0.00    +0.000 C 
ATOM     19  N   UNL     1       4.420   4.881  17.781  0.00  0.00    +0.000 N 
ATOM     20  C   UNL     1       4.967   5.935  18.644  0.00  0.00    +0.000 C 
ATOM     21  C   UNL     1       5.209   7.224  17.804  0.00  0.00    +0.000 C 
BRANCH  19  22
ATOM     22  C   UNL     1       3.320   4.131  18.147  0.00  0.00    +0.000 A 
ATOM     23  C   UNL     1       2.410   4.568  19.123  0.00  0.00    +0.000 A 
ATOM     24  C   UNL     1       1.285   3.812  19.472  0.00  0.00    +0.000 A 
ATOM     25  C   UNL     1       1.051   2.602  18.838  0.00  0.00    +0.000 A 
ATOM     26  F   UNL     1      -0.028   1.877  19.161  0.00  0.00    +0.000 F 
ATOM     27  C   UNL     1       1.920   2.137  17.866  0.00  0.00    +0.000 A 
ATOM     28  C   UNL     1       3.043   2.898  17.528  0.00  0.00    +0.000 A 
ENDBRANCH  19  22
ENDBRANCH  15  16
ENDBRANCH   9  15
TORSDOF 3
ENDMDL
MODEL 4
REMARK VINA RESULT:      -8.2      7.805     10.274
REMARK  Name = 
REMARK  4 active torsions:
REMARK  status: ('A' for Active; 'I' for Inactive)
REMARK    1  A    between atoms: C_1  and  C_2
REMARK    2  A    between atoms: C_9  and  C_11
REMARK    3  A    between atoms: C_11  and  N_12
REMARK    4  A    between atoms: N_15  and  C_16
REMARK                            x       y       z     vdW  Elec       q    Type
REMARK                         _______ _______ _______ _____ _____    ______ ____
ROOT
ATOM      1  C   UNL     1       5.167   4.452  14.918  0.00  0.00    +0.000 C 
ATOM      2  C   UNL     1       6.095   5.431  15.649  0.00  0.00    +0.000 C 
ATOM      3  C   UNL     1       6.852   4.731  16.805  0.00  0.00    +0.000 C 
ATOM      4  C   UNL     1       5.923   4.230  17.926  0.00  0.00    +0.000 C 
ATOM      5  C   UNL     1       4.894   5.263  18.237  0.00  0.00    +0.000 A 
ATOM      6  S   UNL     1       3.874   5.225  19.602  0.00  0.00    +0.000 S 
ATOM      7  C   UNL     1       3.151   6.686  19.072  0.00  0.00    +0.000 A 
ATOM      8  N   UNL     1       2.196   7.174  19.922  0.00  0.00    +0.000 N 
ATOM      9  C   UNL     1       1.554   8.370  19.699  0.00  0.00    +0.000 C 
ATOM     10  O   UNL     1       1.646   9.074  18.700  0.00  0.00    +0.000 OA
ATOM     11  N   UNL     1       3.600   7.177  17.942  0.00  0.00    +0.000 NA
ATOM     12  C   UNL     1       4.597   6.359  17.451  0.00  0.00    +0.000 A 
ATOM     13  C   UNL     1       5.319   6.666  16.175  0.00  0.00    +0.000 C 
ATOM     14  H   UNL     1       2.036   6.691  20.796  0.00  0.00    +0.000 HD
ENDROOT
BRANCH   9  15
ATOM     15  C   UNL     1       0.592   8.776  20.826  0.00  0.00    +0.000 C 
BRANCH  15  16
ATOM     16  N   UNL     1       1.173   9.746  21.793  0.00  0.00    +0.000 NA
ATOM     17  C   UNL     1       1.011  11.157  21.340  0.00  0.00    +0.000 C 
ATOM     18  C   UNL     1      -0.441  11.687  21.283  0.00  0.00    +0.000 C 
ATOM     19  N   UNL     1      -1.116  11.464  22.569  0.00  0.00    +0.000 N 
ATOM     20  C   UNL     1      -1.031  10.099  23.105  0.00  0.00    +0.000 C 
ATOM     21  C   UNL     1       0.453   9.628  23.099  0.00  0.00    +0.000 C 
BRANCH  19  22
ATOM     22  C   UNL     1      -1.836  12.457  23.204  0.00  0.00    +0.000 A 
ATOM     23  C   UNL     1      -1.317  13.747  23.396  0.00  0.00    +0.000 A 
ATOM     24  C   UNL     1      -2.062  14.755  24.020  0.00  0.00    +0.000 A 
ATOM     25  C   UNL     1      -3.349  14.482  24.459  0.00  0.00    +0.000 A 
ATOM     26  F   UNL     1      -4.070  15.443  25.051  0.00  0.00    +0.000 F 
ATOM     27  C   UNL     1      -3.899  13.223  24.285  0.00  0.00    +0.000 A 
ATOM     28  C   UNL     1      -3.145  12.223  23.664  0.00  0.00    +0.000 A 
ENDBRANCH  19  22
ENDBRANCH  15  16
ENDBRANCH   9  15
TORSDOF 3
ENDMDL
MODEL 5
REMARK VINA RESULT:      -8.0      7.888     10.303
REMARK  Name = 
REMARK  4 active torsions:
REMARK  status: ('A' for Active; 'I' for Inactive)
REMARK    1  A    between atoms: C_1  and  C_2
REMARK    2  A    between atoms: C_9  and  C_11
REMARK    3  A    between atoms: C_11  and  N_12
REMARK    4  A    between atoms: N_15  and  C_16
REMARK                            x       y       z     vdW  Elec       q    Type
REMARK                         _______ _______ _______ _____ _____    ______ ____
ROOT
ATOM      1  C   UNL     1       5.574   4.053  15.416  0.00  0.00    +0.000 C 
ATOM      2  C   UNL     1       6.436   5.038  16.217  0.00  0.00    +0.000 C 
ATOM      3  C   UNL     1       6.771   4.478  17.621  0.00  0.00    +0.000 C 
ATOM      4  C   UNL     1       5.531   4.295  18.515  0.00  0.00    +0.000 C 
ATOM      5  C   UNL     1       4.630   5.476  18.388  0.00  0.00    +0.000 A 
ATOM      6  S   UNL     1       3.315   5.800  19.423  0.00  0.00    +0.000 S 
ATOM      7  C   UNL     1       2.977   7.212  18.513  0.00  0.00    +0.000 A 
ATOM      8  N   UNL     1       1.931   7.949  18.997  0.00  0.00    +0.000 N 
ATOM      9  C   UNL     1       1.556   9.149  18.440  0.00  0.00    +0.000 C 
ATOM     10  O   UNL     1       1.996   9.647  17.410  0.00  0.00    +0.000 OA
ATOM     11  N   UNL     1       3.758   7.438  17.483  0.00  0.00    +0.000 NA
ATOM     12  C   UNL     1       4.706   6.438  17.400  0.00  0.00    +0.000 A 
ATOM     13  C   UNL     1       5.756   6.427  16.330  0.00  0.00    +0.000 C 
ATOM     14  H   UNL     1       1.491   7.654  19.858  0.00  0.00    +0.000 HD
ENDROOT
BRANCH   9  15
ATOM     15  C   UNL     1       0.423   9.857  19.199  0.00  0.00    +0.000 C 
BRANCH  15  16
ATOM     16  N   UNL     1       0.674  11.303  19.442  0.00  0.00    +0.000 NA
ATOM     17  C   UNL     1      -0.493  12.149  19.060  0.00  0.00    +0.000 C 
ATOM     18  C   UNL     1      -1.772  11.961  19.909  0.00  0.00    +0.000 C 
ATOM     19  N   UNL     1      -1.460  12.106  21.339  0.00  0.00    +0.000 N 
ATOM     20  C   UNL     1      -0.331  11.305  21.829  0.00  0.00    +0.000 C 
ATOM     21  C   UNL     1       0.903  11.523  20.905  0.00  0.00    +0.000 C 
BRANCH  19  22
ATOM     22  C   UNL     1      -2.217  12.897  22.180  0.00  0.00    +0.000 A 
ATOM     23  C   UNL     1      -2.973  12.358  23.233  0.00  0.00    +0.000 A 
ATOM     24  C   UNL     1      -3.719  13.169  24.095  0.00  0.00    +0.000 A 
ATOM     25  C   UNL     1      -3.715  14.544  23.915  0.00  0.00    +0.000 A 
ATOM     26  F   UNL     1      -4.421  15.327  24.740  0.00  0.00    +0.000 F 
ATOM     27  C   UNL     1      -2.979  15.117  22.891  0.00  0.00    +0.000 A 
ATOM     28  C   UNL     1      -2.241  14.296  22.034  0.00  0.00    +0.000 A 
ENDBRANCH  19  22
ENDBRANCH  15  16
ENDBRANCH   9  15
TORSDOF 3
ENDMDL
MODEL 6
REMARK VINA RESULT:      -7.8      7.532     10.238
REMARK  Name = 
REMARK  4 active torsions:
REMARK  status: ('A' for Active; 'I' for Inactive)
REMARK    1  A    between atoms: C_1  and  C_2
REMARK    2  A    between atoms: C_9  and  C_11
REMARK    3  A    between atoms: C_11  and  N_12
REMARK    4  A    between atoms: N_15  and  C_16
REMARK                            x       y       z     vdW  Elec       q    Type
REMARK                         _______ _______ _______ _____ _____    ______ ____
ROOT
ATOM      1  C   UNL     1       7.243   4.403  17.052  0.00  0.00    +0.000 C 
ATOM      2  C   UNL     1       5.937   3.981  16.366  0.00  0.00    +0.000 C 
ATOM      3  C   UNL     1       5.620   4.891  15.154  0.00  0.00    +0.000 C 
ATOM      4  C   UNL     1       5.348   6.355  15.547  0.00  0.00    +0.000 C 
ATOM      5  C   UNL     1       4.478   6.406  16.756  0.00  0.00    +0.000 A 
ATOM      6  S   UNL     1       3.709   7.815  17.330  0.00  0.00    +0.000 S 
ATOM      7  C   UNL     1       3.044   6.900  18.618  0.00  0.00    +0.000 A 
ATOM      8  N   UNL     1       2.217   7.615  19.440  0.00  0.00    +0.000 N 
ATOM      9  C   UNL     1       1.539   7.035  20.487  0.00  0.00    +0.000 C 
ATOM     10  O   UNL     1       1.664   5.885  20.891  0.00  0.00    +0.000 OA
ATOM     11  N   UNL     1       3.378   5.632  18.658  0.00  0.00    +0.000 NA
ATOM     12  C   UNL     1       4.210   5.343  17.596  0.00  0.00    +0.000 A 
ATOM     13  C   UNL     1       4.750   3.964  17.363  0.00  0.00    +0.000 C 
ATOM     14  H   UNL     1       2.016   8.577  19.203  0.00  0.00    +0.000 HD
ENDROOT
BRANCH   9  15
ATOM     15  C   UNL     1       0.590   7.998  21.218  0.00  0.00    +0.000 C 
BRANCH  15  16
ATOM     16  N   UNL     1       1.253   9.232  21.719  0.00  0.00    +0.000 NA
ATOM     17  C   UNL     1       0.868  10.437  20.930  0.00  0.00    +0.000 C 
ATOM     18  C   UNL     1      -0.611  10.874  21.042  0.00  0.00    +0.000 C 
ATOM     19  N   UNL     1      -0.994  11.022  22.454  0.00  0.00    +0.000 N 
ATOM     20  C   UNL     1      -0.672   9.883  23.323  0.00  0.00    +0.000 C 
ATOM     21  C   UNL     1       0.820   9.484  23.129  0.00  0.00    +0.000 C 
BRANCH  19  22
ATOM     22  C   UNL     1      -1.667  12.133  22.921  0.00  0.00    +0.000 A 
ATOM     23  C   UNL     1      -3.037  12.102  23.226  0.00  0.00    +0.000 A 
ATOM     24  C   UNL     1      -3.707  13.228  23.721  0.00  0.00    +0.000 A 
ATOM     25  C   UNL     1      -3.006  14.407  23.922  0.00  0.00    +0.000 A 
ATOM     26  F   UNL     1      -3.639  15.485  24.401  0.00  0.00    +0.000 F 
ATOM     27  C   UNL     1      -1.653  14.478  23.638  0.00  0.00    +0.000 A 
ATOM     28  C   UNL     1      -0.995  13.349  23.141  0.00  0.00    +0.000 A 
ENDBRANCH  19  22
ENDBRANCH  15  16
ENDBRANCH   9  15
TORSDOF 3
ENDMDL
MODEL 7
REMARK VINA RESULT:      -7.7      1.411      1.965
REMARK  Name = 
REMARK  4 active torsions:
REMARK  status: ('A' for Active; 'I' for Inactive)
REMARK    1  A    between atoms: C_1  and  C_2
REMARK    2  A    between atoms: C_9  and  C_11
REMARK    3  A    between atoms: C_11  and  N_12
REMARK    4  A    between atoms: N_15  and  C_16
REMARK                            x       y       z     vdW  Elec       q    Type
REMARK                         _______ _______ _______ _____ _____    ______ ____
ROOT
ATOM      1  C   UNL     1       9.152  14.695  21.474  0.00  0.00    +0.000 C 
ATOM      2  C   UNL     1      10.381  14.326  20.634  0.00  0.00    +0.000 C 
ATOM      3  C   UNL     1      10.375  15.068  19.274  0.00  0.00    +0.000 C 
ATOM      4  C   UNL     1       9.199  14.664  18.366  0.00  0.00    +0.000 C 
ATOM      5  C   UNL     1       9.011  13.185  18.400  0.00  0.00    +0.000 A 
ATOM      6  S   UNL     1       8.022  12.316  17.319  0.00  0.00    +0.000 S 
ATOM      7  C   UNL     1       8.445  10.868  18.132  0.00  0.00    +0.000 A 
ATOM      8  N   UNL     1       7.902   9.740  17.580  0.00  0.00    +0.000 N 
ATOM      9  C   UNL     1       8.184   8.480  18.055  0.00  0.00    +0.000 C 
ATOM     10  O   UNL     1       8.826   8.204  19.061  0.00  0.00    +0.000 OA
ATOM     11  N   UNL     1       9.247  10.997  19.163  0.00  0.00    +0.000 NA
ATOM     12  C   UNL     1       9.569  12.328  19.328  0.00  0.00    +0.000 A 
ATOM     13  C   UNL     1      10.485  12.793  20.420  0.00  0.00    +0.000 C 
ATOM     14  H   UNL     1       7.363   9.831  16.730  0.00  0.00    +0.000 HD
ENDROOT
BRANCH   9  15
ATOM     15  C   UNL     1       7.548   7.352  17.228  0.00  0.00    +0.000 C 
BRANCH  15  16
ATOM     16  N   UNL     1       7.766   5.993  17.794  0.00  0.00    +0.000 NA
ATOM     17  C   UNL     1       7.089   5.816  19.111  0.00  0.00    +0.000 C 
ATOM     18  C   UNL     1       5.543   5.840  19.084  0.00  0.00    +0.000 C 
ATOM     19  N   UNL     1       5.035   4.878  18.095  0.00  0.00    +0.000 N 
ATOM     20  C   UNL     1       5.626   4.971  16.754  0.00  0.00    +0.000 C 
ATOM     21  C   UNL     1       7.179   4.975  16.868  0.00  0.00    +0.000 C 
BRANCH  19  22
ATOM     22  C   UNL     1       4.024   3.985  18.390  0.00  0.00    +0.000 A 
ATOM     23  C   UNL     1       3.961   3.308  19.618  0.00  0.00    +0.000 A 
ATOM     24  C   UNL     1       2.920   2.421  19.917  0.00  0.00    +0.000 A 
ATOM     25  C   UNL     1       1.918   2.203  18.984  0.00  0.00    +0.000 A 
ATOM     26  F   UNL     1       0.916   1.361  19.267  0.00  0.00    +0.000 F 
ATOM     27  C   UNL     1       1.940   2.854  17.763  0.00  0.00    +0.000 A 
ATOM     28  C   UNL     1       2.987   3.735  17.473  0.00  0.00    +0.000 A 
ENDBRANCH  19  22
ENDBRANCH  15  16
ENDBRANCH   9  15
TORSDOF 3
ENDMDL
MODEL 8
REMARK VINA RESULT:      -7.7      6.837     11.249
REMARK  Name = 
REMARK  4 active torsions:
REMARK  status: ('A' for Active; 'I' for Inactive)
REMARK    1  A    between atoms: C_1  and  C_2
REMARK    2  A    between atoms: C_9  and  C_11
REMARK    3  A    between atoms: C_11  and  N_12
REMARK    4  A    between atoms: N_15  and  C_16
REMARK                            x       y       z     vdW  Elec       q    Type
REMARK                         _______ _______ _______ _____ _____    ______ ____
ROOT
ATOM      1  C   UNL     1       4.267   1.960  19.823  0.00  0.00    +0.000 C 
ATOM      2  C   UNL     1       2.951   2.072  19.043  0.00  0.00    +0.000 C 
ATOM      3  C   UNL     1       3.208   2.406  17.552  0.00  0.00    +0.000 C 
ATOM      4  C   UNL     1       3.855   3.788  17.342  0.00  0.00    +0.000 C 
ATOM      5  C   UNL     1       3.202   4.797  18.223  0.00  0.00    +0.000 A 
ATOM      6  S   UNL     1       3.418   6.482  18.080  0.00  0.00    +0.000 S 
ATOM      7  C   UNL     1       2.365   6.706  19.414  0.00  0.00    +0.000 A 
ATOM      8  N   UNL     1       2.130   8.018  19.723  0.00  0.00    +0.000 N 
ATOM      9  C   UNL     1       1.259   8.395  20.718  0.00  0.00    +0.000 C 
ATOM     10  O   UNL     1       0.691   7.654  21.512  0.00  0.00    +0.000 OA
ATOM     11  N   UNL     1       1.890   5.615  19.966  0.00  0.00    +0.000 NA
ATOM     12  C   UNL     1       2.375   4.513  19.291  0.00  0.00    +0.000 A 
ATOM     13  C   UNL     1       1.998   3.115  19.680  0.00  0.00    +0.000 C 
ATOM     14  H   UNL     1       2.529   8.732  19.129  0.00  0.00    +0.000 HD
ENDROOT
BRANCH   9  15
ATOM     15  C   UNL     1       1.070   9.915  20.832  0.00  0.00    +0.000 C 
BRANCH  15  16
ATOM     16  N   UNL     1       0.077  10.472  19.875  0.00  0.00    +0.000 NA
ATOM     17  C   UNL     1      -0.660  11.638  20.441  0.00  0.00    +0.000 C 
ATOM     18  C   UNL     1       0.184  12.907  20.706  0.00  0.00    +0.000 C 
ATOM     19  N   UNL     1       0.926  13.288  19.496  0.00  0.00    +0.000 N 
ATOM     20  C   UNL     1       1.700  12.216  18.859  0.00  0.00    +0.000 C 
ATOM     21  C   UNL     1       0.793  10.966  18.657  0.00  0.00    +0.000 C 
BRANCH  19  22
ATOM     22  C   UNL     1       0.943  14.585  19.022  0.00  0.00    +0.000 A 
ATOM     23  C   UNL     1      -0.223  15.361  18.931  0.00  0.00    +0.000 A 
ATOM     24  C   UNL     1      -0.194  16.683  18.470  0.00  0.00    +0.000 A 
ATOM     25  C   UNL     1       1.015  17.250  18.097  0.00  0.00    +0.000 A 
ATOM     26  F   UNL     1       1.052  18.516  17.662  0.00  0.00    +0.000 F 
ATOM     27  C   UNL     1       2.189  16.520  18.176  0.00  0.00    +0.000 A 
ATOM     28  C   UNL     1       2.147  15.200  18.633  0.00  0.00    +0.000 A 
ENDBRANCH  19  22
ENDBRANCH  15  16
ENDBRANCH   9  15
TORSDOF 3
ENDMDL
MODEL 9
REMARK VINA RESULT:      -7.7      7.496     10.257
REMARK  Name = 
REMARK  4 active torsions:
REMARK  status: ('A' for Active; 'I' for Inactive)
REMARK    1  A    between atoms: C_1  and  C_2
REMARK    2  A    between atoms: C_9  and  C_11
REMARK    3  A    between atoms: C_11  and  N_12
REMARK    4  A    between atoms: N_15  and  C_16
REMARK                            x       y       z     vdW  Elec       q    Type
REMARK                         _______ _______ _______ _____ _____    ______ ____
ROOT
ATOM      1  C   UNL     1       5.616   4.026  15.004  0.00  0.00    +0.000 C 
ATOM      2  C   UNL     1       6.509   5.069  15.689  0.00  0.00    +0.000 C 
ATOM      3  C   UNL     1       7.042   4.547  17.046  0.00  0.00    +0.000 C 
ATOM      4  C   UNL     1       5.930   4.306  18.084  0.00  0.00    +0.000 C 
ATOM      5  C   UNL     1       4.954   5.432  18.059  0.00  0.00    +0.000 A 
ATOM      6  S   UNL     1       3.756   5.694  19.242  0.00  0.00    +0.000 S 
ATOM      7  C   UNL     1       3.229   7.073  18.371  0.00  0.00    +0.000 A 
ATOM      8  N   UNL     1       2.208   7.756  18.973  0.00  0.00    +0.000 N 
ATOM      9  C   UNL     1       1.700   8.925  18.457  0.00  0.00    +0.000 C 
ATOM     10  O   UNL     1       1.984   9.433  17.378  0.00  0.00    +0.000 OA
ATOM     11  N   UNL     1       3.868   7.329  17.253  0.00  0.00    +0.000 NA
ATOM     12  C   UNL     1       4.855   6.384  17.063  0.00  0.00    +0.000 A 
ATOM     13  C   UNL     1       5.767   6.418  15.875  0.00  0.00    +0.000 C 
ATOM     14  H   UNL     1       1.892   7.447  19.882  0.00  0.00    +0.000 HD
ENDROOT
BRANCH   9  15
ATOM     15  C   UNL     1       0.627   9.577  19.343  0.00  0.00    +0.000 C 
BRANCH  15  16
ATOM     16  N   UNL     1       0.189  10.918  18.870  0.00  0.00    +0.000 NA
ATOM     17  C   UNL     1      -1.118  11.324  19.459  0.00  0.00    +0.000 C 
ATOM     18  C   UNL     1      -1.124  11.574  20.986  0.00  0.00    +0.000 C 
ATOM     19  N   UNL     1      -0.062  12.523  21.351  0.00  0.00    +0.000 N 
ATOM     20  C   UNL     1       1.276  12.212  20.831  0.00  0.00    +0.000 C 
ATOM     21  C   UNL     1       1.192  11.942  19.300  0.00  0.00    +0.000 C 
BRANCH  19  22
ATOM     22  C   UNL     1      -0.294  13.603  22.178  0.00  0.00    +0.000 A 
ATOM     23  C   UNL     1       0.340  14.841  21.986  0.00  0.00    +0.000 A 
ATOM     24  C   UNL     1       0.081  15.938  22.815  0.00  0.00    +0.000 A 
ATOM     25  C   UNL     1      -0.828  15.810  23.854  0.00  0.00    +0.000 A 
ATOM     26  F   UNL     1      -1.086  16.858  24.647  0.00  0.00    +0.000 F 
ATOM     27  C   UNL     1      -1.479  14.609  24.075  0.00  0.00    +0.000 A 
ATOM     28  C   UNL     1      -1.210  13.518  23.243  0.00  0.00    +0.000 A 
ENDBRANCH  19  22
ENDBRANCH  15  16
ENDBRANCH   9  15
TORSDOF 3
ENDMDL
