MODEL 1
REMARK VINA RESULT:      -8.3      0.000      0.000
REMARK  Name = 
REMARK  3 active torsions:
REMARK  status: ('A' for Active; 'I' for Inactive)
REMARK    1  A    between atoms: S_2  and  C_4
REMARK    2  A    between atoms: S_2  and  N_11
REMARK    3  A    between atoms: C_21  and  C_22
REMARK                            x       y       z     vdW  Elec       q    Type
REMARK                         _______ _______ _______ _____ _____    ______ ____
ROOT
ATOM      1  N   UNL     1       5.319   5.354  17.698  0.00  0.00    +0.000 NA
ATOM      2  C   UNL     1       6.538   4.487  17.781  0.00  0.00    +0.000 C 
ATOM      3  C   UNL     1       7.687   5.242  18.516  0.00  0.00    +0.000 C 
ATOM      4  C   UNL     1       7.635   6.678  18.123  0.00  0.00    +0.000 A 
ATOM      5  N   UNL     1       8.431   7.677  18.587  0.00  0.00    +0.000 N 
ATOM      6  N   UNL     1       7.998   8.895  18.209  0.00  0.00    +0.000 NA
ATOM      7  C   UNL     1       6.898   8.643  17.491  0.00  0.00    +0.000 A 
ATOM      8  C   UNL     1       6.641   7.265  17.360  0.00  0.00    +0.000 A 
ATOM      9  C   UNL     1       5.454   6.521  16.812  0.00  0.00    +0.000 C 
ATOM     10  C   UNL     1       5.552   5.963  15.371  0.00  0.00    +0.000 C 
ATOM     11  C   UNL     1       5.878   4.437  15.324  0.00  0.00    +0.000 C 
ATOM     12  C   UNL     1       6.987   4.131  16.340  0.00  0.00    +0.000 C 
ATOM     13  H   UNL     1       9.231   7.620  19.210  0.00  0.00    +0.000 HD
ENDROOT
BRANCH   1  15
ATOM     14  O   UNL     1       4.024   4.333  19.609  0.00  0.00    +0.000 OA
ATOM     15  S   UNL     1       3.833   4.945  18.308  0.00  0.00    +0.000 S 
ATOM     16  O   UNL     1       3.064   4.287  17.275  0.00  0.00    +0.000 OA
BRANCH  15  17
ATOM     17  C   UNL     1       3.089   6.541  18.580  0.00  0.00    +0.000 A 
ATOM     18  C   UNL     1       2.956   7.445  17.518  0.00  0.00    +0.000 A 
ATOM     19  C   UNL     1       2.277   8.649  17.723  0.00  0.00    +0.000 A 
ATOM     20  C   UNL     1       1.730   8.934  18.976  0.00  0.00    +0.000 A 
ATOM     21 CL   UNL     1       0.857  10.397  19.218  0.00  0.00    +0.000 Cl
ATOM     22  C   UNL     1       1.865   8.032  20.032  0.00  0.00    +0.000 A 
ATOM     23  C   UNL     1       2.543   6.830  19.835  0.00  0.00    +0.000 A 
ENDBRANCH  15  17
ENDBRANCH   1  15
BRANCH  11  24
ATOM     24  C   UNL     1       6.196   3.825  13.981  0.00  0.00    +0.000 C 
ATOM     25  C   UNL     1       5.340   3.516  13.004  0.00  0.00    +0.000 C 
ATOM     26 CL   UNL     1       5.850   2.746  11.558  0.00  0.00    +0.000 Cl
ENDBRANCH  11  24
TORSDOF 3
ENDMDL
MODEL 2
REMARK VINA RESULT:      -8.1      2.466      6.750
REMARK  Name = 
REMARK  3 active torsions:
REMARK  status: ('A' for Active; 'I' for Inactive)
REMARK    1  A    between atoms: S_2  and  C_4
REMARK    2  A    between atoms: S_2  and  N_11
REMARK    3  A    between atoms: C_21  and  C_22
REMARK                            x       y       z     vdW  Elec       q    Type
REMARK                         _______ _______ _______ _____ _____    ______ ____
ROOT
ATOM      1  N   UNL     1       3.660   5.218  19.117  0.00  0.00    +0.000 NA
ATOM      2  C   UNL     1       3.038   5.794  20.352  0.00  0.00    +0.000 C 
ATOM      3  C   UNL     1       2.130   4.732  21.043  0.00  0.00    +0.000 C 
ATOM      4  C   UNL     1       1.447   3.936  19.986  0.00  0.00    +0.000 A 
ATOM      5  N   UNL     1       0.614   2.879  20.174  0.00  0.00    +0.000 N 
ATOM      6  N   UNL     1       0.332   2.237  19.025  0.00  0.00    +0.000 NA
ATOM      7  C   UNL     1       1.014   2.915  18.095  0.00  0.00    +0.000 A 
ATOM      8  C   UNL     1       1.699   4.024  18.628  0.00  0.00    +0.000 A 
ATOM      9  C   UNL     1       2.716   4.952  18.021  0.00  0.00    +0.000 C 
ATOM     10  C   UNL     1       2.227   6.334  17.523  0.00  0.00    +0.000 C 
ATOM     11  C   UNL     1       2.531   7.490  18.526  0.00  0.00    +0.000 C 
ATOM     12  C   UNL     1       2.186   7.024  19.947  0.00  0.00    +0.000 C 
ATOM     13  H   UNL     1       0.254   2.495  21.043  0.00  0.00    +0.000 HD
ENDROOT
BRANCH   1  15
ATOM     14  O   UNL     1       5.801   3.946  19.525  0.00  0.00    +0.000 OA
ATOM     15  S   UNL     1       5.292   5.122  18.845  0.00  0.00    +0.000 S 
ATOM     16  O   UNL     1       5.883   6.424  19.054  0.00  0.00    +0.000 OA
BRANCH  15  17
ATOM     17  C   UNL     1       5.360   4.790  17.095  0.00  0.00    +0.000 A 
ATOM     18  C   UNL     1       5.538   5.841  16.187  0.00  0.00    +0.000 A 
ATOM     19  C   UNL     1       5.694   5.555  14.828  0.00  0.00    +0.000 A 
ATOM     20  C   UNL     1       5.682   4.228  14.391  0.00  0.00    +0.000 A 
ATOM     21 CL   UNL     1       5.917   3.871  12.725  0.00  0.00    +0.000 Cl
ATOM     22  C   UNL     1       5.503   3.183  15.299  0.00  0.00    +0.000 A 
ATOM     23  C   UNL     1       5.345   3.462  16.656  0.00  0.00    +0.000 A 
ENDBRANCH  15  17
ENDBRANCH   1  15
BRANCH  11  24
ATOM     24  C   UNL     1       1.927   8.845  18.244  0.00  0.00    +0.000 C 
ATOM     25  C   UNL     1       1.155   9.577  19.051  0.00  0.00    +0.000 C 
ATOM     26 CL   UNL     1       0.476  11.071  18.551  0.00  0.00    +0.000 Cl
ENDBRANCH  11  24
TORSDOF 3
ENDMDL
MODEL 3
REMARK VINA RESULT:      -7.6      0.412      1.082
REMARK  Name = 
REMARK  3 active torsions:
REMARK  status: ('A' for Active; 'I' for Inactive)
REMARK    1  A    between atoms: S_2  and  C_4
REMARK    2  A    between atoms: S_2  and  N_11
REMARK    3  A    between atoms: C_21  and  C_22
REMARK                            x       y       z     vdW  Elec       q    Type
REMARK                         _______ _______ _______ _____ _____    ______ ____
ROOT
ATOM      1  N   UNL     1       5.200   5.275  17.701  0.00  0.00    +0.000 NA
ATOM      2  C   UNL     1       6.422   4.409  17.690  0.00  0.00    +0.000 C 
ATOM      3  C   UNL     1       7.607   5.139  18.391  0.00  0.00    +0.000 C 
ATOM      4  C   UNL     1       7.534   6.588  18.052  0.00  0.00    +0.000 A 
ATOM      5  N   UNL     1       8.352   7.572  18.509  0.00  0.00    +0.000 N 
ATOM      6  N   UNL     1       7.901   8.801  18.197  0.00  0.00    +0.000 NA
ATOM      7  C   UNL     1       6.764   8.572  17.528  0.00  0.00    +0.000 A 
ATOM      8  C   UNL     1       6.502   7.199  17.363  0.00  0.00    +0.000 A 
ATOM      9  C   UNL     1       5.288   6.472  16.850  0.00  0.00    +0.000 C 
ATOM     10  C   UNL     1       5.312   5.965  15.388  0.00  0.00    +0.000 C 
ATOM     11  C   UNL     1       5.636   4.443  15.271  0.00  0.00    +0.000 C 
ATOM     12  C   UNL     1       6.796   4.104  16.217  0.00  0.00    +0.000 C 
ATOM     13  H   UNL     1       9.184   7.495  19.088  0.00  0.00    +0.000 HD
ENDROOT
BRANCH   1  15
ATOM     14  O   UNL     1       3.994   4.324  19.704  0.00  0.00    +0.000 OA
ATOM     15  S   UNL     1       3.748   4.841  18.371  0.00  0.00    +0.000 S 
ATOM     16  O   UNL     1       2.987   4.086  17.402  0.00  0.00    +0.000 OA
BRANCH  15  17
ATOM     17  C   UNL     1       2.938   6.418  18.560  0.00  0.00    +0.000 A 
ATOM     18  C   UNL     1       2.442   6.808  19.811  0.00  0.00    +0.000 A 
ATOM     19  C   UNL     1       1.904   8.089  19.967  0.00  0.00    +0.000 A 
ATOM     20  C   UNL     1       1.877   8.968  18.882  0.00  0.00    +0.000 A 
ATOM     21 CL   UNL     1       1.254  10.559  19.082  0.00  0.00    +0.000 Cl
ATOM     22  C   UNL     1       2.370   8.575  17.637  0.00  0.00    +0.000 A 
ATOM     23  C   UNL     1       2.906   7.298  17.474  0.00  0.00    +0.000 A 
ENDBRANCH  15  17
ENDBRANCH   1  15
BRANCH  11  24
ATOM     24  C   UNL     1       5.884   3.879  13.892  0.00  0.00    +0.000 C 
ATOM     25  C   UNL     1       6.918   4.126  13.085  0.00  0.00    +0.000 C 
ATOM     26 CL   UNL     1       7.017   3.466  11.504  0.00  0.00    +0.000 Cl
ENDBRANCH  11  24
TORSDOF 3
ENDMDL
MODEL 4
REMARK VINA RESULT:      -7.5      2.552      3.120
REMARK  Name = 
REMARK  3 active torsions:
REMARK  status: ('A' for Active; 'I' for Inactive)
REMARK    1  A    between atoms: S_2  and  C_4
REMARK    2  A    between atoms: S_2  and  N_11
REMARK    3  A    between atoms: C_21  and  C_22
REMARK                            x       y       z     vdW  Elec       q    Type
REMARK                         _______ _______ _______ _____ _____    ______ ____
ROOT
ATOM      1  N   UNL     1       4.658   5.999  17.723  0.00  0.00    +0.000 NA
ATOM      2  C   UNL     1       5.329   4.711  18.091  0.00  0.00    +0.000 C 
ATOM      3  C   UNL     1       6.574   4.989  18.987  0.00  0.00    +0.000 C 
ATOM      4  C   UNL     1       7.232   6.235  18.506  0.00  0.00    +0.000 A 
ATOM      5  N   UNL     1       8.316   6.846  19.053  0.00  0.00    +0.000 N 
ATOM      6  N   UNL     1       8.539   8.064  18.527  0.00  0.00    +0.000 NA
ATOM      7  C   UNL     1       7.561   8.216  17.626  0.00  0.00    +0.000 A 
ATOM      8  C   UNL     1       6.732   7.081  17.532  0.00  0.00    +0.000 A 
ATOM      9  C   UNL     1       5.431   6.856  16.811  0.00  0.00    +0.000 C 
ATOM     10  C   UNL     1       5.476   6.115  15.452  0.00  0.00    +0.000 C 
ATOM     11  C   UNL     1       5.082   4.609  15.561  0.00  0.00    +0.000 C 
ATOM     12  C   UNL     1       5.773   3.998  16.788  0.00  0.00    +0.000 C 
ATOM     13  H   UNL     1       8.904   6.536  19.821  0.00  0.00    +0.000 HD
ENDROOT
BRANCH   1  15
ATOM     14  O   UNL     1       2.289   6.131  16.863  0.00  0.00    +0.000 OA
ATOM     15  S   UNL     1       3.076   6.363  18.059  0.00  0.00    +0.000 S 
ATOM     16  O   UNL     1       3.020   7.625  18.761  0.00  0.00    +0.000 OA
BRANCH  15  17
ATOM     17  C   UNL     1       2.641   5.092  19.230  0.00  0.00    +0.000 A 
ATOM     18  C   UNL     1       2.855   5.294  20.599  0.00  0.00    +0.000 A 
ATOM     19  C   UNL     1       2.414   4.333  21.513  0.00  0.00    +0.000 A 
ATOM     20  C   UNL     1       1.755   3.190  21.055  0.00  0.00    +0.000 A 
ATOM     21 CL   UNL     1       1.173   2.026  22.180  0.00  0.00    +0.000 Cl
ATOM     22  C   UNL     1       1.545   2.990  19.690  0.00  0.00    +0.000 A 
ATOM     23  C   UNL     1       1.985   3.944  18.773  0.00  0.00    +0.000 A 
ENDBRANCH  15  17
ENDBRANCH   1  15
BRANCH  11  24
ATOM     24  C   UNL     1       5.281   3.738  14.344  0.00  0.00    +0.000 C 
ATOM     25  C   UNL     1       6.191   3.885  13.377  0.00  0.00    +0.000 C 
ATOM     26 CL   UNL     1       6.238   2.852  12.008  0.00  0.00    +0.000 Cl
ENDBRANCH  11  24
TORSDOF 3
ENDMDL
MODEL 5
REMARK VINA RESULT:      -7.5      3.176      6.309
REMARK  Name = 
REMARK  3 active torsions:
REMARK  status: ('A' for Active; 'I' for Inactive)
REMARK    1  A    between atoms: S_2  and  C_4
REMARK    2  A    between atoms: S_2  and  N_11
REMARK    3  A    between atoms: C_21  and  C_22
REMARK                            x       y       z     vdW  Elec       q    Type
REMARK                         _______ _______ _______ _____ _____    ______ ____
ROOT
ATOM      1  N   UNL     1       3.747   4.644  18.552  0.00  0.00    +0.000 NA
ATOM      2  C   UNL     1       3.671   5.347  19.872  0.00  0.00    +0.000 C 
ATOM      3  C   UNL     1       2.867   4.489  20.895  0.00  0.00    +0.000 C 
ATOM      4  C   UNL     1       1.749   3.820  20.173  0.00  0.00    +0.000 A 
ATOM      5  N   UNL     1       0.852   2.944  20.696  0.00  0.00    +0.000 N 
ATOM      6  N   UNL     1       0.104   2.348  19.749  0.00  0.00    +0.000 NA
ATOM      7  C   UNL     1       0.553   2.869  18.601  0.00  0.00    +0.000 A 
ATOM      8  C   UNL     1       1.557   3.836  18.803  0.00  0.00    +0.000 A 
ATOM      9  C   UNL     1       2.466   4.544  17.835  0.00  0.00    +0.000 C 
ATOM     10  C   UNL     1       2.091   5.985  17.412  0.00  0.00    +0.000 C 
ATOM     11  C   UNL     1       2.902   7.079  18.175  0.00  0.00    +0.000 C 
ATOM     12  C   UNL     1       2.963   6.710  19.664  0.00  0.00    +0.000 C 
ATOM     13  H   UNL     1       0.734   2.650  21.662  0.00  0.00    +0.000 HD
ENDROOT
BRANCH   1  15
ATOM     14  O   UNL     1       4.875   4.038  16.377  0.00  0.00    +0.000 OA
ATOM     15  S   UNL     1       5.158   4.234  17.786  0.00  0.00    +0.000 S 
ATOM     16  O   UNL     1       5.841   3.223  18.562  0.00  0.00    +0.000 OA
BRANCH  15  17
ATOM     17  C   UNL     1       6.109   5.735  17.928  0.00  0.00    +0.000 A 
ATOM     18  C   UNL     1       7.219   5.786  18.781  0.00  0.00    +0.000 A 
ATOM     19  C   UNL     1       8.015   6.934  18.803  0.00  0.00    +0.000 A 
ATOM     20  C   UNL     1       7.706   8.011  17.970  0.00  0.00    +0.000 A 
ATOM     21 CL   UNL     1       8.710   9.408  17.964  0.00  0.00    +0.000 Cl
ATOM     22  C   UNL     1       6.599   7.957  17.122  0.00  0.00    +0.000 A 
ATOM     23  C   UNL     1       5.799   6.816  17.097  0.00  0.00    +0.000 A 
ENDBRANCH  15  17
ENDBRANCH   1  15
BRANCH  11  24
ATOM     24  C   UNL     1       2.485   8.519  17.995  0.00  0.00    +0.000 C 
ATOM     25  C   UNL     1       1.507   9.169  18.629  0.00  0.00    +0.000 C 
ATOM     26 CL   UNL     1       1.100  10.793  18.253  0.00  0.00    +0.000 Cl
ENDBRANCH  11  24
TORSDOF 3
ENDMDL
MODEL 6
REMARK VINA RESULT:      -7.3      7.229     10.262
REMARK  Name = 
REMARK  3 active torsions:
REMARK  status: ('A' for Active; 'I' for Inactive)
REMARK    1  A    between atoms: S_2  and  C_4
REMARK    2  A    between atoms: S_2  and  N_11
REMARK    3  A    between atoms: C_21  and  C_22
REMARK                            x       y       z     vdW  Elec       q    Type
REMARK                         _______ _______ _______ _____ _____    ______ ____
ROOT
ATOM      1  N   UNL     1      -0.024  12.723  20.799  0.00  0.00    +0.000 NA
ATOM      2  C   UNL     1      -0.108  12.010  19.485  0.00  0.00    +0.000 C 
ATOM      3  C   UNL     1      -1.448  12.356  18.768  0.00  0.00    +0.000 C 
ATOM      4  C   UNL     1      -2.519  12.463  19.797  0.00  0.00    +0.000 A 
ATOM      5  N   UNL     1      -3.818  12.803  19.587  0.00  0.00    +0.000 N 
ATOM      6  N   UNL     1      -4.483  13.025  20.736  0.00  0.00    +0.000 NA
ATOM      7  C   UNL     1      -3.567  12.819  21.689  0.00  0.00    +0.000 A 
ATOM      8  C   UNL     1      -2.323  12.418  21.166  0.00  0.00    +0.000 A 
ATOM      9  C   UNL     1      -0.977  12.250  21.816  0.00  0.00    +0.000 C 
ATOM     10  C   UNL     1      -0.530  10.817  22.197  0.00  0.00    +0.000 C 
ATOM     11  C   UNL     1       0.463  10.191  21.169  0.00  0.00    +0.000 C 
ATOM     12  C   UNL     1      -0.037  10.483  19.748  0.00  0.00    +0.000 C 
ATOM     13  H   UNL     1      -4.301  12.969  18.708  0.00  0.00    +0.000 HD
ENDROOT
BRANCH   1  15
ATOM     14  O   UNL     1       2.459  13.092  21.053  0.00  0.00    +0.000 OA
ATOM     15  S   UNL     1       1.188  13.769  21.224  0.00  0.00    +0.000 S 
ATOM     16  O   UNL     1       0.842  14.412  22.472  0.00  0.00    +0.000 OA
BRANCH  15  17
ATOM     17  C   UNL     1       1.077  15.008  19.948  0.00  0.00    +0.000 A 
ATOM     18  C   UNL     1      -0.129  15.688  19.731  0.00  0.00    +0.000 A 
ATOM     19  C   UNL     1      -0.173  16.729  18.799  0.00  0.00    +0.000 A 
ATOM     20  C   UNL     1       0.984  17.087  18.103  0.00  0.00    +0.000 A 
ATOM     21 CL   UNL     1       0.942  18.395  16.987  0.00  0.00    +0.000 Cl
ATOM     22  C   UNL     1       2.183  16.406  18.319  0.00  0.00    +0.000 A 
ATOM     23  C   UNL     1       2.232  15.366  19.247  0.00  0.00    +0.000 A 
ENDBRANCH  15  17
ENDBRANCH   1  15
BRANCH  11  24
ATOM     24  C   UNL     1       0.811   8.730  21.326  0.00  0.00    +0.000 C 
ATOM     25  C   UNL     1       1.541   7.973  20.504  0.00  0.00    +0.000 C 
ATOM     26 CL   UNL     1       1.781   6.297  20.781  0.00  0.00    +0.000 Cl
ENDBRANCH  11  24
TORSDOF 3
ENDMDL
MODEL 7
REMARK VINA RESULT:      -7.2      5.166      9.283
REMARK  Name = 
REMARK  3 active torsions:
REMARK  status: ('A' for Active; 'I' for Inactive)
REMARK    1  A    between atoms: S_2  and  C_4
REMARK    2  A    between atoms: S_2  and  N_11
REMARK    3  A    between atoms: C_21  and  C_22
REMARK                            x       y       z     vdW  Elec       q    Type
REMARK                         _______ _______ _______ _____ _____    ______ ____
ROOT
ATOM      1  N   UNL     1       0.243  10.575  20.787  0.00  0.00    +0.000 NA
ATOM      2  C   UNL     1      -0.848  10.677  19.766  0.00  0.00    +0.000 C 
ATOM      3  C   UNL     1      -0.267  11.157  18.402  0.00  0.00    +0.000 C 
ATOM      4  C   UNL     1       0.801  12.159  18.672  0.00  0.00    +0.000 A 
ATOM      5  N   UNL     1       1.589  12.775  17.752  0.00  0.00    +0.000 N 
ATOM      6  N   UNL     1       2.601  13.459  18.318  0.00  0.00    +0.000 NA
ATOM      7  C   UNL     1       2.438  13.258  19.631  0.00  0.00    +0.000 A 
ATOM      8  C   UNL     1       1.297  12.486  19.922  0.00  0.00    +0.000 A 
ATOM      9  C   UNL     1       0.815  11.865  21.205  0.00  0.00    +0.000 C 
ATOM     10  C   UNL     1      -0.298  12.600  21.992  0.00  0.00    +0.000 C 
ATOM     11  C   UNL     1      -1.715  11.988  21.766  0.00  0.00    +0.000 C 
ATOM     12  C   UNL     1      -1.902  11.695  20.271  0.00  0.00    +0.000 C 
ATOM     13  H   UNL     1       1.547  12.726  16.738  0.00  0.00    +0.000 HD
ENDROOT
BRANCH   1  15
ATOM     14  O   UNL     1      -0.601   8.512  21.972  0.00  0.00    +0.000 OA
ATOM     15  S   UNL     1       0.629   9.192  21.614  0.00  0.00    +0.000 S 
ATOM     16  O   UNL     1       1.632   9.501  22.608  0.00  0.00    +0.000 OA
BRANCH  15  17
ATOM     17  C   UNL     1       1.424   8.214  20.354  0.00  0.00    +0.000 A 
ATOM     18  C   UNL     1       1.839   8.811  19.157  0.00  0.00    +0.000 A 
ATOM     19  C   UNL     1       2.553   8.055  18.223  0.00  0.00    +0.000 A 
ATOM     20  C   UNL     1       2.855   6.719  18.496  0.00  0.00    +0.000 A 
ATOM     21 CL   UNL     1       3.770   5.799  17.367  0.00  0.00    +0.000 Cl
ATOM     22  C   UNL     1       2.438   6.126  19.688  0.00  0.00    +0.000 A 
ATOM     23  C   UNL     1       1.724   6.874  20.623  0.00  0.00    +0.000 A 
ENDBRANCH  15  17
ENDBRANCH   1  15
BRANCH  11  24
ATOM     24  C   UNL     1      -2.903  12.738  22.319  0.00  0.00    +0.000 C 
ATOM     25  C   UNL     1      -3.444  12.625  23.534  0.00  0.00    +0.000 C 
ATOM     26 CL   UNL     1      -4.852  13.495  23.988  0.00  0.00    +0.000 Cl
ENDBRANCH  11  24
TORSDOF 3
ENDMDL
MODEL 8
REMARK VINA RESULT:      -7.2      7.249     10.255
REMARK  Name = 
REMARK  3 active torsions:
REMARK  status: ('A' for Active; 'I' for Inactive)
REMARK    1  A    between atoms: S_2  and  C_4
REMARK    2  A    between atoms: S_2  and  N_11
REMARK    3  A    between atoms: C_21  and  C_22
REMARK                            x       y       z     vdW  Elec       q    Type
REMARK                         _______ _______ _______ _____ _____    ______ ____
ROOT
ATOM      1  N   UNL     1      -0.045  12.716  20.602  0.00  0.00    +0.000 NA
ATOM      2  C   UNL     1      -0.154  11.968  19.308  0.00  0.00    +0.000 C 
ATOM      3  C   UNL     1      -1.507  12.298  18.608  0.00  0.00    +0.000 C 
ATOM      4  C   UNL     1      -2.559  12.434  19.653  0.00  0.00    +0.000 A 
ATOM      5  N   UNL     1      -3.860  12.772  19.458  0.00  0.00    +0.000 N 
ATOM      6  N   UNL     1      -4.504  13.025  20.613  0.00  0.00    +0.000 NA
ATOM      7  C   UNL     1      -3.571  12.842  21.555  0.00  0.00    +0.000 A 
ATOM      8  C   UNL     1      -2.337  12.424  21.019  0.00  0.00    +0.000 A 
ATOM      9  C   UNL     1      -0.979  12.271  21.648  0.00  0.00    +0.000 C 
ATOM     10  C   UNL     1      -0.528  10.848  22.058  0.00  0.00    +0.000 C 
ATOM     11  C   UNL     1       0.445  10.193  21.028  0.00  0.00    +0.000 C 
ATOM     12  C   UNL     1      -0.080  10.449  19.610  0.00  0.00    +0.000 C 
ATOM     13  H   UNL     1      -4.360  12.916  18.585  0.00  0.00    +0.000 HD
ENDROOT
BRANCH   1  15
ATOM     14  O   UNL     1       2.430  13.201  20.519  0.00  0.00    +0.000 OA
ATOM     15  S   UNL     1       1.177  13.770  20.977  0.00  0.00    +0.000 S 
ATOM     16  O   UNL     1       1.011  14.220  22.340  0.00  0.00    +0.000 OA
BRANCH  15  17
ATOM     17  C   UNL     1       0.811  15.157  19.919  0.00  0.00    +0.000 A 
ATOM     18  C   UNL     1       1.803  15.684  19.082  0.00  0.00    +0.000 A 
ATOM     19  C   UNL     1       1.473  16.702  18.183  0.00  0.00    +0.000 A 
ATOM     20  C   UNL     1       0.160  17.175  18.120  0.00  0.00    +0.000 A 
ATOM     21 CL   UNL     1      -0.257  18.399  16.985  0.00  0.00    +0.000 Cl
ATOM     22  C   UNL     1      -0.825  16.649  18.956  0.00  0.00    +0.000 A 
ATOM     23  C   UNL     1      -0.502  15.635  19.857  0.00  0.00    +0.000 A 
ENDBRANCH  15  17
ENDBRANCH   1  15
BRANCH  11  24
ATOM     24  C   UNL     1       0.794   8.735  21.217  0.00  0.00    +0.000 C 
ATOM     25  C   UNL     1       1.562   7.974  20.434  0.00  0.00    +0.000 C 
ATOM     26 CL   UNL     1       1.799   6.302  20.741  0.00  0.00    +0.000 Cl
ENDBRANCH  11  24
TORSDOF 3
ENDMDL
MODEL 9
REMARK VINA RESULT:      -7.2      2.687      3.127
REMARK  Name = 
REMARK  3 active torsions:
REMARK  status: ('A' for Active; 'I' for Inactive)
REMARK    1  A    between atoms: S_2  and  C_4
REMARK    2  A    between atoms: S_2  and  N_11
REMARK    3  A    between atoms: C_21  and  C_22
REMARK                            x       y       z     vdW  Elec       q    Type
REMARK                         _______ _______ _______ _____ _____    ______ ____
ROOT
ATOM      1  N   UNL     1       4.731   6.408  17.912  0.00  0.00    +0.000 NA
ATOM      2  C   UNL     1       5.363   5.106  18.298  0.00  0.00    +0.000 C 
ATOM      3  C   UNL     1       6.648   5.360  19.143  0.00  0.00    +0.000 C 
ATOM      4  C   UNL     1       7.338   6.563  18.601  0.00  0.00    +0.000 A 
ATOM      5  N   UNL     1       8.463   7.146  19.093  0.00  0.00    +0.000 N 
ATOM      6  N   UNL     1       8.716   8.338  18.521  0.00  0.00    +0.000 NA
ATOM      7  C   UNL     1       7.714   8.502  17.649  0.00  0.00    +0.000 A 
ATOM      8  C   UNL     1       6.839   7.399  17.618  0.00  0.00    +0.000 A 
ATOM      9  C   UNL     1       5.506   7.205  16.948  0.00  0.00    +0.000 C 
ATOM     10  C   UNL     1       5.474   6.421  15.612  0.00  0.00    +0.000 C 
ATOM     11  C   UNL     1       5.026   4.937  15.782  0.00  0.00    +0.000 C 
ATOM     12  C   UNL     1       5.733   4.336  17.005  0.00  0.00    +0.000 C 
ATOM     13  H   UNL     1       9.065   6.836  19.850  0.00  0.00    +0.000 HD
ENDROOT
BRANCH   1  15
ATOM     14  O   UNL     1       2.566   7.427  17.107  0.00  0.00    +0.000 OA
ATOM     15  S   UNL     1       3.177   6.846  18.288  0.00  0.00    +0.000 S 
ATOM     16  O   UNL     1       3.176   7.543  19.554  0.00  0.00    +0.000 OA
BRANCH  15  17
ATOM     17  C   UNL     1       2.399   5.265  18.559  0.00  0.00    +0.000 A 
ATOM     18  C   UNL     1       2.079   4.443  17.471  0.00  0.00    +0.000 A 
ATOM     19  C   UNL     1       1.566   3.164  17.704  0.00  0.00    +0.000 A 
ATOM     20  C   UNL     1       1.390   2.715  19.014  0.00  0.00    +0.000 A 
ATOM     21 CL   UNL     1       0.799   1.125  19.304  0.00  0.00    +0.000 Cl
ATOM     22  C   UNL     1       1.708   3.537  20.096  0.00  0.00    +0.000 A 
ATOM     23  C   UNL     1       2.218   4.814  19.870  0.00  0.00    +0.000 A 
ENDBRANCH  15  17
ENDBRANCH   1  15
BRANCH  11  24
ATOM     24  C   UNL     1       5.148   4.022  14.587  0.00  0.00    +0.000 C 
ATOM     25  C   UNL     1       6.075   4.057  13.626  0.00  0.00    +0.000 C 
ATOM     26 CL   UNL     1       6.031   2.992  12.281  0.00  0.00    +0.000 Cl
ENDBRANCH  11  24
TORSDOF 3
ENDMDL
