MODEL 1
REMARK VINA RESULT:      -6.6      0.000      0.000
REMARK  Name = 
REMARK  3 active torsions:
REMARK  status: ('A' for Active; 'I' for Inactive)
REMARK    1  A    between atoms: C_1  and  C_2
REMARK    2  A    between atoms: C_2  and  C_8
REMARK    3  A    between atoms: N_3  and  N_4
REMARK                            x       y       z     vdW  Elec       q    Type
REMARK                         _______ _______ _______ _____ _____    ______ ____
ROOT
ATOM      1  C   UNL     1       3.819   7.002  17.647  0.00  0.00    +0.000 C 
ATOM      2  C   UNL     1       3.732   5.487  17.562  0.00  0.00    +0.000 C 
ATOM      3  N   UNL     1       4.467   4.734  16.790  0.00  0.00    +0.000 NA
ENDROOT
BRANCH   3   4
ATOM      4  N   UNL     1       5.393   5.311  15.968  0.00  0.00    +0.000 N 
ATOM      5  C   UNL     1       6.737   5.059  16.067  0.00  0.00    +0.000 C 
ATOM      6  N   UNL     1       7.091   4.240  17.084  0.00  0.00    +0.000 N 
ATOM      7  O   UNL     1       7.559   5.541  15.296  0.00  0.00    +0.000 OA
ATOM      8  H   UNL     1       5.134   5.924  15.209  0.00  0.00    +0.000 HD
ATOM      9  H   UNL     1       6.336   3.689  17.467  0.00  0.00    +0.000 HD
ATOM     10  H   UNL     1       8.033   3.885  17.089  0.00  0.00    +0.000 HD
ENDBRANCH   3   4
BRANCH   2  11
ATOM     11  C   UNL     1       2.718   4.821  18.464  0.00  0.00    +0.000 A 
ATOM     12  C   UNL     1       2.503   5.261  19.779  0.00  0.00    +0.000 A 
ATOM     13  C   UNL     1       1.586   4.608  20.610  0.00  0.00    +0.000 A 
ATOM     14  C   UNL     1       0.871   3.512  20.134  0.00  0.00    +0.000 A 
ATOM     15  C   UNL     1       1.064   3.074  18.826  0.00  0.00    +0.000 A 
ATOM     16  C   UNL     1       1.982   3.724  17.994  0.00  0.00    +0.000 A 
ENDBRANCH   2  11
TORSDOF 2
ENDMDL
MODEL 2
REMARK VINA RESULT:      -6.5      0.159      1.344
REMARK  Name = 
REMARK  3 active torsions:
REMARK  status: ('A' for Active; 'I' for Inactive)
REMARK    1  A    between atoms: C_1  and  C_2
REMARK    2  A    between atoms: C_2  and  C_8
REMARK    3  A    between atoms: N_3  and  N_4
REMARK                            x       y       z     vdW  Elec       q    Type
REMARK                         _______ _______ _______ _____ _____    ______ ____
ROOT
ATOM      1  C   UNL     1       3.807   6.842  17.614  0.00  0.00    +0.000 C 
ATOM      2  C   UNL     1       3.761   5.326  17.519  0.00  0.00    +0.000 C 
ATOM      3  N   UNL     1       4.516   4.598  16.741  0.00  0.00    +0.000 NA
ENDROOT
BRANCH   3   4
ATOM      4  N   UNL     1       5.426   5.205  15.922  0.00  0.00    +0.000 N 
ATOM      5  C   UNL     1       6.779   5.037  16.058  0.00  0.00    +0.000 C 
ATOM      6  N   UNL     1       7.156   4.269  17.107  0.00  0.00    +0.000 N 
ATOM      7  O   UNL     1       7.590   5.543  15.291  0.00  0.00    +0.000 OA
ATOM      8  H   UNL     1       5.148   5.779  15.140  0.00  0.00    +0.000 HD
ATOM      9  H   UNL     1       6.427   3.686  17.490  0.00  0.00    +0.000 HD
ATOM     10  H   UNL     1       8.118   3.972  17.143  0.00  0.00    +0.000 HD
ENDBRANCH   3   4
BRANCH   2  11
ATOM     11  C   UNL     1       2.766   4.627  18.417  0.00  0.00    +0.000 A 
ATOM     12  C   UNL     1       1.939   3.600  17.938  0.00  0.00    +0.000 A 
ATOM     13  C   UNL     1       0.999   2.991  18.776  0.00  0.00    +0.000 A 
ATOM     14  C   UNL     1       0.880   3.397  20.102  0.00  0.00    +0.000 A 
ATOM     15  C   UNL     1       1.705   4.405  20.595  0.00  0.00    +0.000 A 
ATOM     16  C   UNL     1       2.644   5.017  19.758  0.00  0.00    +0.000 A 
ENDBRANCH   2  11
TORSDOF 2
ENDMDL
MODEL 3
REMARK VINA RESULT:      -6.5      1.424      1.583
REMARK  Name = 
REMARK  3 active torsions:
REMARK  status: ('A' for Active; 'I' for Inactive)
REMARK    1  A    between atoms: C_1  and  C_2
REMARK    2  A    between atoms: C_2  and  C_8
REMARK    3  A    between atoms: N_3  and  N_4
REMARK                            x       y       z     vdW  Elec       q    Type
REMARK                         _______ _______ _______ _____ _____    ______ ____
ROOT
ATOM      1  C   UNL     1       3.669   5.797  17.559  0.00  0.00    +0.000 C 
ATOM      2  C   UNL     1       3.966   4.420  18.131  0.00  0.00    +0.000 C 
ATOM      3  N   UNL     1       4.926   3.631  17.732  0.00  0.00    +0.000 NA
ENDROOT
BRANCH   3   4
ATOM      4  N   UNL     1       5.748   4.029  16.716  0.00  0.00    +0.000 N 
ATOM      5  C   UNL     1       7.059   4.379  16.911  0.00  0.00    +0.000 C 
ATOM      6  N   UNL     1       7.468   4.362  18.201  0.00  0.00    +0.000 N 
ATOM      7  O   UNL     1       7.806   4.687  15.990  0.00  0.00    +0.000 OA
ATOM      8  H   UNL     1       5.446   4.045  15.753  0.00  0.00    +0.000 HD
ATOM      9  H   UNL     1       6.877   3.834  18.827  0.00  0.00    +0.000 HD
ATOM     10  H   UNL     1       8.457   4.435  18.375  0.00  0.00    +0.000 HD
ENDBRANCH   3   4
BRANCH   2  11
ATOM     11  C   UNL     1       3.074   3.956  19.260  0.00  0.00    +0.000 A 
ATOM     12  C   UNL     1       3.516   3.020  20.208  0.00  0.00    +0.000 A 
ATOM     13  C   UNL     1       2.663   2.576  21.224  0.00  0.00    +0.000 A 
ATOM     14  C   UNL     1       1.363   3.067  21.308  0.00  0.00    +0.000 A 
ATOM     15  C   UNL     1       0.917   4.008  20.383  0.00  0.00    +0.000 A 
ATOM     16  C   UNL     1       1.767   4.452  19.364  0.00  0.00    +0.000 A 
ENDBRANCH   2  11
TORSDOF 2
ENDMDL
MODEL 4
REMARK VINA RESULT:      -6.5      3.739      6.246
REMARK  Name = 
REMARK  3 active torsions:
REMARK  status: ('A' for Active; 'I' for Inactive)
REMARK    1  A    between atoms: C_1  and  C_2
REMARK    2  A    between atoms: C_2  and  C_8
REMARK    3  A    between atoms: N_3  and  N_4
REMARK                            x       y       z     vdW  Elec       q    Type
REMARK                         _______ _______ _______ _____ _____    ______ ____
ROOT
ATOM      1  C   UNL     1       5.134   4.005  16.567  0.00  0.00    +0.000 C 
ATOM      2  C   UNL     1       6.534   4.292  16.050  0.00  0.00    +0.000 C 
ATOM      3  N   UNL     1       7.587   4.480  16.798  0.00  0.00    +0.000 NA
ENDROOT
BRANCH   3   4
ATOM      4  N   UNL     1       7.467   4.435  18.158  0.00  0.00    +0.000 N 
ATOM      5  C   UNL     1       7.563   5.547  18.953  0.00  0.00    +0.000 C 
ATOM      6  N   UNL     1       7.850   6.695  18.295  0.00  0.00    +0.000 N 
ATOM      7  O   UNL     1       7.405   5.509  20.167  0.00  0.00    +0.000 OA
ATOM      8  H   UNL     1       7.255   3.580  18.653  0.00  0.00    +0.000 HD
ATOM      9  H   UNL     1       7.681   6.668  17.300  0.00  0.00    +0.000 HD
ATOM     10  H   UNL     1       7.754   7.558  18.804  0.00  0.00    +0.000 HD
ENDBRANCH   3   4
BRANCH   2  11
ATOM     11  C   UNL     1       6.698   4.343  14.548  0.00  0.00    +0.000 A 
ATOM     12  C   UNL     1       5.953   3.511  13.699  0.00  0.00    +0.000 A 
ATOM     13  C   UNL     1       6.146   3.548  12.314  0.00  0.00    +0.000 A 
ATOM     14  C   UNL     1       7.081   4.421  11.763  0.00  0.00    +0.000 A 
ATOM     15  C   UNL     1       7.817   5.263  12.593  0.00  0.00    +0.000 A 
ATOM     16  C   UNL     1       7.626   5.226  13.979  0.00  0.00    +0.000 A 
ENDBRANCH   2  11
TORSDOF 2
ENDMDL
MODEL 5
REMARK VINA RESULT:      -6.4      1.543      2.049
REMARK  Name = 
REMARK  3 active torsions:
REMARK  status: ('A' for Active; 'I' for Inactive)
REMARK    1  A    between atoms: C_1  and  C_2
REMARK    2  A    between atoms: C_2  and  C_8
REMARK    3  A    between atoms: N_3  and  N_4
REMARK                            x       y       z     vdW  Elec       q    Type
REMARK                         _______ _______ _______ _____ _____    ______ ____
ROOT
ATOM      1  C   UNL     1       4.412   6.276  17.104  0.00  0.00    +0.000 C 
ATOM      2  C   UNL     1       4.570   4.771  16.962  0.00  0.00    +0.000 C 
ATOM      3  N   UNL     1       5.564   4.172  16.365  0.00  0.00    +0.000 NA
ENDROOT
BRANCH   3   4
ATOM      4  N   UNL     1       6.559   4.918  15.798  0.00  0.00    +0.000 N 
ATOM      5  C   UNL     1       6.980   4.741  14.506  0.00  0.00    +0.000 C 
ATOM      6  N   UNL     1       6.377   3.725  13.844  0.00  0.00    +0.000 N 
ATOM      7  O   UNL     1       7.838   5.444  13.986  0.00  0.00    +0.000 OA
ATOM      8  H   UNL     1       7.013   5.674  16.289  0.00  0.00    +0.000 HD
ATOM      9  H   UNL     1       5.511   3.406  14.253  0.00  0.00    +0.000 HD
ATOM     10  H   UNL     1       6.519   3.671  12.848  0.00  0.00    +0.000 HD
ENDBRANCH   3   4
BRANCH   2  11
ATOM     11  C   UNL     1       3.485   3.921  17.583  0.00  0.00    +0.000 A 
ATOM     12  C   UNL     1       3.712   2.582  17.934  0.00  0.00    +0.000 A 
ATOM     13  C   UNL     1       2.684   1.801  18.474  0.00  0.00    +0.000 A 
ATOM     14  C   UNL     1       1.422   2.353  18.675  0.00  0.00    +0.000 A 
ATOM     15  C   UNL     1       1.187   3.686  18.346  0.00  0.00    +0.000 A 
ATOM     16  C   UNL     1       2.213   4.467  17.804  0.00  0.00    +0.000 A 
ENDBRANCH   2  11
TORSDOF 2
ENDMDL
MODEL 6
REMARK VINA RESULT:      -6.3      1.697      2.143
REMARK  Name = 
REMARK  3 active torsions:
REMARK  status: ('A' for Active; 'I' for Inactive)
REMARK    1  A    between atoms: C_1  and  C_2
REMARK    2  A    between atoms: C_2  and  C_8
REMARK    3  A    between atoms: N_3  and  N_4
REMARK                            x       y       z     vdW  Elec       q    Type
REMARK                         _______ _______ _______ _____ _____    ______ ____
ROOT
ATOM      1  C   UNL     1       3.106   3.465  16.716  0.00  0.00    +0.000 C 
ATOM      2  C   UNL     1       3.799   3.585  18.064  0.00  0.00    +0.000 C 
ATOM      3  N   UNL     1       5.062   3.863  18.239  0.00  0.00    +0.000 NA
ENDROOT
BRANCH   3   4
ATOM      4  N   UNL     1       5.866   4.060  17.152  0.00  0.00    +0.000 N 
ATOM      5  C   UNL     1       7.176   4.453  17.254  0.00  0.00    +0.000 C 
ATOM      6  N   UNL     1       7.602   4.693  18.516  0.00  0.00    +0.000 N 
ATOM      7  O   UNL     1       7.907   4.580  16.279  0.00  0.00    +0.000 OA
ATOM      8  H   UNL     1       5.551   3.884  16.209  0.00  0.00    +0.000 HD
ATOM      9  H   UNL     1       7.025   4.294  19.243  0.00  0.00    +0.000 HD
ATOM     10  H   UNL     1       8.592   4.807  18.658  0.00  0.00    +0.000 HD
ENDBRANCH   3   4
BRANCH   2  11
ATOM     11  C   UNL     1       2.932   3.376  19.285  0.00  0.00    +0.000 A 
ATOM     12  C   UNL     1       1.619   3.867  19.346  0.00  0.00    +0.000 A 
ATOM     13  C   UNL     1       0.845   3.695  20.499  0.00  0.00    +0.000 A 
ATOM     14  C   UNL     1       1.373   3.027  21.600  0.00  0.00    +0.000 A 
ATOM     15  C   UNL     1       2.670   2.521  21.547  0.00  0.00    +0.000 A 
ATOM     16  C   UNL     1       3.446   2.694  20.396  0.00  0.00    +0.000 A 
ENDBRANCH   2  11
TORSDOF 2
ENDMDL
MODEL 7
REMARK VINA RESULT:      -6.2      1.126      1.466
REMARK  Name = 
REMARK  3 active torsions:
REMARK  status: ('A' for Active; 'I' for Inactive)
REMARK    1  A    between atoms: C_1  and  C_2
REMARK    2  A    between atoms: C_2  and  C_8
REMARK    3  A    between atoms: N_3  and  N_4
REMARK                            x       y       z     vdW  Elec       q    Type
REMARK                         _______ _______ _______ _____ _____    ______ ____
ROOT
ATOM      1  C   UNL     1       5.867   5.024  19.183  0.00  0.00    +0.000 C 
ATOM      2  C   UNL     1       4.799   4.412  18.292  0.00  0.00    +0.000 C 
ATOM      3  N   UNL     1       4.982   4.019  17.060  0.00  0.00    +0.000 NA
ENDROOT
BRANCH   3   4
ATOM      4  N   UNL     1       6.212   4.159  16.483  0.00  0.00    +0.000 N 
ATOM      5  C   UNL     1       6.512   5.167  15.603  0.00  0.00    +0.000 C 
ATOM      6  N   UNL     1       5.478   5.984  15.297  0.00  0.00    +0.000 N 
ATOM      7  O   UNL     1       7.631   5.317  15.126  0.00  0.00    +0.000 OA
ATOM      8  H   UNL     1       6.985   3.551  16.707  0.00  0.00    +0.000 HD
ATOM      9  H   UNL     1       4.703   5.948  15.943  0.00  0.00    +0.000 HD
ATOM     10  H   UNL     1       5.689   6.835  14.802  0.00  0.00    +0.000 HD
ENDBRANCH   3   4
BRANCH   2  11
ATOM     11  C   UNL     1       3.429   4.241  18.906  0.00  0.00    +0.000 A 
ATOM     12  C   UNL     1       3.021   4.998  20.015  0.00  0.00    +0.000 A 
ATOM     13  C   UNL     1       1.763   4.799  20.592  0.00  0.00    +0.000 A 
ATOM     14  C   UNL     1       0.896   3.846  20.064  0.00  0.00    +0.000 A 
ATOM     15  C   UNL     1       1.281   3.098  18.954  0.00  0.00    +0.000 A 
ATOM     16  C   UNL     1       2.541   3.295  18.377  0.00  0.00    +0.000 A 
ENDBRANCH   2  11
TORSDOF 2
ENDMDL
MODEL 8
REMARK VINA RESULT:      -6.2      1.165      2.007
REMARK  Name = 
REMARK  3 active torsions:
REMARK  status: ('A' for Active; 'I' for Inactive)
REMARK    1  A    between atoms: C_1  and  C_2
REMARK    2  A    between atoms: C_2  and  C_8
REMARK    3  A    between atoms: N_3  and  N_4
REMARK                            x       y       z     vdW  Elec       q    Type
REMARK                         _______ _______ _______ _____ _____    ______ ____
ROOT
ATOM      1  C   UNL     1       5.916   4.983  19.152  0.00  0.00    +0.000 C 
ATOM      2  C   UNL     1       4.862   4.354  18.255  0.00  0.00    +0.000 C 
ATOM      3  N   UNL     1       5.055   3.968  17.023  0.00  0.00    +0.000 NA
ENDROOT
BRANCH   3   4
ATOM      4  N   UNL     1       6.284   4.133  16.449  0.00  0.00    +0.000 N 
ATOM      5  C   UNL     1       6.558   5.126  15.544  0.00  0.00    +0.000 C 
ATOM      6  N   UNL     1       5.499   5.900  15.210  0.00  0.00    +0.000 N 
ATOM      7  O   UNL     1       7.674   5.300  15.070  0.00  0.00    +0.000 OA
ATOM      8  H   UNL     1       7.075   3.556  16.695  0.00  0.00    +0.000 HD
ATOM      9  H   UNL     1       4.721   5.856  15.852  0.00  0.00    +0.000 HD
ATOM     10  H   UNL     1       5.686   6.744  14.694  0.00  0.00    +0.000 HD
ENDBRANCH   3   4
BRANCH   2  11
ATOM     11  C   UNL     1       3.493   4.155  18.865  0.00  0.00    +0.000 A 
ATOM     12  C   UNL     1       2.526   3.343  18.254  0.00  0.00    +0.000 A 
ATOM     13  C   UNL     1       1.253   3.201  18.815  0.00  0.00    +0.000 A 
ATOM     14  C   UNL     1       0.934   3.865  19.997  0.00  0.00    +0.000 A 
ATOM     15  C   UNL     1       1.889   4.663  20.623  0.00  0.00    +0.000 A 
ATOM     16  C   UNL     1       3.163   4.807  20.062  0.00  0.00    +0.000 A 
ENDBRANCH   2  11
TORSDOF 2
ENDMDL
MODEL 9
REMARK VINA RESULT:      -6.2      1.126      1.206
REMARK  Name = 
REMARK  3 active torsions:
REMARK  status: ('A' for Active; 'I' for Inactive)
REMARK    1  A    between atoms: C_1  and  C_2
REMARK    2  A    between atoms: C_2  and  C_8
REMARK    3  A    between atoms: N_3  and  N_4
REMARK                            x       y       z     vdW  Elec       q    Type
REMARK                         _______ _______ _______ _____ _____    ______ ____
ROOT
ATOM      1  C   UNL     1       4.100   6.476  17.449  0.00  0.00    +0.000 C 
ATOM      2  C   UNL     1       4.188   4.960  17.492  0.00  0.00    +0.000 C 
ATOM      3  N   UNL     1       4.915   4.226  16.694  0.00  0.00    +0.000 NA
ENDROOT
BRANCH   3   4
ATOM      4  N   UNL     1       5.665   4.825  15.721  0.00  0.00    +0.000 N 
ATOM      5  C   UNL     1       7.035   4.844  15.741  0.00  0.00    +0.000 C 
ATOM      6  N   UNL     1       7.598   4.275  16.833  0.00  0.00    +0.000 N 
ATOM      7  O   UNL     1       7.704   5.339  14.842  0.00  0.00    +0.000 OA
ATOM      8  H   UNL     1       5.249   5.252  14.907  0.00  0.00    +0.000 HD
ATOM      9  H   UNL     1       6.987   3.662  17.355  0.00  0.00    +0.000 HD
ATOM     10  H   UNL     1       8.590   4.104  16.809  0.00  0.00    +0.000 HD
ENDBRANCH   3   4
BRANCH   2  11
ATOM     11  C   UNL     1       3.373   4.270  18.562  0.00  0.00    +0.000 A 
ATOM     12  C   UNL     1       3.957   3.369  19.465  0.00  0.00    +0.000 A 
ATOM     13  C   UNL     1       3.179   2.713  20.424  0.00  0.00    +0.000 A 
ATOM     14  C   UNL     1       1.810   2.954  20.495  0.00  0.00    +0.000 A 
ATOM     15  C   UNL     1       1.219   3.858  19.615  0.00  0.00    +0.000 A 
ATOM     16  C   UNL     1       1.995   4.513  18.653  0.00  0.00    +0.000 A 
ENDBRANCH   2  11
TORSDOF 2
ENDMDL
