MODEL 1
REMARK VINA RESULT:      -7.0      0.000      0.000
REMARK  Name = 
REMARK  9 active torsions:
REMARK  status: ('A' for Active; 'I' for Inactive)
REMARK    1  A    between atoms: C_1  and  N_2
REMARK    2  A    between atoms: N_2  and  C_3
REMARK    3  A    between atoms: C_3  and  C_4
REMARK    4  A    between atoms: C_4  and  O_5
REMARK    5  A    between atoms: C_4  and  C_6
REMARK    6  A    between atoms: C_6  and  C_7
REMARK    7  A    between atoms: C_6  and  N_13
REMARK    8  A    between atoms: N_13  and  C_14
REMARK    9  A    between atoms: N_13  and  C_15
REMARK                            x       y       z     vdW  Elec       q    Type
REMARK                         _______ _______ _______ _____ _____    ______ ____
ROOT
ATOM      1  C   UNL     1       3.264   5.509  18.234  0.00  0.00    +0.000 C 
ENDROOT
BRANCH   1   2
ATOM      2  C   UNL     1       4.791   5.737  18.244  0.00  0.00    +0.000 A 
ATOM      3  C   UNL     1       5.624   5.349  19.303  0.00  0.00    +0.000 A 
ATOM      4  C   UNL     1       7.008   5.562  19.251  0.00  0.00    +0.000 A 
ATOM      5  C   UNL     1       7.585   6.199  18.155  0.00  0.00    +0.000 A 
ATOM      6  C   UNL     1       6.776   6.646  17.121  0.00  0.00    +0.000 A 
ATOM      7  C   UNL     1       5.398   6.429  17.174  0.00  0.00    +0.000 A 
ENDBRANCH   1   2
BRANCH   1   8
ATOM      8  N   UNL     1       2.491   6.271  19.276  0.00  0.00    +0.000 N 
ATOM      9  C   UNL     1       2.075   5.450  20.430  0.00  0.00    +0.000 C 
BRANCH   8  10
ATOM     10  C   UNL     1       2.099   7.609  19.244  0.00  0.00    +0.000 A 
ATOM     11  C   UNL     1       1.509   8.259  20.334  0.00  0.00    +0.000 A 
ATOM     12  C   UNL     1       0.946   9.544  20.242  0.00  0.00    +0.000 A 
ATOM     13  C   UNL     1       1.020  10.252  19.059  0.00  0.00    +0.000 A 
ATOM     14 CL   UNL     1       0.261  11.783  18.901  0.00  0.00    +0.000 Cl
ATOM     15  C   UNL     1       1.715   9.708  17.991  0.00  0.00    +0.000 A 
ATOM     16  C   UNL     1       2.258   8.418  18.098  0.00  0.00    +0.000 A 
ENDBRANCH   8  10
ENDBRANCH   1   8
BRANCH   1  17
ATOM     17  C   UNL     1       2.850   3.998  18.049  0.00  0.00    +0.000 C 
BRANCH  17  18
ATOM     18  O   UNL     1       1.638   3.809  17.299  0.00  0.00    +0.000 OA
ATOM     19  H   UNL     1       1.617   4.518  16.636  0.00  0.00    +0.000 HD
ENDBRANCH  17  18
BRANCH  17  20
ATOM     20  C   UNL     1       3.904   3.026  17.490  0.00  0.00    +0.000 C 
BRANCH  20  22
ATOM     21  C   UNL     1       4.129   2.102  19.683  0.00  0.00    +0.000 C 
ATOM     22  N   UNL     1       4.072   1.787  18.257  0.00  0.00    +0.000 NA
ATOM     23  H   UNL     1       4.951   1.341  17.996  0.00  0.00    +0.000 HD
ENDBRANCH  20  22
ENDBRANCH  17  20
ENDBRANCH   1  17
TORSDOF 7
ENDMDL
MODEL 2
REMARK VINA RESULT:      -6.9      1.965      3.930
REMARK  Name = 
REMARK  9 active torsions:
REMARK  status: ('A' for Active; 'I' for Inactive)
REMARK    1  A    between atoms: C_1  and  N_2
REMARK    2  A    between atoms: N_2  and  C_3
REMARK    3  A    between atoms: C_3  and  C_4
REMARK    4  A    between atoms: C_4  and  O_5
REMARK    5  A    between atoms: C_4  and  C_6
REMARK    6  A    between atoms: C_6  and  C_7
REMARK    7  A    between atoms: C_6  and  N_13
REMARK    8  A    between atoms: N_13  and  C_14
REMARK    9  A    between atoms: N_13  and  C_15
REMARK                            x       y       z     vdW  Elec       q    Type
REMARK                         _______ _______ _______ _____ _____    ______ ____
ROOT
ATOM      1  C   UNL     1       3.841   5.693  19.189  0.00  0.00    +0.000 C 
ENDROOT
BRANCH   1   2
ATOM      2  C   UNL     1       2.765   4.608  19.414  0.00  0.00    +0.000 A 
ATOM      3  C   UNL     1       1.977   4.076  18.383  0.00  0.00    +0.000 A 
ATOM      4  C   UNL     1       1.029   3.077  18.639  0.00  0.00    +0.000 A 
ATOM      5  C   UNL     1       0.822   2.613  19.937  0.00  0.00    +0.000 A 
ATOM      6  C   UNL     1       1.547   3.165  20.983  0.00  0.00    +0.000 A 
ATOM      7  C   UNL     1       2.494   4.158  20.724  0.00  0.00    +0.000 A 
ENDBRANCH   1   2
BRANCH   1   8
ATOM      8  N   UNL     1       3.387   6.902  18.416  0.00  0.00    +0.000 N 
ATOM      9  C   UNL     1       4.164   7.150  17.186  0.00  0.00    +0.000 C 
BRANCH   8  10
ATOM     10  C   UNL     1       2.379   7.806  18.754  0.00  0.00    +0.000 A 
ATOM     11  C   UNL     1       1.799   8.683  17.830  0.00  0.00    +0.000 A 
ATOM     12  C   UNL     1       0.922   9.716  18.206  0.00  0.00    +0.000 A 
ATOM     13  C   UNL     1       0.542   9.859  19.526  0.00  0.00    +0.000 A 
ATOM     14 CL   UNL     1      -0.454  11.166  20.018  0.00  0.00    +0.000 Cl
ATOM     15  C   UNL     1       0.980   8.931  20.457  0.00  0.00    +0.000 A 
ATOM     16  C   UNL     1       1.866   7.915  20.064  0.00  0.00    +0.000 A 
ENDBRANCH   8  10
ENDBRANCH   1   8
BRANCH   1  17
ATOM     17  C   UNL     1       5.250   5.114  18.781  0.00  0.00    +0.000 C 
BRANCH  17  18
ATOM     18  O   UNL     1       6.237   5.180  19.824  0.00  0.00    +0.000 OA
ATOM     19  H   UNL     1       6.540   6.103  19.852  0.00  0.00    +0.000 HD
ENDBRANCH  17  18
BRANCH  17  20
ATOM     20  C   UNL     1       5.299   3.699  18.177  0.00  0.00    +0.000 C 
BRANCH  20  22
ATOM     21  C   UNL     1       6.795   4.471  16.479  0.00  0.00    +0.000 C 
ATOM     22  N   UNL     1       5.617   3.649  16.745  0.00  0.00    +0.000 NA
ATOM     23  H   UNL     1       4.837   4.032  16.210  0.00  0.00    +0.000 HD
ENDBRANCH  20  22
ENDBRANCH  17  20
ENDBRANCH   1  17
TORSDOF 7
ENDMDL
MODEL 3
REMARK VINA RESULT:      -6.9      0.150      1.054
REMARK  Name = 
REMARK  9 active torsions:
REMARK  status: ('A' for Active; 'I' for Inactive)
REMARK    1  A    between atoms: C_1  and  N_2
REMARK    2  A    between atoms: N_2  and  C_3
REMARK    3  A    between atoms: C_3  and  C_4
REMARK    4  A    between atoms: C_4  and  O_5
REMARK    5  A    between atoms: C_4  and  C_6
REMARK    6  A    between atoms: C_6  and  C_7
REMARK    7  A    between atoms: C_6  and  N_13
REMARK    8  A    between atoms: N_13  and  C_14
REMARK    9  A    between atoms: N_13  and  C_15
REMARK                            x       y       z     vdW  Elec       q    Type
REMARK                         _______ _______ _______ _____ _____    ______ ____
ROOT
ATOM      1  C   UNL     1       3.200   5.419  18.226  0.00  0.00    +0.000 C 
ENDROOT
BRANCH   1   2
ATOM      2  C   UNL     1       4.720   5.676  18.137  0.00  0.00    +0.000 A 
ATOM      3  C   UNL     1       5.357   6.157  16.984  0.00  0.00    +0.000 A 
ATOM      4  C   UNL     1       6.737   6.392  16.965  0.00  0.00    +0.000 A 
ATOM      5  C   UNL     1       7.518   6.119  18.086  0.00  0.00    +0.000 A 
ATOM      6  C   UNL     1       6.922   5.587  19.220  0.00  0.00    +0.000 A 
ATOM      7  C   UNL     1       5.545   5.357  19.238  0.00  0.00    +0.000 A 
ENDBRANCH   1   2
BRANCH   1   8
ATOM      8  N   UNL     1       2.475   6.199  19.290  0.00  0.00    +0.000 N 
ATOM      9  C   UNL     1       2.098   5.394  20.468  0.00  0.00    +0.000 C 
BRANCH   8  10
ATOM     10  C   UNL     1       2.093   7.540  19.257  0.00  0.00    +0.000 A 
ATOM     11  C   UNL     1       1.527   8.200  20.354  0.00  0.00    +0.000 A 
ATOM     12  C   UNL     1       0.973   9.489  20.266  0.00  0.00    +0.000 A 
ATOM     13  C   UNL     1       1.033  10.191  19.078  0.00  0.00    +0.000 A 
ATOM     14 CL   UNL     1       0.284  11.727  18.926  0.00  0.00    +0.000 Cl
ATOM     15  C   UNL     1       1.706   9.636  18.001  0.00  0.00    +0.000 A 
ATOM     16  C   UNL     1       2.240   8.343  18.105  0.00  0.00    +0.000 A 
ENDBRANCH   8  10
ENDBRANCH   1   8
BRANCH   1  17
ATOM     17  C   UNL     1       2.807   3.895  18.113  0.00  0.00    +0.000 C 
BRANCH  17  18
ATOM     18  O   UNL     1       1.609   3.653  17.354  0.00  0.00    +0.000 OA
ATOM     19  H   UNL     1       0.957   4.303  17.664  0.00  0.00    +0.000 HD
ENDBRANCH  17  18
BRANCH  17  20
ATOM     20  C   UNL     1       3.882   2.909  17.621  0.00  0.00    +0.000 C 
BRANCH  20  22
ATOM     21  C   UNL     1       4.223   2.109  19.848  0.00  0.00    +0.000 C 
ATOM     22  N   UNL     1       4.048   1.712  18.453  0.00  0.00    +0.000 NA
ATOM     23  H   UNL     1       4.885   1.208  18.160  0.00  0.00    +0.000 HD
ENDBRANCH  20  22
ENDBRANCH  17  20
ENDBRANCH   1  17
TORSDOF 7
ENDMDL
MODEL 4
REMARK VINA RESULT:      -6.8      1.899      3.836
REMARK  Name = 
REMARK  9 active torsions:
REMARK  status: ('A' for Active; 'I' for Inactive)
REMARK    1  A    between atoms: C_1  and  N_2
REMARK    2  A    between atoms: N_2  and  C_3
REMARK    3  A    between atoms: C_3  and  C_4
REMARK    4  A    between atoms: C_4  and  O_5
REMARK    5  A    between atoms: C_4  and  C_6
REMARK    6  A    between atoms: C_6  and  C_7
REMARK    7  A    between atoms: C_6  and  N_13
REMARK    8  A    between atoms: N_13  and  C_14
REMARK    9  A    between atoms: N_13  and  C_15
REMARK                            x       y       z     vdW  Elec       q    Type
REMARK                         _______ _______ _______ _____ _____    ______ ____
ROOT
ATOM      1  C   UNL     1       3.961   5.331  18.846  0.00  0.00    +0.000 C 
ENDROOT
BRANCH   1   2
ATOM      2  C   UNL     1       2.775   4.435  19.263  0.00  0.00    +0.000 A 
ATOM      3  C   UNL     1       2.540   4.030  20.585  0.00  0.00    +0.000 A 
ATOM      4  C   UNL     1       1.436   3.233  20.912  0.00  0.00    +0.000 A 
ATOM      5  C   UNL     1       0.561   2.793  19.919  0.00  0.00    +0.000 A 
ATOM      6  C   UNL     1       0.805   3.130  18.597  0.00  0.00    +0.000 A 
ATOM      7  C   UNL     1       1.904   3.928  18.274  0.00  0.00    +0.000 A 
ENDBRANCH   1   2
BRANCH   1   8
ATOM      8  N   UNL     1       3.586   6.633  18.189  0.00  0.00    +0.000 N 
ATOM      9  C   UNL     1       4.422   6.974  17.021  0.00  0.00    +0.000 C 
BRANCH   8  10
ATOM     10  C   UNL     1       2.602   7.538  18.583  0.00  0.00    +0.000 A 
ATOM     11  C   UNL     1       2.040   8.482  17.714  0.00  0.00    +0.000 A 
ATOM     12  C   UNL     1       1.189   9.511  18.154  0.00  0.00    +0.000 A 
ATOM     13  C   UNL     1       0.816   9.585  19.482  0.00  0.00    +0.000 A 
ATOM     14 CL   UNL     1      -0.147  10.885  20.053  0.00  0.00    +0.000 Cl
ATOM     15  C   UNL     1       1.235   8.594  20.354  0.00  0.00    +0.000 A 
ATOM     16  C   UNL     1       2.095   7.583  19.899  0.00  0.00    +0.000 A 
ENDBRANCH   8  10
ENDBRANCH   1   8
BRANCH   1  17
ATOM     17  C   UNL     1       5.144   4.541  18.165  0.00  0.00    +0.000 C 
BRANCH  17  18
ATOM     18  O   UNL     1       5.821   3.625  19.042  0.00  0.00    +0.000 OA
ATOM     19  H   UNL     1       6.674   3.428  18.620  0.00  0.00    +0.000 HD
ENDBRANCH  17  18
BRANCH  17  20
ATOM     20  C   UNL     1       4.851   3.800  16.848  0.00  0.00    +0.000 C 
BRANCH  20  22
ATOM     21  C   UNL     1       6.976   4.647  16.152  0.00  0.00    +0.000 C 
ATOM     22  N   UNL     1       6.026   3.546  16.007  0.00  0.00    +0.000 NA
ATOM     23  H   UNL     1       5.741   3.501  15.029  0.00  0.00    +0.000 HD
ENDBRANCH  20  22
ENDBRANCH  17  20
ENDBRANCH   1  17
TORSDOF 7
ENDMDL
MODEL 5
REMARK VINA RESULT:      -6.7      0.210      1.057
REMARK  Name = 
REMARK  9 active torsions:
REMARK  status: ('A' for Active; 'I' for Inactive)
REMARK    1  A    between atoms: C_1  and  N_2
REMARK    2  A    between atoms: N_2  and  C_3
REMARK    3  A    between atoms: C_3  and  C_4
REMARK    4  A    between atoms: C_4  and  O_5
REMARK    5  A    between atoms: C_4  and  C_6
REMARK    6  A    between atoms: C_6  and  C_7
REMARK    7  A    between atoms: C_6  and  N_13
REMARK    8  A    between atoms: N_13  and  C_14
REMARK    9  A    between atoms: N_13  and  C_15
REMARK                            x       y       z     vdW  Elec       q    Type
REMARK                         _______ _______ _______ _____ _____    ______ ____
ROOT
ATOM      1  C   UNL     1       3.229   5.542  18.181  0.00  0.00    +0.000 C 
ENDROOT
BRANCH   1   2
ATOM      2  C   UNL     1       4.755   5.775  18.204  0.00  0.00    +0.000 A 
ATOM      3  C   UNL     1       5.586   5.346  19.248  0.00  0.00    +0.000 A 
ATOM      4  C   UNL     1       6.970   5.565  19.208  0.00  0.00    +0.000 A 
ATOM      5  C   UNL     1       7.547   6.248  18.139  0.00  0.00    +0.000 A 
ATOM      6  C   UNL     1       6.739   6.734  17.122  0.00  0.00    +0.000 A 
ATOM      7  C   UNL     1       5.362   6.511  17.163  0.00  0.00    +0.000 A 
ENDBRANCH   1   2
BRANCH   1   8
ATOM      8  N   UNL     1       2.444   6.308  19.212  0.00  0.00    +0.000 N 
ATOM      9  C   UNL     1       2.126   5.526  20.423  0.00  0.00    +0.000 C 
BRANCH   8  10
ATOM     10  C   UNL     1       1.962   7.614  19.124  0.00  0.00    +0.000 A 
ATOM     11  C   UNL     1       2.033   8.377  17.953  0.00  0.00    +0.000 A 
ATOM     12  C   UNL     1       1.720   9.748  17.916  0.00  0.00    +0.000 A 
ATOM     13  C   UNL     1       1.255  10.385  19.050  0.00  0.00    +0.000 A 
ATOM     14 CL   UNL     1       0.955  12.075  19.047  0.00  0.00    +0.000 Cl
ATOM     15  C   UNL     1       1.036   9.642  20.198  0.00  0.00    +0.000 A 
ATOM     16  C   UNL     1       1.368   8.279  20.219  0.00  0.00    +0.000 A 
ENDBRANCH   8  10
ENDBRANCH   1   8
BRANCH   1  17
ATOM     17  C   UNL     1       2.820   4.029  18.001  0.00  0.00    +0.000 C 
BRANCH  17  18
ATOM     18  O   UNL     1       1.598   3.833  17.269  0.00  0.00    +0.000 OA
ATOM     19  H   UNL     1       1.857   3.489  16.398  0.00  0.00    +0.000 HD
ENDBRANCH  17  18
BRANCH  17  20
ATOM     20  C   UNL     1       3.871   3.063  17.426  0.00  0.00    +0.000 C 
BRANCH  20  22
ATOM     21  C   UNL     1       4.000   2.164  19.637  0.00  0.00    +0.000 C 
ATOM     22  N   UNL     1       4.088   1.845  18.214  0.00  0.00    +0.000 NA
ATOM     23  H   UNL     1       5.023   1.482  18.028  0.00  0.00    +0.000 HD
ENDBRANCH  20  22
ENDBRANCH  17  20
ENDBRANCH   1  17
TORSDOF 7
ENDMDL
MODEL 6
REMARK VINA RESULT:      -6.7      2.885      5.029
REMARK  Name = 
REMARK  9 active torsions:
REMARK  status: ('A' for Active; 'I' for Inactive)
REMARK    1  A    between atoms: C_1  and  N_2
REMARK    2  A    between atoms: N_2  and  C_3
REMARK    3  A    between atoms: C_3  and  C_4
REMARK    4  A    between atoms: C_4  and  O_5
REMARK    5  A    between atoms: C_4  and  C_6
REMARK    6  A    between atoms: C_6  and  C_7
REMARK    7  A    between atoms: C_6  and  N_13
REMARK    8  A    between atoms: N_13  and  C_14
REMARK    9  A    between atoms: N_13  and  C_15
REMARK                            x       y       z     vdW  Elec       q    Type
REMARK                         _______ _______ _______ _____ _____    ______ ____
ROOT
ATOM      1  C   UNL     1       4.644   3.791  18.367  0.00  0.00    +0.000 C 
ENDROOT
BRANCH   1   2
ATOM      2  C   UNL     1       3.644   4.738  19.065  0.00  0.00    +0.000 A 
ATOM      3  C   UNL     1       3.028   4.446  20.290  0.00  0.00    +0.000 A 
ATOM      4  C   UNL     1       2.143   5.352  20.890  0.00  0.00    +0.000 A 
ATOM      5  C   UNL     1       1.828   6.554  20.260  0.00  0.00    +0.000 A 
ATOM      6  C   UNL     1       2.377   6.841  19.020  0.00  0.00    +0.000 A 
ATOM      7  C   UNL     1       3.262   5.938  18.427  0.00  0.00    +0.000 A 
ENDBRANCH   1   2
BRANCH   1   8
ATOM      8  N   UNL     1       5.581   4.447  17.390  0.00  0.00    +0.000 N 
ATOM      9  C   UNL     1       5.557   3.844  16.043  0.00  0.00    +0.000 C 
BRANCH   8  10
ATOM     10  C   UNL     1       6.471   5.494  17.628  0.00  0.00    +0.000 A 
ATOM     11  C   UNL     1       7.427   5.466  18.650  0.00  0.00    +0.000 A 
ATOM     12  C   UNL     1       8.194   6.589  19.008  0.00  0.00    +0.000 A 
ATOM     13  C   UNL     1       8.072   7.768  18.299  0.00  0.00    +0.000 A 
ATOM     14 CL   UNL     1       8.932   9.174  18.778  0.00  0.00    +0.000 Cl
ATOM     15  C   UNL     1       7.240   7.805  17.193  0.00  0.00    +0.000 A 
ATOM     16  C   UNL     1       6.473   6.678  16.860  0.00  0.00    +0.000 A 
ENDBRANCH   8  10
ENDBRANCH   1   8
BRANCH   1  17
ATOM     17  C   UNL     1       4.001   2.433  17.886  0.00  0.00    +0.000 C 
BRANCH  17  18
ATOM     18  O   UNL     1       4.242   1.323  18.769  0.00  0.00    +0.000 OA
ATOM     19  H   UNL     1       3.834   0.549  18.346  0.00  0.00    +0.000 HD
ENDBRANCH  17  18
BRANCH  17  20
ATOM     20  C   UNL     1       2.504   2.432  17.530  0.00  0.00    +0.000 C 
BRANCH  20  22
ATOM     21  C   UNL     1       0.544   2.446  18.901  0.00  0.00    +0.000 C 
ATOM     22  N   UNL     1       1.657   1.629  18.420  0.00  0.00    +0.000 NA
ATOM     23  H   UNL     1       2.202   1.329  19.229  0.00  0.00    +0.000 HD
ENDBRANCH  20  22
ENDBRANCH  17  20
ENDBRANCH   1  17
TORSDOF 7
ENDMDL
MODEL 7
REMARK VINA RESULT:      -6.6      0.420      1.530
REMARK  Name = 
REMARK  9 active torsions:
REMARK  status: ('A' for Active; 'I' for Inactive)
REMARK    1  A    between atoms: C_1  and  N_2
REMARK    2  A    between atoms: N_2  and  C_3
REMARK    3  A    between atoms: C_3  and  C_4
REMARK    4  A    between atoms: C_4  and  O_5
REMARK    5  A    between atoms: C_4  and  C_6
REMARK    6  A    between atoms: C_6  and  C_7
REMARK    7  A    between atoms: C_6  and  N_13
REMARK    8  A    between atoms: N_13  and  C_14
REMARK    9  A    between atoms: N_13  and  C_15
REMARK                            x       y       z     vdW  Elec       q    Type
REMARK                         _______ _______ _______ _____ _____    ______ ____
ROOT
ATOM      1  C   UNL     1       3.181   5.774  18.115  0.00  0.00    +0.000 C 
ENDROOT
BRANCH   1   2
ATOM      2  C   UNL     1       4.715   5.949  18.138  0.00  0.00    +0.000 A 
ATOM      3  C   UNL     1       5.432   6.611  17.132  0.00  0.00    +0.000 A 
ATOM      4  C   UNL     1       6.823   6.760  17.213  0.00  0.00    +0.000 A 
ATOM      5  C   UNL     1       7.531   6.219  18.284  0.00  0.00    +0.000 A 
ATOM      6  C   UNL     1       6.852   5.508  19.262  0.00  0.00    +0.000 A 
ATOM      7  C   UNL     1       5.466   5.364  19.181  0.00  0.00    +0.000 A 
ENDBRANCH   1   2
BRANCH   1   8
ATOM      8  N   UNL     1       2.427   6.548  19.163  0.00  0.00    +0.000 N 
ATOM      9  C   UNL     1       2.132   5.770  20.382  0.00  0.00    +0.000 C 
BRANCH   8  10
ATOM     10  C   UNL     1       1.954   7.858  19.085  0.00  0.00    +0.000 A 
ATOM     11  C   UNL     1       2.094   8.653  17.941  0.00  0.00    +0.000 A 
ATOM     12  C   UNL     1       1.788  10.025  17.925  0.00  0.00    +0.000 A 
ATOM     13  C   UNL     1       1.261  10.633  19.048  0.00  0.00    +0.000 A 
ATOM     14 CL   UNL     1       0.966  12.323  19.076  0.00  0.00    +0.000 Cl
ATOM     15  C   UNL     1       0.975   9.859  20.161  0.00  0.00    +0.000 A 
ATOM     16  C   UNL     1       1.301   8.494  20.162  0.00  0.00    +0.000 A 
ENDBRANCH   8  10
ENDBRANCH   1   8
BRANCH   1  17
ATOM     17  C   UNL     1       2.715   4.281  17.907  0.00  0.00    +0.000 C 
BRANCH  17  18
ATOM     18  O   UNL     1       1.379   4.148  17.393  0.00  0.00    +0.000 OA
ATOM     19  H   UNL     1       0.945   5.004  17.546  0.00  0.00    +0.000 HD
ENDBRANCH  17  18
BRANCH  17  20
ATOM     20  C   UNL     1       3.628   3.351  17.087  0.00  0.00    +0.000 C 
BRANCH  20  22
ATOM     21  C   UNL     1       3.578   2.158  19.159  0.00  0.00    +0.000 C 
ATOM     22  N   UNL     1       4.199   2.227  17.838  0.00  0.00    +0.000 NA
ATOM     23  H   UNL     1       5.200   2.378  17.967  0.00  0.00    +0.000 HD
ENDBRANCH  20  22
ENDBRANCH  17  20
ENDBRANCH   1  17
TORSDOF 7
ENDMDL
MODEL 8
REMARK VINA RESULT:      -6.6      2.049      3.821
REMARK  Name = 
REMARK  9 active torsions:
REMARK  status: ('A' for Active; 'I' for Inactive)
REMARK    1  A    between atoms: C_1  and  N_2
REMARK    2  A    between atoms: N_2  and  C_3
REMARK    3  A    between atoms: C_3  and  C_4
REMARK    4  A    between atoms: C_4  and  O_5
REMARK    5  A    between atoms: C_4  and  C_6
REMARK    6  A    between atoms: C_6  and  C_7
REMARK    7  A    between atoms: C_6  and  N_13
REMARK    8  A    between atoms: N_13  and  C_14
REMARK    9  A    between atoms: N_13  and  C_15
REMARK                            x       y       z     vdW  Elec       q    Type
REMARK                         _______ _______ _______ _____ _____    ______ ____
ROOT
ATOM      1  C   UNL     1       3.782   5.820  19.111  0.00  0.00    +0.000 C 
ENDROOT
BRANCH   1   2
ATOM      2  C   UNL     1       2.724   4.717  19.332  0.00  0.00    +0.000 A 
ATOM      3  C   UNL     1       1.940   4.180  18.302  0.00  0.00    +0.000 A 
ATOM      4  C   UNL     1       1.008   3.165  18.555  0.00  0.00    +0.000 A 
ATOM      5  C   UNL     1       0.814   2.690  19.851  0.00  0.00    +0.000 A 
ATOM      6  C   UNL     1       1.535   3.245  20.897  0.00  0.00    +0.000 A 
ATOM      7  C   UNL     1       2.466   4.254  20.641  0.00  0.00    +0.000 A 
ENDBRANCH   1   2
BRANCH   1   8
ATOM      8  N   UNL     1       3.312   7.018  18.331  0.00  0.00    +0.000 N 
ATOM      9  C   UNL     1       3.962   7.165  17.013  0.00  0.00    +0.000 C 
BRANCH   8  10
ATOM     10  C   UNL     1       2.398   7.993  18.728  0.00  0.00    +0.000 A 
ATOM     11  C   UNL     1       1.900   8.086  20.033  0.00  0.00    +0.000 A 
ATOM     12  C   UNL     1       0.844   8.945  20.386  0.00  0.00    +0.000 A 
ATOM     13  C   UNL     1       0.297   9.798  19.447  0.00  0.00    +0.000 A 
ATOM     14 CL   UNL     1      -1.050  10.787  19.836  0.00  0.00    +0.000 Cl
ATOM     15  C   UNL     1       0.849   9.842  18.177  0.00  0.00    +0.000 A 
ATOM     16  C   UNL     1       1.892   8.966  17.840  0.00  0.00    +0.000 A 
ENDBRANCH   8  10
ENDBRANCH   1   8
BRANCH   1  17
ATOM     17  C   UNL     1       5.204   5.264  18.712  0.00  0.00    +0.000 C 
BRANCH  17  18
ATOM     18  O   UNL     1       6.087   5.056  19.828  0.00  0.00    +0.000 OA
ATOM     19  H   UNL     1       5.521   4.808  20.578  0.00  0.00    +0.000 HD
ENDBRANCH  17  18
BRANCH  17  20
ATOM     20  C   UNL     1       5.262   4.006  17.828  0.00  0.00    +0.000 C 
BRANCH  20  22
ATOM     21  C   UNL     1       5.951   3.903  15.540  0.00  0.00    +0.000 C 
ATOM     22  N   UNL     1       6.417   3.938  16.925  0.00  0.00    +0.000 NA
ATOM     23  H   UNL     1       6.940   3.081  17.105  0.00  0.00    +0.000 HD
ENDBRANCH  20  22
ENDBRANCH  17  20
ENDBRANCH   1  17
TORSDOF 7
ENDMDL
MODEL 9
REMARK VINA RESULT:      -6.6      2.814      5.123
REMARK  Name = 
REMARK  9 active torsions:
REMARK  status: ('A' for Active; 'I' for Inactive)
REMARK    1  A    between atoms: C_1  and  N_2
REMARK    2  A    between atoms: N_2  and  C_3
REMARK    3  A    between atoms: C_3  and  C_4
REMARK    4  A    between atoms: C_4  and  O_5
REMARK    5  A    between atoms: C_4  and  C_6
REMARK    6  A    between atoms: C_6  and  C_7
REMARK    7  A    between atoms: C_6  and  N_13
REMARK    8  A    between atoms: N_13  and  C_14
REMARK    9  A    between atoms: N_13  and  C_15
REMARK                            x       y       z     vdW  Elec       q    Type
REMARK                         _______ _______ _______ _____ _____    ______ ____
ROOT
ATOM      1  C   UNL     1       4.627   4.070  18.146  0.00  0.00    +0.000 C 
ENDROOT
BRANCH   1   2
ATOM      2  C   UNL     1       3.669   5.140  18.710  0.00  0.00    +0.000 A 
ATOM      3  C   UNL     1       3.336   6.318  18.026  0.00  0.00    +0.000 A 
ATOM      4  C   UNL     1       2.444   7.247  18.575  0.00  0.00    +0.000 A 
ATOM      5  C   UNL     1       1.890   7.036  19.837  0.00  0.00    +0.000 A 
ATOM      6  C   UNL     1       2.248   5.909  20.560  0.00  0.00    +0.000 A 
ATOM      7  C   UNL     1       3.136   4.982  20.008  0.00  0.00    +0.000 A 
ENDBRANCH   1   2
BRANCH   1   8
ATOM      8  N   UNL     1       5.756   4.595  17.301  0.00  0.00    +0.000 N 
ATOM      9  C   UNL     1       5.946   3.860  16.035  0.00  0.00    +0.000 C 
BRANCH   8  10
ATOM     10  C   UNL     1       6.638   5.633  17.600  0.00  0.00    +0.000 A 
ATOM     11  C   UNL     1       7.546   5.581  18.665  0.00  0.00    +0.000 A 
ATOM     12  C   UNL     1       8.299   6.694  19.079  0.00  0.00    +0.000 A 
ATOM     13  C   UNL     1       8.216   7.886  18.387  0.00  0.00    +0.000 A 
ATOM     14 CL   UNL     1       9.059   9.279  18.931  0.00  0.00    +0.000 Cl
ATOM     15  C   UNL     1       7.438   7.948  17.243  0.00  0.00    +0.000 A 
ATOM     16  C   UNL     1       6.682   6.831  16.854  0.00  0.00    +0.000 A 
ENDBRANCH   8  10
ENDBRANCH   1   8
BRANCH   1  17
ATOM     17  C   UNL     1       3.892   2.793  17.582  0.00  0.00    +0.000 C 
BRANCH  17  18
ATOM     18  O   UNL     1       4.267   1.565  18.228  0.00  0.00    +0.000 OA
ATOM     19  H   UNL     1       3.448   1.193  18.597  0.00  0.00    +0.000 HD
ENDBRANCH  17  18
BRANCH  17  20
ATOM     20  C   UNL     1       2.356   2.828  17.495  0.00  0.00    +0.000 C 
BRANCH  20  22
ATOM     21  C   UNL     1       0.646   2.531  19.140  0.00  0.00    +0.000 C 
ATOM     22  N   UNL     1       1.666   1.851  18.345  0.00  0.00    +0.000 NA
ATOM     23  H   UNL     1       2.336   1.426  18.986  0.00  0.00    +0.000 HD
ENDBRANCH  20  22
ENDBRANCH  17  20
ENDBRANCH   1  17
TORSDOF 7
ENDMDL
