MODEL 1
REMARK VINA RESULT:      -8.8      0.000      0.000
REMARK  Name = 
REMARK  5 active torsions:
REMARK  status: ('A' for Active; 'I' for Inactive)
REMARK    1  A    between atoms: C_1  and  C_2
REMARK    2  A    between atoms: C_7  and  C_8
REMARK    3  A    between atoms: C_18  and  N_19
REMARK    4  A    between atoms: N_19  and  C_20
REMARK    5  A    between atoms: C_20  and  C_21
REMARK                            x       y       z     vdW  Elec       q    Type
REMARK                         _______ _______ _______ _____ _____    ______ ____
ROOT
ATOM      1  C   UNL     1       6.981   4.408  17.745  0.00  0.00    +0.000 C 
ATOM      2  C   UNL     1       5.832   5.365  17.670  0.00  0.00    +0.000 A 
ATOM      3  C   UNL     1       5.759   6.269  16.522  0.00  0.00    +0.000 A 
ATOM      4  C   UNL     1       4.757   7.160  16.403  0.00  0.00    +0.000 A 
ATOM      5  C   UNL     1       3.781   7.247  17.418  0.00  0.00    +0.000 A 
ATOM      6  N   UNL     1       2.799   8.101  17.551  0.00  0.00    +0.000 NA
ATOM      7  C   UNL     1       2.275   7.877  18.808  0.00  0.00    +0.000 A 
ATOM      8  C   UNL     1       2.805   6.722  19.384  0.00  0.00    +0.000 A 
ATOM      9  N   UNL     1       3.854   6.390  18.511  0.00  0.00    +0.000 N 
ATOM     10  C   UNL     1       4.874   5.433  18.619  0.00  0.00    +0.000 A 
ENDROOT
BRANCH   7  11
ATOM     11  C   UNL     1       1.397   8.903  19.349  0.00  0.00    +0.000 A 
ATOM     12  C   UNL     1       0.797   9.917  18.593  0.00  0.00    +0.000 A 
ATOM     13  C   UNL     1      -0.081  10.825  19.179  0.00  0.00    +0.000 A 
ATOM     14  C   UNL     1      -0.463  10.662  20.510  0.00  0.00    +0.000 A 
ATOM     15  C   UNL     1       0.021   9.577  21.226  0.00  0.00    +0.000 A 
ATOM     16  C   UNL     1       0.983   8.745  20.678  0.00  0.00    +0.000 A 
ATOM     17  O   UNL     1      -0.474   9.219  22.451  0.00  0.00    +0.000 OA
ATOM     18  C   UNL     1      -0.789  10.384  23.187  0.00  0.00    +0.000 C 
ATOM     19  C   UNL     1      -1.610  11.416  22.418  0.00  0.00    +0.000 C 
ATOM     20  O   UNL     1      -1.325  11.577  21.024  0.00  0.00    +0.000 OA
ENDBRANCH   7  11
BRANCH   8  21
ATOM     21  N   UNL     1       2.575   6.008  20.532  0.00  0.00    +0.000 N 
ATOM     22  H   UNL     1       3.252   6.011  21.293  0.00  0.00    +0.000 HD
BRANCH  21  23
ATOM     23  C   UNL     1       1.700   4.843  20.565  0.00  0.00    +0.000 C 
BRANCH  23  24
ATOM     24  C   UNL     1       2.270   3.694  19.767  0.00  0.00    +0.000 A 
ATOM     25  C   UNL     1       1.762   3.387  18.496  0.00  0.00    +0.000 A 
ATOM     26  C   UNL     1       2.322   2.355  17.741  0.00  0.00    +0.000 A 
ATOM     27  C   UNL     1       3.390   1.619  18.251  0.00  0.00    +0.000 A 
ATOM     28  C   UNL     1       3.899   1.914  19.515  0.00  0.00    +0.000 A 
ATOM     29  C   UNL     1       3.339   2.942  20.273  0.00  0.00    +0.000 A 
ENDBRANCH  23  24
ENDBRANCH  21  23
ENDBRANCH   8  21
TORSDOF 4
ENDMDL
MODEL 2
REMARK VINA RESULT:      -8.8      1.048      3.583
REMARK  Name = 
REMARK  5 active torsions:
REMARK  status: ('A' for Active; 'I' for Inactive)
REMARK    1  A    between atoms: C_1  and  C_2
REMARK    2  A    between atoms: C_7  and  C_8
REMARK    3  A    between atoms: C_18  and  N_19
REMARK    4  A    between atoms: N_19  and  C_20
REMARK    5  A    between atoms: C_20  and  C_21
REMARK                            x       y       z     vdW  Elec       q    Type
REMARK                         _______ _______ _______ _____ _____    ______ ____
ROOT
ATOM      1  C   UNL     1       3.279   1.558  18.459  0.00  0.00    +0.000 C 
ATOM      2  C   UNL     1       2.926   2.834  19.159  0.00  0.00    +0.000 A 
ATOM      3  C   UNL     1       2.342   2.750  20.497  0.00  0.00    +0.000 A 
ATOM      4  C   UNL     1       1.993   3.860  21.173  0.00  0.00    +0.000 A 
ATOM      5  C   UNL     1       2.161   5.124  20.567  0.00  0.00    +0.000 A 
ATOM      6  N   UNL     1       1.794   6.303  20.998  0.00  0.00    +0.000 NA
ATOM      7  C   UNL     1       2.007   7.169  19.945  0.00  0.00    +0.000 A 
ATOM      8  C   UNL     1       2.716   6.554  18.912  0.00  0.00    +0.000 A 
ATOM      9  N   UNL     1       2.712   5.202  19.293  0.00  0.00    +0.000 N 
ATOM     10  C   UNL     1       3.115   4.050  18.601  0.00  0.00    +0.000 A 
ENDROOT
BRANCH   7  11
ATOM     11  C   UNL     1       1.376   8.477  20.029  0.00  0.00    +0.000 A 
ATOM     12  C   UNL     1       1.234   9.363  18.954  0.00  0.00    +0.000 A 
ATOM     13  C   UNL     1       0.562  10.573  19.104  0.00  0.00    +0.000 A 
ATOM     14  C   UNL     1      -0.080  10.866  20.306  0.00  0.00    +0.000 A 
ATOM     15  C   UNL     1      -0.060   9.930  21.331  0.00  0.00    +0.000 A 
ATOM     16  C   UNL     1       0.706   8.782  21.220  0.00  0.00    +0.000 A 
ATOM     17  O   UNL     1      -0.846  10.039  22.447  0.00  0.00    +0.000 OA
ATOM     18  C   UNL     1      -0.941  11.398  22.822  0.00  0.00    +0.000 C 
ATOM     19  C   UNL     1      -1.284  12.349  21.677  0.00  0.00    +0.000 C 
ATOM     20  O   UNL     1      -0.722  12.060  20.392  0.00  0.00    +0.000 OA
ENDBRANCH   7  11
BRANCH   8  21
ATOM     21  N   UNL     1       3.259   6.961  17.722  0.00  0.00    +0.000 N 
ATOM     22  H   UNL     1       2.841   6.685  16.835  0.00  0.00    +0.000 HD
BRANCH  21  23
ATOM     23  C   UNL     1       4.664   7.328  17.588  0.00  0.00    +0.000 C 
BRANCH  23  24
ATOM     24  C   UNL     1       5.463   6.237  16.917  0.00  0.00    +0.000 A 
ATOM     25  C   UNL     1       5.243   5.916  15.569  0.00  0.00    +0.000 A 
ATOM     26  C   UNL     1       6.016   4.939  14.938  0.00  0.00    +0.000 A 
ATOM     27  C   UNL     1       7.012   4.272  15.650  0.00  0.00    +0.000 A 
ATOM     28  C   UNL     1       7.236   4.580  16.990  0.00  0.00    +0.000 A 
ATOM     29  C   UNL     1       6.463   5.554  17.624  0.00  0.00    +0.000 A 
ENDBRANCH  23  24
ENDBRANCH  21  23
ENDBRANCH   8  21
TORSDOF 4
ENDMDL
MODEL 3
REMARK VINA RESULT:      -8.7      3.158      6.686
REMARK  Name = 
REMARK  5 active torsions:
REMARK  status: ('A' for Active; 'I' for Inactive)
REMARK    1  A    between atoms: C_1  and  C_2
REMARK    2  A    between atoms: C_7  and  C_8
REMARK    3  A    between atoms: C_18  and  N_19
REMARK    4  A    between atoms: N_19  and  C_20
REMARK    5  A    between atoms: C_20  and  C_21
REMARK                            x       y       z     vdW  Elec       q    Type
REMARK                         _______ _______ _______ _____ _____    ______ ____
ROOT
ATOM      1  C   UNL     1      -1.213  11.171  20.781  0.00  0.00    +0.000 C 
ATOM      2  C   UNL     1      -0.122  10.542  19.972  0.00  0.00    +0.000 A 
ATOM      3  C   UNL     1       0.258  11.177  18.710  0.00  0.00    +0.000 A 
ATOM      4  C   UNL     1       1.224  10.654  17.933  0.00  0.00    +0.000 A 
ATOM      5  C   UNL     1       1.856   9.454  18.323  0.00  0.00    +0.000 A 
ATOM      6  N   UNL     1       2.730   8.730  17.673  0.00  0.00    +0.000 NA
ATOM      7  C   UNL     1       2.867   7.566  18.401  0.00  0.00    +0.000 A 
ATOM      8  C   UNL     1       2.226   7.657  19.638  0.00  0.00    +0.000 A 
ATOM      9  N   UNL     1       1.491   8.848  19.520  0.00  0.00    +0.000 N 
ATOM     10  C   UNL     1       0.513   9.412  20.354  0.00  0.00    +0.000 A 
ENDROOT
BRANCH   7  11
ATOM     11  C   UNL     1       3.517   6.446  17.739  0.00  0.00    +0.000 A 
ATOM     12  C   UNL     1       3.025   5.135  17.724  0.00  0.00    +0.000 A 
ATOM     13  C   UNL     1       3.677   4.131  17.013  0.00  0.00    +0.000 A 
ATOM     14  C   UNL     1       4.772   4.447  16.210  0.00  0.00    +0.000 A 
ATOM     15  C   UNL     1       5.180   5.770  16.112  0.00  0.00    +0.000 A 
ATOM     16  C   UNL     1       4.605   6.745  16.909  0.00  0.00    +0.000 A 
ATOM     17  O   UNL     1       6.091   6.195  15.182  0.00  0.00    +0.000 OA
ATOM     18  C   UNL     1       7.083   5.203  15.010  0.00  0.00    +0.000 C 
ATOM     19  C   UNL     1       6.538   3.792  14.805  0.00  0.00    +0.000 C 
ATOM     20  O   UNL     1       5.365   3.427  15.539  0.00  0.00    +0.000 OA
ENDBRANCH   7  11
BRANCH   8  21
ATOM     21  N   UNL     1       2.130   6.863  20.750  0.00  0.00    +0.000 N 
ATOM     22  H   UNL     1       2.953   6.649  21.312  0.00  0.00    +0.000 HD
BRANCH  21  23
ATOM     23  C   UNL     1       1.065   5.882  20.920  0.00  0.00    +0.000 C 
BRANCH  23  24
ATOM     24  C   UNL     1       1.510   4.499  20.507  0.00  0.00    +0.000 A 
ATOM     25  C   UNL     1       2.714   3.963  20.989  0.00  0.00    +0.000 A 
ATOM     26  C   UNL     1       3.099   2.666  20.643  0.00  0.00    +0.000 A 
ATOM     27  C   UNL     1       2.288   1.897  19.810  0.00  0.00    +0.000 A 
ATOM     28  C   UNL     1       1.092   2.422  19.324  0.00  0.00    +0.000 A 
ATOM     29  C   UNL     1       0.706   3.718  19.665  0.00  0.00    +0.000 A 
ENDBRANCH  23  24
ENDBRANCH  21  23
ENDBRANCH   8  21
TORSDOF 4
ENDMDL
MODEL 4
REMARK VINA RESULT:      -8.7      0.961      1.910
REMARK  Name = 
REMARK  5 active torsions:
REMARK  status: ('A' for Active; 'I' for Inactive)
REMARK    1  A    between atoms: C_1  and  C_2
REMARK    2  A    between atoms: C_7  and  C_8
REMARK    3  A    between atoms: C_18  and  N_19
REMARK    4  A    between atoms: N_19  and  C_20
REMARK    5  A    between atoms: C_20  and  C_21
REMARK                            x       y       z     vdW  Elec       q    Type
REMARK                         _______ _______ _______ _____ _____    ______ ____
ROOT
ATOM      1  C   UNL     1       6.166   4.788  17.315  0.00  0.00    +0.000 C 
ATOM      2  C   UNL     1       5.045   5.722  17.651  0.00  0.00    +0.000 A 
ATOM      3  C   UNL     1       4.832   6.885  16.789  0.00  0.00    +0.000 A 
ATOM      4  C   UNL     1       3.847   7.767  17.043  0.00  0.00    +0.000 A 
ATOM      5  C   UNL     1       3.030   7.586  18.179  0.00  0.00    +0.000 A 
ATOM      6  N   UNL     1       2.100   8.369  18.662  0.00  0.00    +0.000 NA
ATOM      7  C   UNL     1       1.756   7.831  19.886  0.00  0.00    +0.000 A 
ATOM      8  C   UNL     1       2.332   6.574  20.072  0.00  0.00    +0.000 A 
ATOM      9  N   UNL     1       3.235   6.483  19.000  0.00  0.00    +0.000 N 
ATOM     10  C   UNL     1       4.234   5.539  18.716  0.00  0.00    +0.000 A 
ENDROOT
BRANCH   7  11
ATOM     11  C   UNL     1       0.993   8.679  20.789  0.00  0.00    +0.000 A 
ATOM     12  C   UNL     1       1.050   8.610  22.186  0.00  0.00    +0.000 A 
ATOM     13  C   UNL     1       0.332   9.501  22.979  0.00  0.00    +0.000 A 
ATOM     14  C   UNL     1      -0.368  10.551  22.386  0.00  0.00    +0.000 A 
ATOM     15  C   UNL     1      -0.315  10.706  21.007  0.00  0.00    +0.000 A 
ATOM     16  C   UNL     1       0.301   9.753  20.215  0.00  0.00    +0.000 A 
ATOM     17  O   UNL     1      -0.780  11.827  20.372  0.00  0.00    +0.000 OA
ATOM     18  C   UNL     1      -1.946  12.286  21.026  0.00  0.00    +0.000 C 
ATOM     19  C   UNL     1      -1.822  12.391  22.544  0.00  0.00    +0.000 C 
ATOM     20  O   UNL     1      -1.047  11.388  23.211  0.00  0.00    +0.000 OA
ENDBRANCH   7  11
BRANCH   8  21
ATOM     21  N   UNL     1       2.250   5.592  21.025  0.00  0.00    +0.000 N 
ATOM     22  H   UNL     1       2.981   5.482  21.726  0.00  0.00    +0.000 HD
BRANCH  21  23
ATOM     23  C   UNL     1       1.478   4.372  20.825  0.00  0.00    +0.000 C 
BRANCH  23  24
ATOM     24  C   UNL     1       2.192   3.403  19.913  0.00  0.00    +0.000 A 
ATOM     25  C   UNL     1       3.373   2.769  20.329  0.00  0.00    +0.000 A 
ATOM     26  C   UNL     1       4.005   1.838  19.502  0.00  0.00    +0.000 A 
ATOM     27  C   UNL     1       3.466   1.537  18.253  0.00  0.00    +0.000 A 
ATOM     28  C   UNL     1       2.296   2.163  17.829  0.00  0.00    +0.000 A 
ATOM     29  C   UNL     1       1.663   3.096  18.652  0.00  0.00    +0.000 A 
ENDBRANCH  23  24
ENDBRANCH  21  23
ENDBRANCH   8  21
TORSDOF 4
ENDMDL
MODEL 5
REMARK VINA RESULT:      -8.6      0.831      1.899
REMARK  Name = 
REMARK  5 active torsions:
REMARK  status: ('A' for Active; 'I' for Inactive)
REMARK    1  A    between atoms: C_1  and  C_2
REMARK    2  A    between atoms: C_7  and  C_8
REMARK    3  A    between atoms: C_18  and  N_19
REMARK    4  A    between atoms: N_19  and  C_20
REMARK    5  A    between atoms: C_20  and  C_21
REMARK                            x       y       z     vdW  Elec       q    Type
REMARK                         _______ _______ _______ _____ _____    ______ ____
ROOT
ATOM      1  C   UNL     1       7.111   4.626  17.845  0.00  0.00    +0.000 C 
ATOM      2  C   UNL     1       5.903   5.511  17.807  0.00  0.00    +0.000 A 
ATOM      3  C   UNL     1       5.773   6.456  16.698  0.00  0.00    +0.000 A 
ATOM      4  C   UNL     1       4.717   7.285  16.612  0.00  0.00    +0.000 A 
ATOM      5  C   UNL     1       3.736   7.267  17.627  0.00  0.00    +0.000 A 
ATOM      6  N   UNL     1       2.702   8.051  17.792  0.00  0.00    +0.000 NA
ATOM      7  C   UNL     1       2.193   7.742  19.037  0.00  0.00    +0.000 A 
ATOM      8  C   UNL     1       2.795   6.600  19.567  0.00  0.00    +0.000 A 
ATOM      9  N   UNL     1       3.863   6.372  18.683  0.00  0.00    +0.000 N 
ATOM     10  C   UNL     1       4.942   5.478  18.755  0.00  0.00    +0.000 A 
ENDROOT
BRANCH   7  11
ATOM     11  C   UNL     1       1.251   8.686  19.618  0.00  0.00    +0.000 A 
ATOM     12  C   UNL     1       0.944   8.768  20.981  0.00  0.00    +0.000 A 
ATOM     13  C   UNL     1       0.075   9.743  21.465  0.00  0.00    +0.000 A 
ATOM     14  C   UNL     1      -0.413  10.726  20.605  0.00  0.00    +0.000 A 
ATOM     15  C   UNL     1      -0.002  10.732  19.279  0.00  0.00    +0.000 A 
ATOM     16  C   UNL     1       0.767   9.696  18.777  0.00  0.00    +0.000 A 
ATOM     17  O   UNL     1      -0.250  11.780  18.433  0.00  0.00    +0.000 OA
ATOM     18  C   UNL     1      -1.529  12.313  18.710  0.00  0.00    +0.000 C 
ATOM     19  C   UNL     1      -1.796  12.580  20.189  0.00  0.00    +0.000 C 
ATOM     20  O   UNL     1      -1.253  11.652  21.134  0.00  0.00    +0.000 OA
ENDBRANCH   7  11
BRANCH   8  21
ATOM     21  N   UNL     1       2.611   5.825  20.683  0.00  0.00    +0.000 N 
ATOM     22  H   UNL     1       3.292   5.830  21.440  0.00  0.00    +0.000 HD
BRANCH  21  23
ATOM     23  C   UNL     1       1.797   4.616  20.669  0.00  0.00    +0.000 C 
BRANCH  23  24
ATOM     24  C   UNL     1       2.397   3.550  19.783  0.00  0.00    +0.000 A 
ATOM     25  C   UNL     1       3.473   2.770  20.233  0.00  0.00    +0.000 A 
ATOM     26  C   UNL     1       3.994   1.754  19.430  0.00  0.00    +0.000 A 
ATOM     27  C   UNL     1       3.449   1.512  18.170  0.00  0.00    +0.000 A 
ATOM     28  C   UNL     1       2.382   2.284  17.713  0.00  0.00    +0.000 A 
ATOM     29  C   UNL     1       1.861   3.302  18.511  0.00  0.00    +0.000 A 
ENDBRANCH  23  24
ENDBRANCH  21  23
ENDBRANCH   8  21
TORSDOF 4
ENDMDL
MODEL 6
REMARK VINA RESULT:      -8.4      3.215      8.148
REMARK  Name = 
REMARK  5 active torsions:
REMARK  status: ('A' for Active; 'I' for Inactive)
REMARK    1  A    between atoms: C_1  and  C_2
REMARK    2  A    between atoms: C_7  and  C_8
REMARK    3  A    between atoms: C_18  and  N_19
REMARK    4  A    between atoms: N_19  and  C_20
REMARK    5  A    between atoms: C_20  and  C_21
REMARK                            x       y       z     vdW  Elec       q    Type
REMARK                         _______ _______ _______ _____ _____    ______ ____
ROOT
ATOM      1  C   UNL     1      -1.713  12.611  22.929  0.00  0.00    +0.000 C 
ATOM      2  C   UNL     1      -1.026  11.372  22.443  0.00  0.00    +0.000 A 
ATOM      3  C   UNL     1      -0.592  10.388  23.435  0.00  0.00    +0.000 A 
ATOM      4  C   UNL     1       0.040   9.259  23.063  0.00  0.00    +0.000 A 
ATOM      5  C   UNL     1       0.320   9.039  21.698  0.00  0.00    +0.000 A 
ATOM      6  N   UNL     1       1.008   8.076  21.140  0.00  0.00    +0.000 NA
ATOM      7  C   UNL     1       1.153   8.438  19.816  0.00  0.00    +0.000 A 
ATOM      8  C   UNL     1       0.360   9.542  19.498  0.00  0.00    +0.000 A 
ATOM      9  N   UNL     1      -0.088   9.977  20.757  0.00  0.00    +0.000 N 
ATOM     10  C   UNL     1      -0.783  11.135  21.136  0.00  0.00    +0.000 A 
ENDROOT
BRANCH   7  11
ATOM     11  C   UNL     1       2.156   7.723  19.042  0.00  0.00    +0.000 A 
ATOM     12  C   UNL     1       2.810   8.239  17.917  0.00  0.00    +0.000 A 
ATOM     13  C   UNL     1       3.804   7.511  17.268  0.00  0.00    +0.000 A 
ATOM     14  C   UNL     1       4.240   6.300  17.804  0.00  0.00    +0.000 A 
ATOM     15  C   UNL     1       3.691   5.849  18.996  0.00  0.00    +0.000 A 
ATOM     16  C   UNL     1       2.624   6.515  19.575  0.00  0.00    +0.000 A 
ATOM     17  O   UNL     1       4.215   4.798  19.700  0.00  0.00    +0.000 OA
ATOM     18  C   UNL     1       4.682   3.816  18.798  0.00  0.00    +0.000 C 
ATOM     19  C   UNL     1       5.557   4.357  17.670  0.00  0.00    +0.000 C 
ATOM     20  O   UNL     1       5.214   5.637  17.128  0.00  0.00    +0.000 OA
ENDBRANCH   7  11
BRANCH   8  21
ATOM     21  N   UNL     1       0.057  10.230  18.353  0.00  0.00    +0.000 N 
ATOM     22  H   UNL     1      -0.003  11.247  18.355  0.00  0.00    +0.000 HD
BRANCH  21  23
ATOM     23  C   UNL     1      -0.685   9.628  17.252  0.00  0.00    +0.000 C 
BRANCH  23  24
ATOM     24  C   UNL     1      -2.026  10.293  17.053  0.00  0.00    +0.000 A 
ATOM     25  C   UNL     1      -2.640  10.298  15.791  0.00  0.00    +0.000 A 
ATOM     26  C   UNL     1      -3.902  10.872  15.621  0.00  0.00    +0.000 A 
ATOM     27  C   UNL     1      -4.556  11.451  16.708  0.00  0.00    +0.000 A 
ATOM     28  C   UNL     1      -3.952  11.455  17.963  0.00  0.00    +0.000 A 
ATOM     29  C   UNL     1      -2.691  10.884  18.136  0.00  0.00    +0.000 A 
ENDBRANCH  23  24
ENDBRANCH  21  23
ENDBRANCH   8  21
TORSDOF 4
ENDMDL
MODEL 7
REMARK VINA RESULT:      -8.4      1.444      3.897
REMARK  Name = 
REMARK  5 active torsions:
REMARK  status: ('A' for Active; 'I' for Inactive)
REMARK    1  A    between atoms: C_1  and  C_2
REMARK    2  A    between atoms: C_7  and  C_8
REMARK    3  A    between atoms: C_18  and  N_19
REMARK    4  A    between atoms: N_19  and  C_20
REMARK    5  A    between atoms: C_20  and  C_21
REMARK                            x       y       z     vdW  Elec       q    Type
REMARK                         _______ _______ _______ _____ _____    ______ ____
ROOT
ATOM      1  C   UNL     1       3.991   0.898  18.575  0.00  0.00    +0.000 C 
ATOM      2  C   UNL     1       3.319   2.163  19.015  0.00  0.00    +0.000 A 
ATOM      3  C   UNL     1       1.946   2.079  19.511  0.00  0.00    +0.000 A 
ATOM      4  C   UNL     1       1.284   3.181  19.911  0.00  0.00    +0.000 A 
ATOM      5  C   UNL     1       1.913   4.441  19.818  0.00  0.00    +0.000 A 
ATOM      6  N   UNL     1       1.421   5.630  20.048  0.00  0.00    +0.000 NA
ATOM      7  C   UNL     1       2.379   6.523  19.614  0.00  0.00    +0.000 A 
ATOM      8  C   UNL     1       3.576   5.877  19.303  0.00  0.00    +0.000 A 
ATOM      9  N   UNL     1       3.217   4.519  19.342  0.00  0.00    +0.000 N 
ATOM     10  C   UNL     1       3.925   3.369  18.962  0.00  0.00    +0.000 A 
ENDROOT
BRANCH   7  11
ATOM     11  C   UNL     1       1.963   7.906  19.439  0.00  0.00    +0.000 A 
ATOM     12  C   UNL     1       2.002   8.602  18.225  0.00  0.00    +0.000 A 
ATOM     13  C   UNL     1       1.526   9.907  18.129  0.00  0.00    +0.000 A 
ATOM     14  C   UNL     1       0.897  10.498  19.223  0.00  0.00    +0.000 A 
ATOM     15  C   UNL     1       0.731   9.763  20.389  0.00  0.00    +0.000 A 
ATOM     16  C   UNL     1       1.307   8.511  20.518  0.00  0.00    +0.000 A 
ATOM     17  O   UNL     1      -0.067  10.182  21.419  0.00  0.00    +0.000 OA
ATOM     18  C   UNL     1       0.042  11.584  21.557  0.00  0.00    +0.000 C 
ATOM     19  C   UNL     1      -0.103  12.361  20.250  0.00  0.00    +0.000 C 
ATOM     20  O   UNL     1       0.451  11.772  19.069  0.00  0.00    +0.000 OA
ENDBRANCH   7  11
BRANCH   8  21
ATOM     21  N   UNL     1       4.835   6.275  18.932  0.00  0.00    +0.000 N 
ATOM     22  H   UNL     1       5.547   6.474  19.633  0.00  0.00    +0.000 HD
BRANCH  21  23
ATOM     23  C   UNL     1       5.104   6.930  17.658  0.00  0.00    +0.000 C 
BRANCH  23  24
ATOM     24  C   UNL     1       5.685   5.969  16.649  0.00  0.00    +0.000 A 
ATOM     25  C   UNL     1       6.793   5.172  16.977  0.00  0.00    +0.000 A 
ATOM     26  C   UNL     1       7.299   4.250  16.058  0.00  0.00    +0.000 A 
ATOM     27  C   UNL     1       6.706   4.121  14.804  0.00  0.00    +0.000 A 
ATOM     28  C   UNL     1       5.608   4.910  14.466  0.00  0.00    +0.000 A 
ATOM     29  C   UNL     1       5.102   5.834  15.381  0.00  0.00    +0.000 A 
ENDBRANCH  23  24
ENDBRANCH  21  23
ENDBRANCH   8  21
TORSDOF 4
ENDMDL
MODEL 8
REMARK VINA RESULT:      -8.4      1.312      3.954
REMARK  Name = 
REMARK  5 active torsions:
REMARK  status: ('A' for Active; 'I' for Inactive)
REMARK    1  A    between atoms: C_1  and  C_2
REMARK    2  A    between atoms: C_7  and  C_8
REMARK    3  A    between atoms: C_18  and  N_19
REMARK    4  A    between atoms: N_19  and  C_20
REMARK    5  A    between atoms: C_20  and  C_21
REMARK                            x       y       z     vdW  Elec       q    Type
REMARK                         _______ _______ _______ _____ _____    ______ ____
ROOT
ATOM      1  C   UNL     1       3.311   1.616  18.021  0.00  0.00    +0.000 C 
ATOM      2  C   UNL     1       2.973   2.797  18.879  0.00  0.00    +0.000 A 
ATOM      3  C   UNL     1       2.469   2.549  20.230  0.00  0.00    +0.000 A 
ATOM      4  C   UNL     1       2.138   3.567  21.045  0.00  0.00    +0.000 A 
ATOM      5  C   UNL     1       2.245   4.894  20.576  0.00  0.00    +0.000 A 
ATOM      6  N   UNL     1       1.880   6.008  21.157  0.00  0.00    +0.000 NA
ATOM      7  C   UNL     1       2.013   6.992  20.198  0.00  0.00    +0.000 A 
ATOM      8  C   UNL     1       2.674   6.514  19.065  0.00  0.00    +0.000 A 
ATOM      9  N   UNL     1       2.719   5.129  19.291  0.00  0.00    +0.000 N 
ATOM     10  C   UNL     1       3.104   4.072  18.452  0.00  0.00    +0.000 A 
ENDROOT
BRANCH   7  11
ATOM     11  C   UNL     1       1.362   8.265  20.463  0.00  0.00    +0.000 A 
ATOM     12  C   UNL     1       0.972   8.711  21.731  0.00  0.00    +0.000 A 
ATOM     13  C   UNL     1       0.408   9.972  21.908  0.00  0.00    +0.000 A 
ATOM     14  C   UNL     1       0.331  10.855  20.831  0.00  0.00    +0.000 A 
ATOM     15  C   UNL     1       0.844  10.469  19.601  0.00  0.00    +0.000 A 
ATOM     16  C   UNL     1       1.295   9.175  19.401  0.00  0.00    +0.000 A 
ATOM     17  O   UNL     1       1.012  11.346  18.563  0.00  0.00    +0.000 OA
ATOM     18  C   UNL     1      -0.058  12.269  18.551  0.00  0.00    +0.000 C 
ATOM     19  C   UNL     1      -0.364  12.901  19.906  0.00  0.00    +0.000 C 
ATOM     20  O   UNL     1      -0.226  12.071  21.065  0.00  0.00    +0.000 OA
ENDBRANCH   7  11
BRANCH   8  21
ATOM     21  N   UNL     1       3.138   7.066  17.899  0.00  0.00    +0.000 N 
ATOM     22  H   UNL     1       2.680   6.872  17.010  0.00  0.00    +0.000 HD
BRANCH  21  23
ATOM     23  C   UNL     1       4.522   7.493  17.734  0.00  0.00    +0.000 C 
BRANCH  23  24
ATOM     24  C   UNL     1       5.359   6.427  17.068  0.00  0.00    +0.000 A 
ATOM     25  C   UNL     1       5.173   6.116  15.713  0.00  0.00    +0.000 A 
ATOM     26  C   UNL     1       5.981   5.163  15.088  0.00  0.00    +0.000 A 
ATOM     27  C   UNL     1       6.976   4.511  15.814  0.00  0.00    +0.000 A 
ATOM     28  C   UNL     1       7.166   4.810  17.161  0.00  0.00    +0.000 A 
ATOM     29  C   UNL     1       6.359   5.759  17.789  0.00  0.00    +0.000 A 
ENDBRANCH  23  24
ENDBRANCH  21  23
ENDBRANCH   8  21
TORSDOF 4
ENDMDL
MODEL 9
REMARK VINA RESULT:      -8.3      3.125      6.574
REMARK  Name = 
REMARK  5 active torsions:
REMARK  status: ('A' for Active; 'I' for Inactive)
REMARK    1  A    between atoms: C_1  and  C_2
REMARK    2  A    between atoms: C_7  and  C_8
REMARK    3  A    between atoms: C_18  and  N_19
REMARK    4  A    between atoms: N_19  and  C_20
REMARK    5  A    between atoms: C_20  and  C_21
REMARK                            x       y       z     vdW  Elec       q    Type
REMARK                         _______ _______ _______ _____ _____    ______ ____
ROOT
ATOM      1  C   UNL     1      -0.939   9.574  22.461  0.00  0.00    +0.000 C 
ATOM      2  C   UNL     1       0.042   9.210  21.389  0.00  0.00    +0.000 A 
ATOM      3  C   UNL     1       0.165  10.099  20.234  0.00  0.00    +0.000 A 
ATOM      4  C   UNL     1       1.021   9.822  19.233  0.00  0.00    +0.000 A 
ATOM      5  C   UNL     1       1.786   8.637  19.281  0.00  0.00    +0.000 A 
ATOM      6  N   UNL     1       2.585   8.131  18.378  0.00  0.00    +0.000 NA
ATOM      7  C   UNL     1       2.918   6.872  18.835  0.00  0.00    +0.000 A 
ATOM      8  C   UNL     1       2.486   6.675  20.148  0.00  0.00    +0.000 A 
ATOM      9  N   UNL     1       1.665   7.791  20.377  0.00  0.00    +0.000 N 
ATOM     10  C   UNL     1       0.804   8.096  21.443  0.00  0.00    +0.000 A 
ENDROOT
BRANCH   7  11
ATOM     11  C   UNL     1       3.520   5.960  17.876  0.00  0.00    +0.000 A 
ATOM     12  C   UNL     1       2.901   4.808  17.376  0.00  0.00    +0.000 A 
ATOM     13  C   UNL     1       3.524   4.019  16.411  0.00  0.00    +0.000 A 
ATOM     14  C   UNL     1       4.730   4.434  15.848  0.00  0.00    +0.000 A 
ATOM     15  C   UNL     1       5.281   5.646  16.242  0.00  0.00    +0.000 A 
ATOM     16  C   UNL     1       4.721   6.368  17.282  0.00  0.00    +0.000 A 
ATOM     17  O   UNL     1       6.331   6.229  15.584  0.00  0.00    +0.000 OA
ATOM     18  C   UNL     1       7.229   5.226  15.153  0.00  0.00    +0.000 C 
ATOM     19  C   UNL     1       6.569   4.051  14.435  0.00  0.00    +0.000 C 
ATOM     20  O   UNL     1       5.288   3.625  14.911  0.00  0.00    +0.000 OA
ENDBRANCH   7  11
BRANCH   8  21
ATOM     21  N   UNL     1       2.628   5.685  21.085  0.00  0.00    +0.000 N 
ATOM     22  H   UNL     1       3.529   5.509  21.527  0.00  0.00    +0.000 HD
BRANCH  21  23
ATOM     23  C   UNL     1       1.744   4.527  21.140  0.00  0.00    +0.000 C 
BRANCH  23  24
ATOM     24  C   UNL     1       2.281   3.376  20.324  0.00  0.00    +0.000 A 
ATOM     25  C   UNL     1       1.419   2.594  19.539  0.00  0.00    +0.000 A 
ATOM     26  C   UNL     1       1.926   1.560  18.749  0.00  0.00    +0.000 A 
ATOM     27  C   UNL     1       3.294   1.295  18.741  0.00  0.00    +0.000 A 
ATOM     28  C   UNL     1       4.157   2.063  19.521  0.00  0.00    +0.000 A 
ATOM     29  C   UNL     1       3.654   3.095  20.314  0.00  0.00    +0.000 A 
ENDBRANCH  23  24
ENDBRANCH  21  23
ENDBRANCH   8  21
TORSDOF 4
ENDMDL
