MODEL 1
REMARK VINA RESULT:      -8.8      0.000      0.000
REMARK  Name = 
REMARK  8 active torsions:
REMARK  status: ('A' for Active; 'I' for Inactive)
REMARK    1  A    between atoms: C_1  and  C_2
REMARK    2  A    between atoms: C_7  and  C_8
REMARK    3  A    between atoms: C_10  and  N_11
REMARK    4  A    between atoms: N_11  and  C_12
REMARK    5  A    between atoms: C_14  and  O_15
REMARK    6  A    between atoms: C_17  and  O_18
REMARK    7  A    between atoms: C_19  and  C_20
REMARK    8  A    between atoms: N_31  and  C_32
REMARK                            x       y       z     vdW  Elec       q    Type
REMARK                         _______ _______ _______ _____ _____    ______ ____
ROOT
ATOM      1  C   UNL     1      -0.125  10.665  18.798  0.00  0.00    +0.000 A 
ATOM      2  C   UNL     1      -0.820  10.037  17.748  0.00  0.00    +0.000 A 
ATOM      3  C   UNL     1      -2.099  10.427  17.398  0.00  0.00    +0.000 A 
ATOM      4  C   UNL     1      -2.749  11.432  18.098  0.00  0.00    +0.000 A 
ATOM      5  C   UNL     1      -2.067  12.104  19.124  0.00  0.00    +0.000 A 
ATOM      6  C   UNL     1      -0.734  11.771  19.449  0.00  0.00    +0.000 A 
ENDROOT
BRANCH   6   7
ATOM      7  C   UNL     1       0.082  12.623  20.387  0.00  0.00    +0.000 C 
ATOM      8  O   UNL     1      -0.196  12.665  21.580  0.00  0.00    +0.000 OA
ATOM      9  N   UNL     1       1.191  13.302  19.818  0.00  0.00    +0.000 N 
ATOM     10  C   UNL     1       1.943  14.306  20.624  0.00  0.00    +0.000 C 
ATOM     11  C   UNL     1       1.462  15.608  20.015  0.00  0.00    +0.000 A 
ATOM     12  C   UNL     1       1.501  16.891  20.521  0.00  0.00    +0.000 A 
ATOM     13  C   UNL     1       0.487  17.758  20.114  0.00  0.00    +0.000 A 
ATOM     14  C   UNL     1      -0.538  17.309  19.262  0.00  0.00    +0.000 A 
ATOM     15  C   UNL     1      -0.445  16.068  18.632  0.00  0.00    +0.000 A 
ATOM     16  C   UNL     1       0.645  15.282  18.927  0.00  0.00    +0.000 A 
ATOM     17  C   UNL     1       0.973  13.889  18.510  0.00  0.00    +0.000 C 
ENDBRANCH   6   7
BRANCH   1  18
ATOM     18  N   UNL     1       1.165  10.217  19.167  0.00  0.00    +0.000 N 
ATOM     19  H   UNL     1       1.835  10.979  19.289  0.00  0.00    +0.000 HD
BRANCH  18  22
ATOM     20  C   UNL     1       2.611   7.008  18.521  0.00  0.00    +0.000 A 
ATOM     21  C   UNL     1       2.194   8.262  18.004  0.00  0.00    +0.000 A 
ATOM     22  C   UNL     1       1.637   8.951  19.059  0.00  0.00    +0.000 A 
ATOM     23  N   UNL     1       1.688   8.079  20.116  0.00  0.00    +0.000 N 
ATOM     24  C   UNL     1       1.140   8.250  21.440  0.00  0.00    +0.000 C 
ATOM     25  N   UNL     1       2.280   6.906  19.818  0.00  0.00    +0.000 NA
BRANCH  20  32
ATOM     26  C   UNL     1       1.535   4.202  17.995  0.00  0.00    +0.000 C 
ATOM     27  C   UNL     1       2.920   4.655  17.608  0.00  0.00    +0.000 A 
ATOM     28  C   UNL     1       3.764   3.726  16.973  0.00  0.00    +0.000 A 
ATOM     29  C   UNL     1       5.038   4.089  16.524  0.00  0.00    +0.000 A 
ATOM     30  C   UNL     1       5.486   5.390  16.700  0.00  0.00    +0.000 A 
ATOM     31  C   UNL     1       4.665   6.323  17.344  0.00  0.00    +0.000 A 
ATOM     32  C   UNL     1       3.384   5.968  17.813  0.00  0.00    +0.000 A 
ENDBRANCH  20  32
ENDBRANCH  18  22
ENDBRANCH   1  18
BRANCH   3  33
ATOM     33  O   UNL     1      -2.766   9.840  16.357  0.00  0.00    +0.000 OA
ATOM     34  H   UNL     1      -3.175  10.545  15.814  0.00  0.00    +0.000 HD
ENDBRANCH   3  33
BRANCH   5  35
ATOM     35  O   UNL     1      -2.714  13.120  19.759  0.00  0.00    +0.000 OA
ATOM     36  H   UNL     1      -2.941  13.809  19.110  0.00  0.00    +0.000 HD
ENDBRANCH   5  35
TORSDOF 6
ENDMDL
MODEL 2
REMARK VINA RESULT:      -8.4      0.662      1.352
REMARK  Name = 
REMARK  8 active torsions:
REMARK  status: ('A' for Active; 'I' for Inactive)
REMARK    1  A    between atoms: C_1  and  C_2
REMARK    2  A    between atoms: C_7  and  C_8
REMARK    3  A    between atoms: C_10  and  N_11
REMARK    4  A    between atoms: N_11  and  C_12
REMARK    5  A    between atoms: C_14  and  O_15
REMARK    6  A    between atoms: C_17  and  O_18
REMARK    7  A    between atoms: C_19  and  C_20
REMARK    8  A    between atoms: N_31  and  C_32
REMARK                            x       y       z     vdW  Elec       q    Type
REMARK                         _______ _______ _______ _____ _____    ______ ____
ROOT
ATOM      1  C   UNL     1       0.102  10.559  18.710  0.00  0.00    +0.000 A 
ATOM      2  C   UNL     1      -0.830  10.039  17.792  0.00  0.00    +0.000 A 
ATOM      3  C   UNL     1      -2.126  10.517  17.735  0.00  0.00    +0.000 A 
ATOM      4  C   UNL     1      -2.555  11.504  18.609  0.00  0.00    +0.000 A 
ATOM      5  C   UNL     1      -1.637  12.069  19.509  0.00  0.00    +0.000 A 
ATOM      6  C   UNL     1      -0.291  11.647  19.533  0.00  0.00    +0.000 A 
ENDROOT
BRANCH   6   7
ATOM      7  C   UNL     1       0.750  12.391  20.328  0.00  0.00    +0.000 C 
ATOM      8  O   UNL     1       0.752  12.329  21.552  0.00  0.00    +0.000 OA
ATOM      9  N   UNL     1       1.730  13.097  19.581  0.00  0.00    +0.000 N 
ATOM     10  C   UNL     1       2.686  14.006  20.276  0.00  0.00    +0.000 C 
ATOM     11  C   UNL     1       2.135  15.368  19.907  0.00  0.00    +0.000 A 
ATOM     12  C   UNL     1       2.340  16.598  20.498  0.00  0.00    +0.000 A 
ATOM     13  C   UNL     1       1.298  17.521  20.410  0.00  0.00    +0.000 A 
ATOM     14  C   UNL     1       0.089  17.173  19.779  0.00  0.00    +0.000 A 
ATOM     15  C   UNL     1      -0.015  15.994  19.041  0.00  0.00    +0.000 A 
ATOM     16  C   UNL     1       1.080  15.162  19.011  0.00  0.00    +0.000 A 
ATOM     17  C   UNL     1       1.247  13.807  18.413  0.00  0.00    +0.000 C 
ENDBRANCH   6   7
BRANCH   1  18
ATOM     18  N   UNL     1       1.409  10.021  18.780  0.00  0.00    +0.000 N 
ATOM     19  H   UNL     1       2.131  10.684  18.489  0.00  0.00    +0.000 HD
BRANCH  18  22
ATOM     20  C   UNL     1       2.454   6.602  18.641  0.00  0.00    +0.000 A 
ATOM     21  C   UNL     1       2.140   7.790  17.930  0.00  0.00    +0.000 A 
ATOM     22  C   UNL     1       1.734   8.709  18.874  0.00  0.00    +0.000 A 
ATOM     23  N   UNL     1       1.764   8.029  20.064  0.00  0.00    +0.000 N 
ATOM     24  C   UNL     1       1.330   8.486  21.363  0.00  0.00    +0.000 C 
ATOM     25  N   UNL     1       2.204   6.761  19.949  0.00  0.00    +0.000 NA
BRANCH  20  32
ATOM     26  C   UNL     1       5.374   6.429  17.771  0.00  0.00    +0.000 C 
ATOM     27  C   UNL     1       4.391   5.293  17.638  0.00  0.00    +0.000 A 
ATOM     28  C   UNL     1       4.848   4.088  17.077  0.00  0.00    +0.000 A 
ATOM     29  C   UNL     1       4.016   2.968  16.981  0.00  0.00    +0.000 A 
ATOM     30  C   UNL     1       2.714   3.035  17.452  0.00  0.00    +0.000 A 
ATOM     31  C   UNL     1       2.237   4.232  18.000  0.00  0.00    +0.000 A 
ATOM     32  C   UNL     1       3.060   5.373  18.090  0.00  0.00    +0.000 A 
ENDBRANCH  20  32
ENDBRANCH  18  22
ENDBRANCH   1  18
BRANCH   3  33
ATOM     33  O   UNL     1      -3.026  10.036  16.823  0.00  0.00    +0.000 OA
ATOM     34  H   UNL     1      -3.866   9.844  17.289  0.00  0.00    +0.000 HD
ENDBRANCH   3  33
BRANCH   5  35
ATOM     35  O   UNL     1      -2.077  13.072  20.319  0.00  0.00    +0.000 OA
ATOM     36  H   UNL     1      -2.957  13.361  20.021  0.00  0.00    +0.000 HD
ENDBRANCH   5  35
TORSDOF 6
ENDMDL
MODEL 3
REMARK VINA RESULT:      -8.3      1.196      1.304
REMARK  Name = 
REMARK  8 active torsions:
REMARK  status: ('A' for Active; 'I' for Inactive)
REMARK    1  A    between atoms: C_1  and  C_2
REMARK    2  A    between atoms: C_7  and  C_8
REMARK    3  A    between atoms: C_10  and  N_11
REMARK    4  A    between atoms: N_11  and  C_12
REMARK    5  A    between atoms: C_14  and  O_15
REMARK    6  A    between atoms: C_17  and  O_18
REMARK    7  A    between atoms: C_19  and  C_20
REMARK    8  A    between atoms: N_31  and  C_32
REMARK                            x       y       z     vdW  Elec       q    Type
REMARK                         _______ _______ _______ _____ _____    ______ ____
ROOT
ATOM      1  C   UNL     1       0.105  10.489  18.732  0.00  0.00    +0.000 A 
ATOM      2  C   UNL     1      -0.670   9.900  17.717  0.00  0.00    +0.000 A 
ATOM      3  C   UNL     1      -1.927  10.381  17.400  0.00  0.00    +0.000 A 
ATOM      4  C   UNL     1      -2.475  11.443  18.103  0.00  0.00    +0.000 A 
ATOM      5  C   UNL     1      -1.710  12.077  19.095  0.00  0.00    +0.000 A 
ATOM      6  C   UNL     1      -0.397  11.648  19.382  0.00  0.00    +0.000 A 
ENDROOT
BRANCH   6   7
ATOM      7  C   UNL     1       0.512  12.449  20.279  0.00  0.00    +0.000 C 
ATOM      8  O   UNL     1       0.355  12.428  21.494  0.00  0.00    +0.000 OA
ATOM      9  N   UNL     1       1.563  13.159  19.639  0.00  0.00    +0.000 N 
ATOM     10  C   UNL     1       2.395  14.119  20.418  0.00  0.00    +0.000 C 
ATOM     11  C   UNL     1       1.862  15.451  19.931  0.00  0.00    +0.000 A 
ATOM     12  C   UNL     1       1.957  16.705  20.497  0.00  0.00    +0.000 A 
ATOM     13  C   UNL     1       0.912  17.593  20.240  0.00  0.00    +0.000 A 
ATOM     14  C   UNL     1      -0.195  17.188  19.471  0.00  0.00    +0.000 A 
ATOM     15  C   UNL     1      -0.171  15.983  18.770  0.00  0.00    +0.000 A 
ATOM     16  C   UNL     1       0.940  15.183  18.913  0.00  0.00    +0.000 A 
ATOM     17  C   UNL     1       1.218  13.815  18.392  0.00  0.00    +0.000 C 
ENDBRANCH   6   7
BRANCH   1  18
ATOM     18  N   UNL     1       1.369   9.949  19.068  0.00  0.00    +0.000 N 
ATOM     19  H   UNL     1       2.150  10.518  18.733  0.00  0.00    +0.000 HD
BRANCH  18  22
ATOM     20  C   UNL     1       2.307   6.576  19.808  0.00  0.00    +0.000 A 
ATOM     21  C   UNL     1       2.216   7.611  18.841  0.00  0.00    +0.000 A 
ATOM     22  C   UNL     1       1.618   8.680  19.473  0.00  0.00    +0.000 A 
ATOM     23  N   UNL     1       1.330   8.227  20.735  0.00  0.00    +0.000 N 
ATOM     24  C   UNL     1       0.602   8.905  21.781  0.00  0.00    +0.000 C 
ATOM     25  N   UNL     1       1.744   6.966  20.962  0.00  0.00    +0.000 NA
BRANCH  20  32
ATOM     26  C   UNL     1       0.894   3.897  20.173  0.00  0.00    +0.000 C 
ATOM     27  C   UNL     1       2.365   4.034  19.870  0.00  0.00    +0.000 A 
ATOM     28  C   UNL     1       3.127   2.858  19.754  0.00  0.00    +0.000 A 
ATOM     29  C   UNL     1       4.481   2.901  19.409  0.00  0.00    +0.000 A 
ATOM     30  C   UNL     1       5.094   4.121  19.169  0.00  0.00    +0.000 A 
ATOM     31  C   UNL     1       4.353   5.303  19.295  0.00  0.00    +0.000 A 
ATOM     32  C   UNL     1       2.991   5.276  19.655  0.00  0.00    +0.000 A 
ENDBRANCH  20  32
ENDBRANCH  18  22
ENDBRANCH   1  18
BRANCH   3  33
ATOM     33  O   UNL     1      -2.671   9.831  16.392  0.00  0.00    +0.000 OA
ATOM     34  H   UNL     1      -2.210   9.028  16.070  0.00  0.00    +0.000 HD
ENDBRANCH   3  33
BRANCH   5  35
ATOM     35  O   UNL     1      -2.257  13.150  19.731  0.00  0.00    +0.000 OA
ATOM     36  H   UNL     1      -3.157  12.923  20.023  0.00  0.00    +0.000 HD
ENDBRANCH   5  35
TORSDOF 6
ENDMDL
MODEL 4
REMARK VINA RESULT:      -8.3      6.769      9.959
REMARK  Name = 
REMARK  8 active torsions:
REMARK  status: ('A' for Active; 'I' for Inactive)
REMARK    1  A    between atoms: C_1  and  C_2
REMARK    2  A    between atoms: C_7  and  C_8
REMARK    3  A    between atoms: C_10  and  N_11
REMARK    4  A    between atoms: N_11  and  C_12
REMARK    5  A    between atoms: C_14  and  O_15
REMARK    6  A    between atoms: C_17  and  O_18
REMARK    7  A    between atoms: C_19  and  C_20
REMARK    8  A    between atoms: N_31  and  C_32
REMARK                            x       y       z     vdW  Elec       q    Type
REMARK                         _______ _______ _______ _____ _____    ______ ____
ROOT
ATOM      1  C   UNL     1       6.057   6.361  16.659  0.00  0.00    +0.000 A 
ATOM      2  C   UNL     1       6.511   6.154  15.343  0.00  0.00    +0.000 A 
ATOM      3  C   UNL     1       6.490   4.899  14.764  0.00  0.00    +0.000 A 
ATOM      4  C   UNL     1       6.048   3.797  15.481  0.00  0.00    +0.000 A 
ATOM      5  C   UNL     1       5.552   3.979  16.782  0.00  0.00    +0.000 A 
ATOM      6  C   UNL     1       5.497   5.263  17.364  0.00  0.00    +0.000 A 
ENDROOT
BRANCH   6   7
ATOM      7  C   UNL     1       4.768   5.506  18.661  0.00  0.00    +0.000 C 
ATOM      8  O   UNL     1       5.339   5.331  19.731  0.00  0.00    +0.000 OA
ATOM      9  N   UNL     1       3.439   5.992  18.555  0.00  0.00    +0.000 N 
ATOM     10  C   UNL     1       2.581   6.088  19.771  0.00  0.00    +0.000 C 
ATOM     11  C   UNL     1       1.643   4.913  19.576  0.00  0.00    +0.000 A 
ATOM     12  C   UNL     1       0.856   4.247  20.492  0.00  0.00    +0.000 A 
ATOM     13  C   UNL     1       0.610   2.896  20.245  0.00  0.00    +0.000 A 
ATOM     14  C   UNL     1       1.186   2.258  19.131  0.00  0.00    +0.000 A 
ATOM     15  C   UNL     1       1.823   3.001  18.137  0.00  0.00    +0.000 A 
ATOM     16  C   UNL     1       1.923   4.360  18.322  0.00  0.00    +0.000 A 
ATOM     17  C   UNL     1       2.626   5.395  17.512  0.00  0.00    +0.000 C 
ENDBRANCH   6   7
BRANCH   1  18
ATOM     18  N   UNL     1       6.133   7.647  17.245  0.00  0.00    +0.000 N 
ATOM     19  H   UNL     1       5.311   8.224  17.053  0.00  0.00    +0.000 HD
BRANCH  18  22
ATOM     20  C   UNL     1       8.890   9.611  18.407  0.00  0.00    +0.000 A 
ATOM     21  C   UNL     1       7.740   9.529  17.579  0.00  0.00    +0.000 A 
ATOM     22  C   UNL     1       7.250   8.248  17.721  0.00  0.00    +0.000 A 
ATOM     23  N   UNL     1       8.139   7.622  18.555  0.00  0.00    +0.000 N 
ATOM     24  C   UNL     1       8.165   6.233  18.950  0.00  0.00    +0.000 C 
ATOM     25  N   UNL     1       9.130   8.426  18.988  0.00  0.00    +0.000 NA
BRANCH  20  32
ATOM     26  C   UNL     1       9.023  10.889  21.174  0.00  0.00    +0.000 C 
ATOM     27  C   UNL     1       9.719  11.447  19.958  0.00  0.00    +0.000 A 
ATOM     28  C   UNL     1      10.468  12.627  20.111  0.00  0.00    +0.000 A 
ATOM     29  C   UNL     1      11.196  13.169  19.048  0.00  0.00    +0.000 A 
ATOM     30  C   UNL     1      11.191  12.536  17.814  0.00  0.00    +0.000 A 
ATOM     31  C   UNL     1      10.438  11.368  17.641  0.00  0.00    +0.000 A 
ATOM     32  C   UNL     1       9.689  10.817  18.699  0.00  0.00    +0.000 A 
ENDBRANCH  20  32
ENDBRANCH  18  22
ENDBRANCH   1  18
BRANCH   3  33
ATOM     33  O   UNL     1       6.901   4.699  13.474  0.00  0.00    +0.000 OA
ATOM     34  H   UNL     1       6.132   4.397  12.948  0.00  0.00    +0.000 HD
ENDBRANCH   3  33
BRANCH   5  35
ATOM     35  O   UNL     1       5.079   2.885  17.440  0.00  0.00    +0.000 OA
ATOM     36  H   UNL     1       4.352   2.492  16.926  0.00  0.00    +0.000 HD
ENDBRANCH   5  35
TORSDOF 6
ENDMDL
MODEL 5
REMARK VINA RESULT:      -8.3      3.545      9.087
REMARK  Name = 
REMARK  8 active torsions:
REMARK  status: ('A' for Active; 'I' for Inactive)
REMARK    1  A    between atoms: C_1  and  C_2
REMARK    2  A    between atoms: C_7  and  C_8
REMARK    3  A    between atoms: C_10  and  N_11
REMARK    4  A    between atoms: N_11  and  C_12
REMARK    5  A    between atoms: C_14  and  O_15
REMARK    6  A    between atoms: C_17  and  O_18
REMARK    7  A    between atoms: C_19  and  C_20
REMARK    8  A    between atoms: N_31  and  C_32
REMARK                            x       y       z     vdW  Elec       q    Type
REMARK                         _______ _______ _______ _____ _____    ______ ____
ROOT
ATOM      1  C   UNL     1       2.201   5.951  19.967  0.00  0.00    +0.000 A 
ATOM      2  C   UNL     1       1.579   5.028  20.827  0.00  0.00    +0.000 A 
ATOM      3  C   UNL     1       1.353   3.721  20.438  0.00  0.00    +0.000 A 
ATOM      4  C   UNL     1       1.706   3.291  19.168  0.00  0.00    +0.000 A 
ATOM      5  C   UNL     1       2.363   4.178  18.301  0.00  0.00    +0.000 A 
ATOM      6  C   UNL     1       2.669   5.495  18.706  0.00  0.00    +0.000 A 
ENDROOT
BRANCH   6   7
ATOM      7  C   UNL     1       3.564   6.382  17.880  0.00  0.00    +0.000 C 
ATOM      8  O   UNL     1       3.078   7.184  17.091  0.00  0.00    +0.000 OA
ATOM      9  N   UNL     1       4.959   6.268  18.117  0.00  0.00    +0.000 N 
ATOM     10  C   UNL     1       5.926   6.968  17.225  0.00  0.00    +0.000 C 
ATOM     11  C   UNL     1       6.471   5.817  16.403  0.00  0.00    +0.000 A 
ATOM     12  C   UNL     1       7.128   5.827  15.190  0.00  0.00    +0.000 A 
ATOM     13  C   UNL     1       6.957   4.710  14.373  0.00  0.00    +0.000 A 
ATOM     14  C   UNL     1       6.116   3.655  14.772  0.00  0.00    +0.000 A 
ATOM     15  C   UNL     1       5.616   3.599  16.073  0.00  0.00    +0.000 A 
ATOM     16  C   UNL     1       5.922   4.639  16.920  0.00  0.00    +0.000 A 
ATOM     17  C   UNL     1       5.461   4.920  18.309  0.00  0.00    +0.000 C 
ENDBRANCH   6   7
BRANCH   1  18
ATOM     18  N   UNL     1       2.378   7.296  20.372  0.00  0.00    +0.000 N 
ATOM     19  H   UNL     1       3.147   7.416  21.035  0.00  0.00    +0.000 HD
BRANCH  18  22
ATOM     20  C   UNL     1      -0.104   9.761  19.621  0.00  0.00    +0.000 A 
ATOM     21  C   UNL     1       0.767   8.750  19.138  0.00  0.00    +0.000 A 
ATOM     22  C   UNL     1       1.484   8.303  20.227  0.00  0.00    +0.000 A 
ATOM     23  N   UNL     1       1.064   9.087  21.270  0.00  0.00    +0.000 N 
ATOM     24  C   UNL     1       1.570   9.117  22.622  0.00  0.00    +0.000 C 
ATOM     25  N   UNL     1       0.102   9.966  20.931  0.00  0.00    +0.000 NA
BRANCH  20  32
ATOM     26  C   UNL     1      -1.642  12.155  20.721  0.00  0.00    +0.000 C 
ATOM     27  C   UNL     1      -1.919  11.526  19.378  0.00  0.00    +0.000 A 
ATOM     28  C   UNL     1      -2.948  12.074  18.593  0.00  0.00    +0.000 A 
ATOM     29  C   UNL     1      -3.221  11.589  17.310  0.00  0.00    +0.000 A 
ATOM     30  C   UNL     1      -2.463  10.551  16.790  0.00  0.00    +0.000 A 
ATOM     31  C   UNL     1      -1.444   9.984  17.565  0.00  0.00    +0.000 A 
ATOM     32  C   UNL     1      -1.167  10.453  18.864  0.00  0.00    +0.000 A 
ENDBRANCH  20  32
ENDBRANCH  18  22
ENDBRANCH   1  18
BRANCH   3  33
ATOM     33  O   UNL     1       0.778   2.811  21.284  0.00  0.00    +0.000 OA
ATOM     34  H   UNL     1      -0.023   2.450  20.850  0.00  0.00    +0.000 HD
ENDBRANCH   3  33
BRANCH   5  35
ATOM     35  O   UNL     1       2.742   3.710  17.080  0.00  0.00    +0.000 OA
ATOM     36  H   UNL     1       1.988   3.768  16.467  0.00  0.00    +0.000 HD
ENDBRANCH   5  35
TORSDOF 6
ENDMDL
MODEL 6
REMARK VINA RESULT:      -8.3      2.398      3.443
REMARK  Name = 
REMARK  8 active torsions:
REMARK  status: ('A' for Active; 'I' for Inactive)
REMARK    1  A    between atoms: C_1  and  C_2
REMARK    2  A    between atoms: C_7  and  C_8
REMARK    3  A    between atoms: C_10  and  N_11
REMARK    4  A    between atoms: N_11  and  C_12
REMARK    5  A    between atoms: C_14  and  O_15
REMARK    6  A    between atoms: C_17  and  O_18
REMARK    7  A    between atoms: C_19  and  C_20
REMARK    8  A    between atoms: N_31  and  C_32
REMARK                            x       y       z     vdW  Elec       q    Type
REMARK                         _______ _______ _______ _____ _____    ______ ____
ROOT
ATOM      1  C   UNL     1       0.853  11.684  18.782  0.00  0.00    +0.000 A 
ATOM      2  C   UNL     1       2.155  11.937  18.313  0.00  0.00    +0.000 A 
ATOM      3  C   UNL     1       2.644  13.226  18.208  0.00  0.00    +0.000 A 
ATOM      4  C   UNL     1       1.848  14.313  18.533  0.00  0.00    +0.000 A 
ATOM      5  C   UNL     1       0.558  14.091  19.042  0.00  0.00    +0.000 A 
ATOM      6  C   UNL     1       0.067  12.781  19.226  0.00  0.00    +0.000 A 
ENDROOT
BRANCH   6   7
ATOM      7  C   UNL     1      -1.216  12.522  19.973  0.00  0.00    +0.000 C 
ATOM      8  O   UNL     1      -2.296  12.680  19.416  0.00  0.00    +0.000 OA
ATOM      9  N   UNL     1      -1.086  12.040  21.302  0.00  0.00    +0.000 N 
ATOM     10  C   UNL     1      -2.288  11.930  22.176  0.00  0.00    +0.000 C 
ATOM     11  C   UNL     1      -2.098  13.110  23.109  0.00  0.00    +0.000 A 
ATOM     12  C   UNL     1      -3.012  13.765  23.907  0.00  0.00    +0.000 A 
ATOM     13  C   UNL     1      -2.781  15.120  24.146  0.00  0.00    +0.000 A 
ATOM     14  C   UNL     1      -1.683  15.772  23.554  0.00  0.00    +0.000 A 
ATOM     15  C   UNL     1      -0.688  15.042  22.905  0.00  0.00    +0.000 A 
ATOM     16  C   UNL     1      -0.855  13.679  22.811  0.00  0.00    +0.000 A 
ATOM     17  C   UNL     1      -0.040  12.654  22.099  0.00  0.00    +0.000 C 
ENDBRANCH   6   7
BRANCH   1  18
ATOM     18  N   UNL     1       0.360  10.359  18.837  0.00  0.00    +0.000 N 
ATOM     19  H   UNL     1      -0.616  10.306  19.136  0.00  0.00    +0.000 HD
BRANCH  18  22
ATOM     20  C   UNL     1       2.439   7.471  18.456  0.00  0.00    +0.000 A 
ATOM     21  C   UNL     1       1.676   8.491  17.830  0.00  0.00    +0.000 A 
ATOM     22  C   UNL     1       1.102   9.225  18.846  0.00  0.00    +0.000 A 
ATOM     23  N   UNL     1       1.487   8.592  19.999  0.00  0.00    +0.000 N 
ATOM     24  C   UNL     1       1.078   8.879  21.353  0.00  0.00    +0.000 C 
ATOM     25  N   UNL     1       2.300   7.538  19.789  0.00  0.00    +0.000 NA
BRANCH  20  32
ATOM     26  C   UNL     1       1.787   4.506  18.155  0.00  0.00    +0.000 C 
ATOM     27  C   UNL     1       3.081   5.131  17.696  0.00  0.00    +0.000 A 
ATOM     28  C   UNL     1       4.042   4.295  17.101  0.00  0.00    +0.000 A 
ATOM     29  C   UNL     1       5.238   4.811  16.591  0.00  0.00    +0.000 A 
ATOM     30  C   UNL     1       5.488   6.173  16.664  0.00  0.00    +0.000 A 
ATOM     31  C   UNL     1       4.549   7.017  17.268  0.00  0.00    +0.000 A 
ATOM     32  C   UNL     1       3.346   6.510  17.798  0.00  0.00    +0.000 A 
ENDBRANCH  20  32
ENDBRANCH  18  22
ENDBRANCH   1  18
BRANCH   3  33
ATOM     33  O   UNL     1       3.921  13.474  17.781  0.00  0.00    +0.000 OA
ATOM     34  H   UNL     1       4.542  13.003  18.374  0.00  0.00    +0.000 HD
ENDBRANCH   3  33
BRANCH   5  35
ATOM     35  O   UNL     1      -0.180  15.178  19.400  0.00  0.00    +0.000 OA
ATOM     36  H   UNL     1      -0.924  15.277  18.782  0.00  0.00    +0.000 HD
ENDBRANCH   5  35
TORSDOF 6
ENDMDL
MODEL 7
REMARK VINA RESULT:      -8.1      1.483      2.269
REMARK  Name = 
REMARK  8 active torsions:
REMARK  status: ('A' for Active; 'I' for Inactive)
REMARK    1  A    between atoms: C_1  and  C_2
REMARK    2  A    between atoms: C_7  and  C_8
REMARK    3  A    between atoms: C_10  and  N_11
REMARK    4  A    between atoms: N_11  and  C_12
REMARK    5  A    between atoms: C_14  and  O_15
REMARK    6  A    between atoms: C_17  and  O_18
REMARK    7  A    between atoms: C_19  and  C_20
REMARK    8  A    between atoms: N_31  and  C_32
REMARK                            x       y       z     vdW  Elec       q    Type
REMARK                         _______ _______ _______ _____ _____    ______ ____
ROOT
ATOM      1  C   UNL     1      -0.255  10.643  19.875  0.00  0.00    +0.000 A 
ATOM      2  C   UNL     1      -1.087   9.926  18.995  0.00  0.00    +0.000 A 
ATOM      3  C   UNL     1      -2.213  10.503  18.439  0.00  0.00    +0.000 A 
ATOM      4  C   UNL     1      -2.575  11.802  18.762  0.00  0.00    +0.000 A 
ATOM      5  C   UNL     1      -1.743  12.556  19.606  0.00  0.00    +0.000 A 
ATOM      6  C   UNL     1      -0.550  12.010  20.125  0.00  0.00    +0.000 A 
ENDROOT
BRANCH   6   7
ATOM      7  C   UNL     1       0.458  12.869  20.844  0.00  0.00    +0.000 C 
ATOM      8  O   UNL     1       0.299  13.147  22.026  0.00  0.00    +0.000 OA
ATOM      9  N   UNL     1       1.595  13.268  20.093  0.00  0.00    +0.000 N 
ATOM     10  C   UNL     1       2.550  14.263  20.660  0.00  0.00    +0.000 C 
ATOM     11  C   UNL     1       2.202  15.506  19.866  0.00  0.00    +0.000 A 
ATOM     12  C   UNL     1       2.465  16.833  20.136  0.00  0.00    +0.000 A 
ATOM     13  C   UNL     1       1.550  17.768  19.651  0.00  0.00    +0.000 A 
ATOM     14  C   UNL     1       0.399  17.347  18.960  0.00  0.00    +0.000 A 
ATOM     15  C   UNL     1       0.260  16.020  18.551  0.00  0.00    +0.000 A 
ATOM     16  C   UNL     1       1.252  15.136  18.907  0.00  0.00    +0.000 A 
ATOM     17  C   UNL     1       1.343  13.660  18.720  0.00  0.00    +0.000 C 
ENDBRANCH   6   7
BRANCH   1  18
ATOM     18  N   UNL     1       0.867  10.015  20.467  0.00  0.00    +0.000 N 
ATOM     19  H   UNL     1       1.424  10.650  21.043  0.00  0.00    +0.000 HD
BRANCH  18  22
ATOM     20  C   UNL     1       2.073   6.706  19.832  0.00  0.00    +0.000 A 
ATOM     21  C   UNL     1       1.526   7.626  20.765  0.00  0.00    +0.000 A 
ATOM     22  C   UNL     1       1.407   8.828  20.101  0.00  0.00    +0.000 A 
ATOM     23  N   UNL     1       1.931   8.596  18.856  0.00  0.00    +0.000 N 
ATOM     24  C   UNL     1       2.153   9.545  17.791  0.00  0.00    +0.000 C 
ATOM     25  N   UNL     1       2.329   7.323  18.668  0.00  0.00    +0.000 NA
BRANCH  20  32
ATOM     26  C   UNL     1       4.724   5.293  19.300  0.00  0.00    +0.000 C 
ATOM     27  C   UNL     1       3.467   4.582  19.734  0.00  0.00    +0.000 A 
ATOM     28  C   UNL     1       3.522   3.187  19.897  0.00  0.00    +0.000 A 
ATOM     29  C   UNL     1       2.418   2.465  20.361  0.00  0.00    +0.000 A 
ATOM     30  C   UNL     1       1.242   3.129  20.674  0.00  0.00    +0.000 A 
ATOM     31  C   UNL     1       1.165   4.516  20.503  0.00  0.00    +0.000 A 
ATOM     32  C   UNL     1       2.265   5.255  20.024  0.00  0.00    +0.000 A 
ENDBRANCH  20  32
ENDBRANCH  18  22
ENDBRANCH   1  18
BRANCH   3  33
ATOM     33  O   UNL     1      -3.007   9.819  17.559  0.00  0.00    +0.000 OA
ATOM     34  H   UNL     1      -2.479   9.095  17.165  0.00  0.00    +0.000 HD
ENDBRANCH   3  33
BRANCH   5  35
ATOM     35  O   UNL     1      -2.099  13.845  19.862  0.00  0.00    +0.000 OA
ATOM     36  H   UNL     1      -2.689  14.161  19.156  0.00  0.00    +0.000 HD
ENDBRANCH   5  35
TORSDOF 6
ENDMDL
MODEL 8
REMARK VINA RESULT:      -7.9      3.691      9.414
REMARK  Name = 
REMARK  8 active torsions:
REMARK  status: ('A' for Active; 'I' for Inactive)
REMARK    1  A    between atoms: C_1  and  C_2
REMARK    2  A    between atoms: C_7  and  C_8
REMARK    3  A    between atoms: C_10  and  N_11
REMARK    4  A    between atoms: N_11  and  C_12
REMARK    5  A    between atoms: C_14  and  O_15
REMARK    6  A    between atoms: C_17  and  O_18
REMARK    7  A    between atoms: C_19  and  C_20
REMARK    8  A    between atoms: N_31  and  C_32
REMARK                            x       y       z     vdW  Elec       q    Type
REMARK                         _______ _______ _______ _____ _____    ______ ____
ROOT
ATOM      1  C   UNL     1       2.251   6.034  19.652  0.00  0.00    +0.000 A 
ATOM      2  C   UNL     1       1.524   5.149  20.469  0.00  0.00    +0.000 A 
ATOM      3  C   UNL     1       1.227   3.864  20.052  0.00  0.00    +0.000 A 
ATOM      4  C   UNL     1       1.612   3.423  18.795  0.00  0.00    +0.000 A 
ATOM      5  C   UNL     1       2.373   4.270  17.974  0.00  0.00    +0.000 A 
ATOM      6  C   UNL     1       2.749   5.558  18.410  0.00  0.00    +0.000 A 
ENDROOT
BRANCH   6   7
ATOM      7  C   UNL     1       3.744   6.388  17.641  0.00  0.00    +0.000 C 
ATOM      8  O   UNL     1       3.356   7.248  16.859  0.00  0.00    +0.000 OA
ATOM      9  N   UNL     1       5.115   6.150  17.922  0.00  0.00    +0.000 N 
ATOM     10  C   UNL     1       6.170   6.789  17.084  0.00  0.00    +0.000 C 
ATOM     11  C   UNL     1       6.646   5.618  16.248  0.00  0.00    +0.000 A 
ATOM     12  C   UNL     1       7.345   5.605  15.058  0.00  0.00    +0.000 A 
ATOM     13  C   UNL     1       7.111   4.527  14.204  0.00  0.00    +0.000 A 
ATOM     14  C   UNL     1       6.171   3.538  14.544  0.00  0.00    +0.000 A 
ATOM     15  C   UNL     1       5.622   3.489  15.825  0.00  0.00    +0.000 A 
ATOM     16  C   UNL     1       5.982   4.477  16.712  0.00  0.00    +0.000 A 
ATOM     17  C   UNL     1       5.496   4.761  18.092  0.00  0.00    +0.000 C 
ENDBRANCH   6   7
BRANCH   1  18
ATOM     18  N   UNL     1       2.501   7.359  20.083  0.00  0.00    +0.000 N 
ATOM     19  H   UNL     1       3.369   7.450  20.617  0.00  0.00    +0.000 HD
BRANCH  18  22
ATOM     20  C   UNL     1       0.118   9.970  20.638  0.00  0.00    +0.000 A 
ATOM     21  C   UNL     1       0.711   8.767  21.105  0.00  0.00    +0.000 A 
ATOM     22  C   UNL     1       1.602   8.371  20.131  0.00  0.00    +0.000 A 
ATOM     23  N   UNL     1       1.461   9.295  19.128  0.00  0.00    +0.000 N 
ATOM     24  C   UNL     1       2.081   9.296  17.824  0.00  0.00    +0.000 C 
ATOM     25  N   UNL     1       0.580  10.272  19.415  0.00  0.00    +0.000 NA
BRANCH  20  32
ATOM     26  C   UNL     1      -0.319   9.762  23.650  0.00  0.00    +0.000 C 
ATOM     27  C   UNL     1      -1.053  10.735  22.762  0.00  0.00    +0.000 A 
ATOM     28  C   UNL     1      -1.996  11.590  23.358  0.00  0.00    +0.000 A 
ATOM     29  C   UNL     1      -2.668  12.564  22.613  0.00  0.00    +0.000 A 
ATOM     30  C   UNL     1      -2.403  12.701  21.259  0.00  0.00    +0.000 A 
ATOM     31  C   UNL     1      -1.478  11.847  20.646  0.00  0.00    +0.000 A 
ATOM     32  C   UNL     1      -0.803  10.852  21.382  0.00  0.00    +0.000 A 
ENDBRANCH  20  32
ENDBRANCH  18  22
ENDBRANCH   1  18
BRANCH   3  33
ATOM     33  O   UNL     1       0.548   2.990  20.856  0.00  0.00    +0.000 OA
ATOM     34  H   UNL     1       0.849   3.121  21.779  0.00  0.00    +0.000 HD
ENDBRANCH   3  33
BRANCH   5  35
ATOM     35  O   UNL     1       2.779   3.788  16.767  0.00  0.00    +0.000 OA
ATOM     36  H   UNL     1       3.700   3.482  16.838  0.00  0.00    +0.000 HD
ENDBRANCH   5  35
TORSDOF 6
ENDMDL
MODEL 9
REMARK VINA RESULT:      -7.9      6.356      9.972
REMARK  Name = 
REMARK  8 active torsions:
REMARK  status: ('A' for Active; 'I' for Inactive)
REMARK    1  A    between atoms: C_1  and  C_2
REMARK    2  A    between atoms: C_7  and  C_8
REMARK    3  A    between atoms: C_10  and  N_11
REMARK    4  A    between atoms: N_11  and  C_12
REMARK    5  A    between atoms: C_14  and  O_15
REMARK    6  A    between atoms: C_17  and  O_18
REMARK    7  A    between atoms: C_19  and  C_20
REMARK    8  A    between atoms: N_31  and  C_32
REMARK                            x       y       z     vdW  Elec       q    Type
REMARK                         _______ _______ _______ _____ _____    ______ ____
ROOT
ATOM      1  C   UNL     1       6.003   6.344  16.639  0.00  0.00    +0.000 A 
ATOM      2  C   UNL     1       6.455   6.139  15.322  0.00  0.00    +0.000 A 
ATOM      3  C   UNL     1       6.481   4.876  14.760  0.00  0.00    +0.000 A 
ATOM      4  C   UNL     1       6.092   3.767  15.495  0.00  0.00    +0.000 A 
ATOM      5  C   UNL     1       5.599   3.945  16.797  0.00  0.00    +0.000 A 
ATOM      6  C   UNL     1       5.495   5.233  17.363  0.00  0.00    +0.000 A 
ENDROOT
BRANCH   6   7
ATOM      7  C   UNL     1       4.767   5.463  18.663  0.00  0.00    +0.000 C 
ATOM      8  O   UNL     1       5.340   5.281  19.731  0.00  0.00    +0.000 OA
ATOM      9  N   UNL     1       3.436   5.947  18.563  0.00  0.00    +0.000 N 
ATOM     10  C   UNL     1       2.580   6.030  19.780  0.00  0.00    +0.000 C 
ATOM     11  C   UNL     1       1.645   4.855  19.577  0.00  0.00    +0.000 A 
ATOM     12  C   UNL     1       0.860   4.178  20.487  0.00  0.00    +0.000 A 
ATOM     13  C   UNL     1       0.618   2.829  20.229  0.00  0.00    +0.000 A 
ATOM     14  C   UNL     1       1.194   2.202  19.109  0.00  0.00    +0.000 A 
ATOM     15  C   UNL     1       1.828   2.955  18.121  0.00  0.00    +0.000 A 
ATOM     16  C   UNL     1       1.925   4.313  18.317  0.00  0.00    +0.000 A 
ATOM     17  C   UNL     1       2.624   5.357  17.516  0.00  0.00    +0.000 C 
ENDBRANCH   6   7
BRANCH   1  18
ATOM     18  N   UNL     1       6.030   7.641  17.207  0.00  0.00    +0.000 N 
ATOM     19  H   UNL     1       5.171   8.169  17.040  0.00  0.00    +0.000 HD
BRANCH  18  22
ATOM     20  C   UNL     1       8.717   9.767  18.236  0.00  0.00    +0.000 A 
ATOM     21  C   UNL     1       7.548   9.608  17.447  0.00  0.00    +0.000 A 
ATOM     22  C   UNL     1       7.129   8.308  17.634  0.00  0.00    +0.000 A 
ATOM     23  N   UNL     1       8.074   7.747  18.454  0.00  0.00    +0.000 N 
ATOM     24  C   UNL     1       8.182   6.372  18.879  0.00  0.00    +0.000 C 
ATOM     25  N   UNL     1       9.035   8.610  18.837  0.00  0.00    +0.000 NA
BRANCH  20  32
ATOM     26  C   UNL     1       7.808  12.477  17.170  0.00  0.00    +0.000 C 
ATOM     27  C   UNL     1       9.082  12.267  17.949  0.00  0.00    +0.000 A 
ATOM     28  C   UNL     1       9.899  13.386  18.191  0.00  0.00    +0.000 A 
ATOM     29  C   UNL     1      11.062  13.285  18.961  0.00  0.00    +0.000 A 
ATOM     30  C   UNL     1      11.424  12.062  19.505  0.00  0.00    +0.000 A 
ATOM     31  C   UNL     1      10.630  10.935  19.261  0.00  0.00    +0.000 A 
ATOM     32  C   UNL     1       9.463  11.019  18.476  0.00  0.00    +0.000 A 
ENDBRANCH  20  32
ENDBRANCH  18  22
ENDBRANCH   1  18
BRANCH   3  33
ATOM     33  O   UNL     1       6.890   4.676  13.469  0.00  0.00    +0.000 OA
ATOM     34  H   UNL     1       7.640   4.046  13.477  0.00  0.00    +0.000 HD
ENDBRANCH   3  33
BRANCH   5  35
ATOM     35  O   UNL     1       5.177   2.841  17.474  0.00  0.00    +0.000 OA
ATOM     36  H   UNL     1       5.768   2.685  18.231  0.00  0.00    +0.000 HD
ENDBRANCH   5  35
TORSDOF 6
ENDMDL
