MODEL 1
REMARK VINA RESULT:      -6.6      0.000      0.000
REMARK  Name = 
REMARK  3 active torsions:
REMARK  status: ('A' for Active; 'I' for Inactive)
REMARK    1  A    between atoms: C_1  and  C_2
REMARK    2  A    between atoms: C_7  and  O_8
REMARK    3  A    between atoms: C_11  and  O_12
REMARK                            x       y       z     vdW  Elec       q    Type
REMARK                         _______ _______ _______ _____ _____    ______ ____
ROOT
ATOM      1  C   UNL     1       1.650   2.840  21.529  0.00  0.00    +0.000 C 
ATOM      2  C   UNL     1       2.143   3.905  20.598  0.00  0.00    +0.000 C 
ATOM      3  C   UNL     1       1.824   5.198  20.723  0.00  0.00    +0.000 C 
ATOM      4  C   UNL     1       2.327   6.217  19.789  0.00  0.00    +0.000 C 
ATOM      5  O   UNL     1       2.016   7.395  19.930  0.00  0.00    +0.000 OA
ATOM      6  C   UNL     1       3.206   5.791  18.687  0.00  0.00    +0.000 A 
ATOM      7  C   UNL     1       3.696   6.745  17.780  0.00  0.00    +0.000 A 
ATOM      8  C   UNL     1       4.528   6.366  16.731  0.00  0.00    +0.000 A 
ATOM      9  C   UNL     1       4.879   5.029  16.575  0.00  0.00    +0.000 A 
ATOM     10  C   UNL     1       4.395   4.074  17.472  0.00  0.00    +0.000 A 
ATOM     11  C   UNL     1       3.554   4.443  18.537  0.00  0.00    +0.000 A 
ATOM     12  C   UNL     1       3.032   3.436  19.499  0.00  0.00    +0.000 C 
ATOM     13  O   UNL     1       3.298   2.244  19.428  0.00  0.00    +0.000 OA
ENDROOT
BRANCH   7  14
ATOM     14  O   UNL     1       3.403   8.081  17.857  0.00  0.00    +0.000 OA
ATOM     15  H   UNL     1       4.113   8.529  18.370  0.00  0.00    +0.000 HD
ENDBRANCH   7  14
BRANCH  10  16
ATOM     16  O   UNL     1       4.760   2.771  17.287  0.00  0.00    +0.000 OA
ATOM     17  H   UNL     1       4.140   2.170  17.729  0.00  0.00    +0.000 HD
ENDBRANCH  10  16
TORSDOF 2
ENDMDL
MODEL 2
REMARK VINA RESULT:      -6.6      1.055      4.971
REMARK  Name = 
REMARK  3 active torsions:
REMARK  status: ('A' for Active; 'I' for Inactive)
REMARK    1  A    between atoms: C_1  and  C_2
REMARK    2  A    between atoms: C_7  and  O_8
REMARK    3  A    between atoms: C_11  and  O_12
REMARK                            x       y       z     vdW  Elec       q    Type
REMARK                         _______ _______ _______ _____ _____    ______ ____
ROOT
ATOM      1  C   UNL     1       5.432   5.945  15.933  0.00  0.00    +0.000 C 
ATOM      2  C   UNL     1       4.543   5.125  16.816  0.00  0.00    +0.000 C 
ATOM      3  C   UNL     1       4.370   3.808  16.666  0.00  0.00    +0.000 C 
ATOM      4  C   UNL     1       3.488   3.034  17.554  0.00  0.00    +0.000 C 
ATOM      5  O   UNL     1       3.349   1.826  17.390  0.00  0.00    +0.000 OA
ATOM      6  C   UNL     1       2.779   3.740  18.634  0.00  0.00    +0.000 A 
ATOM      7  C   UNL     1       1.928   3.022  19.492  0.00  0.00    +0.000 A 
ATOM      8  C   UNL     1       1.248   3.668  20.520  0.00  0.00    +0.000 A 
ATOM      9  C   UNL     1       1.409   5.038  20.702  0.00  0.00    +0.000 A 
ATOM     10  C   UNL     1       2.252   5.758  19.853  0.00  0.00    +0.000 A 
ATOM     11  C   UNL     1       2.945   5.118  18.810  0.00  0.00    +0.000 A 
ATOM     12  C   UNL     1       3.847   5.874  17.899  0.00  0.00    +0.000 C 
ATOM     13  O   UNL     1       4.039   7.078  17.998  0.00  0.00    +0.000 OA
ENDROOT
BRANCH   7  14
ATOM     14  O   UNL     1       1.711   1.674  19.387  0.00  0.00    +0.000 OA
ATOM     15  H   UNL     1       1.649   1.440  18.433  0.00  0.00    +0.000 HD
ENDBRANCH   7  14
BRANCH  10  16
ATOM     16  O   UNL     1       2.384   7.102  20.061  0.00  0.00    +0.000 OA
ATOM     17  H   UNL     1       1.644   7.589  19.668  0.00  0.00    +0.000 HD
ENDBRANCH  10  16
TORSDOF 2
ENDMDL
MODEL 3
REMARK VINA RESULT:      -6.4      1.038      3.800
REMARK  Name = 
REMARK  3 active torsions:
REMARK  status: ('A' for Active; 'I' for Inactive)
REMARK    1  A    between atoms: C_1  and  C_2
REMARK    2  A    between atoms: C_7  and  O_8
REMARK    3  A    between atoms: C_11  and  O_12
REMARK                            x       y       z     vdW  Elec       q    Type
REMARK                         _______ _______ _______ _____ _____    ______ ____
ROOT
ATOM      1  C   UNL     1       5.347   5.497  15.871  0.00  0.00    +0.000 C 
ATOM      2  C   UNL     1       4.378   5.410  17.011  0.00  0.00    +0.000 C 
ATOM      3  C   UNL     1       3.900   6.481  17.653  0.00  0.00    +0.000 C 
ATOM      4  C   UNL     1       2.949   6.358  18.768  0.00  0.00    +0.000 C 
ATOM      5  O   UNL     1       2.528   7.359  19.339  0.00  0.00    +0.000 OA
ATOM      6  C   UNL     1       2.519   5.011  19.184  0.00  0.00    +0.000 A 
ATOM      7  C   UNL     1       1.615   4.868  20.249  0.00  0.00    +0.000 A 
ATOM      8  C   UNL     1       1.194   3.607  20.659  0.00  0.00    +0.000 A 
ATOM      9  C   UNL     1       1.674   2.473  20.009  0.00  0.00    +0.000 A 
ATOM     10  C   UNL     1       2.574   2.608  18.950  0.00  0.00    +0.000 A 
ATOM     11  C   UNL     1       3.007   3.876  18.525  0.00  0.00    +0.000 A 
ATOM     12  C   UNL     1       3.964   4.033  17.398  0.00  0.00    +0.000 C 
ATOM     13  O   UNL     1       4.427   3.085  16.779  0.00  0.00    +0.000 OA
ENDROOT
BRANCH   7  14
ATOM     14  O   UNL     1       1.092   5.926  20.944  0.00  0.00    +0.000 OA
ATOM     15  H   UNL     1       1.618   6.731  20.733  0.00  0.00    +0.000 HD
ENDBRANCH   7  14
BRANCH  10  16
ATOM     16  O   UNL     1       3.024   1.473  18.337  0.00  0.00    +0.000 OA
ATOM     17  H   UNL     1       2.333   1.080  17.781  0.00  0.00    +0.000 HD
ENDBRANCH  10  16
TORSDOF 2
ENDMDL
MODEL 4
REMARK VINA RESULT:      -6.2      1.032      3.284
REMARK  Name = 
REMARK  3 active torsions:
REMARK  status: ('A' for Active; 'I' for Inactive)
REMARK    1  A    between atoms: C_1  and  C_2
REMARK    2  A    between atoms: C_7  and  O_8
REMARK    3  A    between atoms: C_11  and  O_12
REMARK                            x       y       z     vdW  Elec       q    Type
REMARK                         _______ _______ _______ _____ _____    ______ ____
ROOT
ATOM      1  C   UNL     1       1.247   2.776  21.518  0.00  0.00    +0.000 C 
ATOM      2  C   UNL     1       2.057   3.222  20.340  0.00  0.00    +0.000 C 
ATOM      3  C   UNL     1       2.688   2.377  19.518  0.00  0.00    +0.000 C 
ATOM      4  C   UNL     1       3.475   2.851  18.370  0.00  0.00    +0.000 C 
ATOM      5  O   UNL     1       4.044   2.051  17.634  0.00  0.00    +0.000 OA
ATOM      6  C   UNL     1       3.566   4.301  18.127  0.00  0.00    +0.000 A 
ATOM      7  C   UNL     1       4.315   4.778  17.039  0.00  0.00    +0.000 A 
ATOM      8  C   UNL     1       4.416   6.144  16.790  0.00  0.00    +0.000 A 
ATOM      9  C   UNL     1       3.769   7.048  17.627  0.00  0.00    +0.000 A 
ATOM     10  C   UNL     1       3.024   6.582  18.711  0.00  0.00    +0.000 A 
ATOM     11  C   UNL     1       2.914   5.204  18.975  0.00  0.00    +0.000 A 
ATOM     12  C   UNL     1       2.122   4.695  20.126  0.00  0.00    +0.000 C 
ATOM     13  O   UNL     1       1.525   5.428  20.902  0.00  0.00    +0.000 OA
ENDROOT
BRANCH   7  14
ATOM     14  O   UNL     1       4.983   3.962  16.165  0.00  0.00    +0.000 OA
ATOM     15  H   UNL     1       4.687   4.171  15.251  0.00  0.00    +0.000 HD
ENDBRANCH   7  14
BRANCH  10  16
ATOM     16  O   UNL     1       2.404   7.499  19.511  0.00  0.00    +0.000 OA
ATOM     17  H   UNL     1       2.003   7.072  20.284  0.00  0.00    +0.000 HD
ENDBRANCH  10  16
TORSDOF 2
ENDMDL
MODEL 5
REMARK VINA RESULT:      -6.1      1.158      3.525
REMARK  Name = 
REMARK  3 active torsions:
REMARK  status: ('A' for Active; 'I' for Inactive)
REMARK    1  A    between atoms: C_1  and  C_2
REMARK    2  A    between atoms: C_7  and  O_8
REMARK    3  A    between atoms: C_11  and  O_12
REMARK                            x       y       z     vdW  Elec       q    Type
REMARK                         _______ _______ _______ _____ _____    ______ ____
ROOT
ATOM      1  C   UNL     1       1.054   4.235  20.495  0.00  0.00    +0.000 C 
ATOM      2  C   UNL     1       2.108   4.099  19.439  0.00  0.00    +0.000 C 
ATOM      3  C   UNL     1       2.581   2.921  19.019  0.00  0.00    +0.000 C 
ATOM      4  C   UNL     1       3.616   2.826  17.979  0.00  0.00    +0.000 C 
ATOM      5  O   UNL     1       4.031   1.730  17.614  0.00  0.00    +0.000 OA
ATOM      6  C   UNL     1       4.143   4.070  17.391  0.00  0.00    +0.000 A 
ATOM      7  C   UNL     1       5.135   4.004  16.399  0.00  0.00    +0.000 A 
ATOM      8  C   UNL     1       5.647   5.166  15.829  0.00  0.00    +0.000 A 
ATOM      9  C   UNL     1       5.174   6.407  16.245  0.00  0.00    +0.000 A 
ATOM     10  C   UNL     1       4.189   6.480  17.232  0.00  0.00    +0.000 A 
ATOM     11  C   UNL     1       3.662   5.314  17.816  0.00  0.00    +0.000 A 
ATOM     12  C   UNL     1       2.612   5.379  18.867  0.00  0.00    +0.000 C 
ATOM     13  O   UNL     1       2.146   6.431  19.281  0.00  0.00    +0.000 OA
ENDROOT
BRANCH   7  14
ATOM     14  O   UNL     1       5.658   2.829  15.930  0.00  0.00    +0.000 OA
ATOM     15  H   UNL     1       5.774   2.903  14.956  0.00  0.00    +0.000 HD
ENDBRANCH   7  14
BRANCH  10  16
ATOM     16  O   UNL     1       3.750   7.715  17.616  0.00  0.00    +0.000 OA
ATOM     17  H   UNL     1       4.282   8.416  17.208  0.00  0.00    +0.000 HD
ENDBRANCH  10  16
TORSDOF 2
ENDMDL
MODEL 6
REMARK VINA RESULT:      -6.1      0.641      3.685
REMARK  Name = 
REMARK  3 active torsions:
REMARK  status: ('A' for Active; 'I' for Inactive)
REMARK    1  A    between atoms: C_1  and  C_2
REMARK    2  A    between atoms: C_7  and  O_8
REMARK    3  A    between atoms: C_11  and  O_12
REMARK                            x       y       z     vdW  Elec       q    Type
REMARK                         _______ _______ _______ _____ _____    ______ ____
ROOT
ATOM      1  C   UNL     1       5.603   3.836  15.646  0.00  0.00    +0.000 C 
ATOM      2  C   UNL     1       4.765   4.548  16.664  0.00  0.00    +0.000 C 
ATOM      3  C   UNL     1       4.660   5.879  16.729  0.00  0.00    +0.000 C 
ATOM      4  C   UNL     1       3.827   6.544  17.743  0.00  0.00    +0.000 C 
ATOM      5  O   UNL     1       3.751   7.768  17.779  0.00  0.00    +0.000 OA
ATOM      6  C   UNL     1       3.093   5.710  18.711  0.00  0.00    +0.000 A 
ATOM      7  C   UNL     1       2.294   6.323  19.690  0.00  0.00    +0.000 A 
ATOM      8  C   UNL     1       1.591   5.555  20.615  0.00  0.00    +0.000 A 
ATOM      9  C   UNL     1       1.680   4.167  20.571  0.00  0.00    +0.000 A 
ATOM     10  C   UNL     1       2.473   3.552  19.601  0.00  0.00    +0.000 A 
ATOM     11  C   UNL     1       3.188   4.314  18.660  0.00  0.00    +0.000 A 
ATOM     12  C   UNL     1       4.035   3.671  17.621  0.00  0.00    +0.000 C 
ATOM     13  O   UNL     1       4.161   2.458  17.519  0.00  0.00    +0.000 OA
ENDROOT
BRANCH   7  14
ATOM     14  O   UNL     1       2.148   7.679  19.807  0.00  0.00    +0.000 OA
ATOM     15  H   UNL     1       2.934   8.040  20.277  0.00  0.00    +0.000 HD
ENDBRANCH   7  14
BRANCH  10  16
ATOM     16  O   UNL     1       2.537   2.187  19.589  0.00  0.00    +0.000 OA
ATOM     17  H   UNL     1       3.363   1.881  19.183  0.00  0.00    +0.000 HD
ENDBRANCH  10  16
TORSDOF 2
ENDMDL
MODEL 7
REMARK VINA RESULT:      -6.1      0.923      3.894
REMARK  Name = 
REMARK  3 active torsions:
REMARK  status: ('A' for Active; 'I' for Inactive)
REMARK    1  A    between atoms: C_1  and  C_2
REMARK    2  A    between atoms: C_7  and  O_8
REMARK    3  A    between atoms: C_11  and  O_12
REMARK                            x       y       z     vdW  Elec       q    Type
REMARK                         _______ _______ _______ _____ _____    ______ ____
ROOT
ATOM      1  C   UNL     1       5.997   5.195  14.797  0.00  0.00    +0.000 C 
ATOM      2  C   UNL     1       5.185   5.415  16.036  0.00  0.00    +0.000 C 
ATOM      3  C   UNL     1       4.708   6.610  16.401  0.00  0.00    +0.000 C 
ATOM      4  C   UNL     1       3.914   6.789  17.625  0.00  0.00    +0.000 C 
ATOM      5  O   UNL     1       3.490   7.899  17.934  0.00  0.00    +0.000 OA
ATOM      6  C   UNL     1       3.643   5.613  18.470  0.00  0.00    +0.000 A 
ATOM      7  C   UNL     1       2.891   5.760  19.647  0.00  0.00    +0.000 A 
ATOM      8  C   UNL     1       2.623   4.664  20.460  0.00  0.00    +0.000 A 
ATOM      9  C   UNL     1       3.105   3.407  20.107  0.00  0.00    +0.000 A 
ATOM     10  C   UNL     1       3.855   3.253  18.939  0.00  0.00    +0.000 A 
ATOM     11  C   UNL     1       4.133   4.353  18.108  0.00  0.00    +0.000 A 
ATOM     12  C   UNL     1       4.930   4.201  16.861  0.00  0.00    +0.000 C 
ATOM     13  O   UNL     1       5.385   3.130  16.485  0.00  0.00    +0.000 OA
ENDROOT
BRANCH   7  14
ATOM     14  O   UNL     1       2.378   6.957  20.070  0.00  0.00    +0.000 OA
ATOM     15  H   UNL     1       3.079   7.445  20.559  0.00  0.00    +0.000 HD
ENDBRANCH   7  14
BRANCH  10  16
ATOM     16  O   UNL     1       4.313   2.005  18.625  0.00  0.00    +0.000 OA
ATOM     17  H   UNL     1       5.256   1.917  18.833  0.00  0.00    +0.000 HD
ENDBRANCH  10  16
TORSDOF 2
ENDMDL
MODEL 8
REMARK VINA RESULT:      -6.1      1.331      3.875
REMARK  Name = 
REMARK  3 active torsions:
REMARK  status: ('A' for Active; 'I' for Inactive)
REMARK    1  A    between atoms: C_1  and  C_2
REMARK    2  A    between atoms: C_7  and  O_8
REMARK    3  A    between atoms: C_11  and  O_12
REMARK                            x       y       z     vdW  Elec       q    Type
REMARK                         _______ _______ _______ _____ _____    ______ ____
ROOT
ATOM      1  C   UNL     1       6.280   6.273  16.784  0.00  0.00    +0.000 C 
ATOM      2  C   UNL     1       5.152   5.974  17.723  0.00  0.00    +0.000 C 
ATOM      3  C   UNL     1       4.150   6.825  17.965  0.00  0.00    +0.000 C 
ATOM      4  C   UNL     1       3.058   6.498  18.894  0.00  0.00    +0.000 C 
ATOM      5  O   UNL     1       2.153   7.301  19.096  0.00  0.00    +0.000 OA
ATOM      6  C   UNL     1       3.080   5.192  19.576  0.00  0.00    +0.000 A 
ATOM      7  C   UNL     1       2.050   4.859  20.472  0.00  0.00    +0.000 A 
ATOM      8  C   UNL     1       2.049   3.631  21.127  0.00  0.00    +0.000 A 
ATOM      9  C   UNL     1       3.079   2.724  20.896  0.00  0.00    +0.000 A 
ATOM     10  C   UNL     1       4.106   3.049  20.008  0.00  0.00    +0.000 A 
ATOM     11  C   UNL     1       4.119   4.285  19.339  0.00  0.00    +0.000 A 
ATOM     12  C   UNL     1       5.207   4.643  18.390  0.00  0.00    +0.000 C 
ATOM     13  O   UNL     1       6.143   3.897  18.135  0.00  0.00    +0.000 OA
ENDROOT
BRANCH   7  14
ATOM     14  O   UNL     1       1.000   5.689  20.758  0.00  0.00    +0.000 OA
ATOM     15  H   UNL     1       0.176   5.153  20.796  0.00  0.00    +0.000 HD
ENDBRANCH   7  14
BRANCH  10  16
ATOM     16  O   UNL     1       5.100   2.133  19.807  0.00  0.00    +0.000 OA
ATOM     17  H   UNL     1       4.837   1.257  20.131  0.00  0.00    +0.000 HD
ENDBRANCH  10  16
TORSDOF 2
ENDMDL
MODEL 9
REMARK VINA RESULT:      -6.0      1.229      1.881
REMARK  Name = 
REMARK  3 active torsions:
REMARK  status: ('A' for Active; 'I' for Inactive)
REMARK    1  A    between atoms: C_1  and  C_2
REMARK    2  A    between atoms: C_7  and  O_8
REMARK    3  A    between atoms: C_11  and  O_12
REMARK                            x       y       z     vdW  Elec       q    Type
REMARK                         _______ _______ _______ _____ _____    ______ ____
ROOT
ATOM      1  C   UNL     1       1.375   4.967  20.680  0.00  0.00    +0.000 C 
ATOM      2  C   UNL     1       2.284   5.297  19.536  0.00  0.00    +0.000 C 
ATOM      3  C   UNL     1       2.487   6.543  19.093  0.00  0.00    +0.000 C 
ATOM      4  C   UNL     1       3.388   6.830  17.967  0.00  0.00    +0.000 C 
ATOM      5  O   UNL     1       3.553   7.983  17.582  0.00  0.00    +0.000 OA
ATOM      6  C   UNL     1       4.080   5.706  17.312  0.00  0.00    +0.000 A 
ATOM      7  C   UNL     1       4.942   5.955  16.232  0.00  0.00    +0.000 A 
ATOM      8  C   UNL     1       5.607   4.910  15.598  0.00  0.00    +0.000 A 
ATOM      9  C   UNL     1       5.417   3.603  16.037  0.00  0.00    +0.000 A 
ATOM     10  C   UNL     1       4.561   3.348  17.110  0.00  0.00    +0.000 A 
ATOM     11  C   UNL     1       3.883   4.395  17.759  0.00  0.00    +0.000 A 
ATOM     12  C   UNL     1       2.969   4.135  18.904  0.00  0.00    +0.000 C 
ATOM     13  O   UNL     1       2.754   3.015  19.346  0.00  0.00    +0.000 OA
ENDROOT
BRANCH   7  14
ATOM     14  O   UNL     1       5.188   7.207  15.735  0.00  0.00    +0.000 OA
ATOM     15  H   UNL     1       4.369   7.746  15.820  0.00  0.00    +0.000 HD
ENDBRANCH   7  14
BRANCH  10  16
ATOM     16  O   UNL     1       4.399   2.052  17.513  0.00  0.00    +0.000 OA
ATOM     17  H   UNL     1       5.250   1.650  17.741  0.00  0.00    +0.000 HD
ENDBRANCH  10  16
TORSDOF 2
ENDMDL
