MODEL 1
REMARK VINA RESULT:      -8.2      0.000      0.000
REMARK  Name = 
REMARK  8 active torsions:
REMARK  status: ('A' for Active; 'I' for Inactive)
REMARK    1  A    between atoms: C_1  and  C_2
REMARK    2  A    between atoms: C_10  and  O_11
REMARK    3  A    between atoms: O_11  and  C_12
REMARK    4  A    between atoms: C_12  and  C_14
REMARK    5  A    between atoms: C_14  and  C_15
REMARK    6  A    between atoms: C_15  and  C_16
REMARK    7  A    between atoms: C_16  and  O_17
REMARK    8  A    between atoms: O_17  and  C_18
REMARK                            x       y       z     vdW  Elec       q    Type
REMARK                         _______ _______ _______ _____ _____    ______ ____
ROOT
ATOM      1  O   UNL     1       2.430   1.660  18.691  0.00  0.00    +0.000 OA
ENDROOT
BRANCH   1  11
ATOM      2  C   UNL     1       7.559   5.671  19.479  0.00  0.00    +0.000 C 
ATOM      3  C   UNL     1       6.562   5.558  18.354  0.00  0.00    +0.000 A 
ATOM      4  C   UNL     1       6.538   6.356  17.268  0.00  0.00    +0.000 A 
ATOM      5 CL   UNL     1       7.669   7.658  17.057  0.00  0.00    +0.000 Cl
ATOM      6  C   UNL     1       5.549   6.200  16.163  0.00  0.00    +0.000 A 
ATOM      7  O   UNL     1       5.509   6.945  15.192  0.00  0.00    +0.000 OA
ATOM      8  O   UNL     1       4.656   5.140  16.278  0.00  0.00    +0.000 OA
ATOM      9  C   UNL     1       4.627   4.316  17.417  0.00  0.00    +0.000 A 
ATOM     10  C   UNL     1       3.619   3.345  17.460  0.00  0.00    +0.000 A 
ATOM     11  C   UNL     1       3.527   2.534  18.586  0.00  0.00    +0.000 A 
ATOM     12  C   UNL     1       4.417   2.702  19.648  0.00  0.00    +0.000 A 
ATOM     13  C   UNL     1       5.420   3.668  19.575  0.00  0.00    +0.000 A 
ATOM     14  C   UNL     1       5.540   4.500  18.456  0.00  0.00    +0.000 A 
ENDBRANCH   1  11
BRANCH   1  15
ATOM     15  C   UNL     1       1.205   2.199  19.080  0.00  0.00    +0.000 C 
ATOM     16  O   UNL     1       0.151   2.123  18.460  0.00  0.00    +0.000 OA
BRANCH  15  17
ATOM     17  C   UNL     1       1.328   2.803  20.459  0.00  0.00    +0.000 C 
BRANCH  17  18
ATOM     18  C   UNL     1       0.853   4.259  20.459  0.00  0.00    +0.000 C 
BRANCH  18  19
ATOM     19  C   UNL     1       1.717   5.147  19.562  0.00  0.00    +0.000 C 
BRANCH  19  20
ATOM     20  O   UNL     1       2.329   6.175  20.345  0.00  0.00    +0.000 OA
BRANCH  20  21
ATOM     21  C   UNL     1       1.711   7.402  20.279  0.00  0.00    +0.000 A 
ATOM     22  C   UNL     1       0.921   7.915  21.315  0.00  0.00    +0.000 A 
ATOM     23  C   UNL     1       0.336   9.180  21.202  0.00  0.00    +0.000 A 
ATOM     24  C   UNL     1       0.546   9.943  20.057  0.00  0.00    +0.000 A 
ATOM     25 CL   UNL     1      -0.183  11.495  19.927  0.00  0.00    +0.000 Cl
ATOM     26  C   UNL     1       1.343   9.459  19.025  0.00  0.00    +0.000 A 
ATOM     27  C   UNL     1       1.929   8.194  19.139  0.00  0.00    +0.000 A 
ATOM     28 CL   UNL     1       2.901   7.631  17.824  0.00  0.00    +0.000 Cl
ENDBRANCH  20  21
ENDBRANCH  19  20
ENDBRANCH  18  19
ENDBRANCH  17  18
ENDBRANCH  15  17
ENDBRANCH   1  15
TORSDOF 7
ENDMDL
MODEL 2
REMARK VINA RESULT:      -8.1      1.929      6.838
REMARK  Name = 
REMARK  8 active torsions:
REMARK  status: ('A' for Active; 'I' for Inactive)
REMARK    1  A    between atoms: C_1  and  C_2
REMARK    2  A    between atoms: C_10  and  O_11
REMARK    3  A    between atoms: O_11  and  C_12
REMARK    4  A    between atoms: C_12  and  C_14
REMARK    5  A    between atoms: C_14  and  C_15
REMARK    6  A    between atoms: C_15  and  C_16
REMARK    7  A    between atoms: C_16  and  O_17
REMARK    8  A    between atoms: O_17  and  C_18
REMARK                            x       y       z     vdW  Elec       q    Type
REMARK                         _______ _______ _______ _____ _____    ______ ____
ROOT
ATOM      1  O   UNL     1       2.965   5.747  19.065  0.00  0.00    +0.000 OA
ENDROOT
BRANCH   1  11
ATOM      2  C   UNL     1       0.415  11.783  18.784  0.00  0.00    +0.000 C 
ATOM      3  C   UNL     1       0.509  10.808  19.929  0.00  0.00    +0.000 A 
ATOM      4  C   UNL     1       0.092  11.058  21.186  0.00  0.00    +0.000 A 
ATOM      5 CL   UNL     1      -0.591  12.590  21.641  0.00  0.00    +0.000 Cl
ATOM      6  C   UNL     1       0.182  10.059  22.289  0.00  0.00    +0.000 A 
ATOM      7  O   UNL     1      -0.168  10.299  23.438  0.00  0.00    +0.000 OA
ATOM      8  O   UNL     1       0.685   8.807  21.950  0.00  0.00    +0.000 OA
ATOM      9  C   UNL     1       1.166   8.527  20.659  0.00  0.00    +0.000 A 
ATOM     10  C   UNL     1       1.738   7.263  20.467  0.00  0.00    +0.000 A 
ATOM     11  C   UNL     1       2.264   6.958  19.216  0.00  0.00    +0.000 A 
ATOM     12  C   UNL     1       2.229   7.901  18.189  0.00  0.00    +0.000 A 
ATOM     13  C   UNL     1       1.644   9.149  18.402  0.00  0.00    +0.000 A 
ATOM     14  C   UNL     1       1.105   9.487  19.649  0.00  0.00    +0.000 A 
ENDBRANCH   1  11
BRANCH   1  15
ATOM     15  C   UNL     1       2.288   4.564  19.355  0.00  0.00    +0.000 C 
ATOM     16  O   UNL     1       2.201   4.031  20.455  0.00  0.00    +0.000 OA
BRANCH  15  17
ATOM     17  C   UNL     1       1.561   4.076  18.124  0.00  0.00    +0.000 C 
BRANCH  17  18
ATOM     18  C   UNL     1       2.553   3.579  17.068  0.00  0.00    +0.000 C 
BRANCH  18  19
ATOM     19  C   UNL     1       3.839   3.037  17.696  0.00  0.00    +0.000 C 
BRANCH  19  20
ATOM     20  O   UNL     1       4.950   3.324  16.843  0.00  0.00    +0.000 OA
BRANCH  20  21
ATOM     21  C   UNL     1       5.712   4.405  17.223  0.00  0.00    +0.000 A 
ATOM     22  C   UNL     1       6.144   4.608  18.539  0.00  0.00    +0.000 A 
ATOM     23  C   UNL     1       6.936   5.713  18.864  0.00  0.00    +0.000 A 
ATOM     24  C   UNL     1       7.308   6.615  17.872  0.00  0.00    +0.000 A 
ATOM     25 CL   UNL     1       8.278   7.975  18.284  0.00  0.00    +0.000 Cl
ATOM     26  C   UNL     1       6.905   6.421  16.555  0.00  0.00    +0.000 A 
ATOM     27  C   UNL     1       6.113   5.315  16.231  0.00  0.00    +0.000 A 
ATOM     28 CL   UNL     1       5.626   5.123  14.583  0.00  0.00    +0.000 Cl
ENDBRANCH  20  21
ENDBRANCH  19  20
ENDBRANCH  18  19
ENDBRANCH  17  18
ENDBRANCH  15  17
ENDBRANCH   1  15
TORSDOF 7
ENDMDL
MODEL 3
REMARK VINA RESULT:      -8.1      2.261      7.254
REMARK  Name = 
REMARK  8 active torsions:
REMARK  status: ('A' for Active; 'I' for Inactive)
REMARK    1  A    between atoms: C_1  and  C_2
REMARK    2  A    between atoms: C_10  and  O_11
REMARK    3  A    between atoms: O_11  and  C_12
REMARK    4  A    between atoms: C_12  and  C_14
REMARK    5  A    between atoms: C_14  and  C_15
REMARK    6  A    between atoms: C_15  and  C_16
REMARK    7  A    between atoms: C_16  and  O_17
REMARK    8  A    between atoms: O_17  and  C_18
REMARK                            x       y       z     vdW  Elec       q    Type
REMARK                         _______ _______ _______ _____ _____    ______ ____
ROOT
ATOM      1  O   UNL     1       2.791   6.183  18.987  0.00  0.00    +0.000 OA
ENDROOT
BRANCH   1  11
ATOM      2  C   UNL     1       0.296  12.247  18.859  0.00  0.00    +0.000 C 
ATOM      3  C   UNL     1       0.361  11.234  19.973  0.00  0.00    +0.000 A 
ATOM      4  C   UNL     1      -0.077  11.446  21.230  0.00  0.00    +0.000 A 
ATOM      5 CL   UNL     1      -0.756  12.968  21.723  0.00  0.00    +0.000 Cl
ATOM      6  C   UNL     1      -0.016  10.411  22.300  0.00  0.00    +0.000 A 
ATOM      7  O   UNL     1      -0.385  10.616  23.450  0.00  0.00    +0.000 OA
ATOM      8  O   UNL     1       0.483   9.166  21.930  0.00  0.00    +0.000 OA
ATOM      9  C   UNL     1       0.986   8.925  20.640  0.00  0.00    +0.000 A 
ATOM     10  C   UNL     1       1.550   7.663  20.416  0.00  0.00    +0.000 A 
ATOM     11  C   UNL     1       2.097   7.394  19.165  0.00  0.00    +0.000 A 
ATOM     12  C   UNL     1       2.090   8.371  18.170  0.00  0.00    +0.000 A 
ATOM     13  C   UNL     1       1.511   9.616  18.414  0.00  0.00    +0.000 A 
ATOM     14  C   UNL     1       0.951   9.918  19.661  0.00  0.00    +0.000 A 
ENDBRANCH   1  11
BRANCH   1  15
ATOM     15  C   UNL     1       2.050   5.055  18.639  0.00  0.00    +0.000 C 
ATOM     16  O   UNL     1       1.680   4.752  17.512  0.00  0.00    +0.000 OA
BRANCH  15  17
ATOM     17  C   UNL     1       1.861   4.175  19.853  0.00  0.00    +0.000 C 
BRANCH  17  18
ATOM     18  C   UNL     1       3.204   3.885  20.529  0.00  0.00    +0.000 C 
BRANCH  18  19
ATOM     19  C   UNL     1       4.189   3.197  19.583  0.00  0.00    +0.000 C 
BRANCH  19  20
ATOM     20  O   UNL     1       5.351   4.013  19.419  0.00  0.00    +0.000 OA
BRANCH  20  21
ATOM     21  C   UNL     1       5.743   4.213  18.115  0.00  0.00    +0.000 A 
ATOM     22  C   UNL     1       5.018   3.731  17.019  0.00  0.00    +0.000 A 
ATOM     23  C   UNL     1       5.452   3.984  15.714  0.00  0.00    +0.000 A 
ATOM     24  C   UNL     1       6.606   4.730  15.499  0.00  0.00    +0.000 A 
ATOM     25 CL   UNL     1       7.134   5.031  13.890  0.00  0.00    +0.000 Cl
ATOM     26  C   UNL     1       7.331   5.234  16.574  0.00  0.00    +0.000 A 
ATOM     27  C   UNL     1       6.895   4.980  17.880  0.00  0.00    +0.000 A 
ATOM     28 CL   UNL     1       7.835   5.617  19.184  0.00  0.00    +0.000 Cl
ENDBRANCH  20  21
ENDBRANCH  19  20
ENDBRANCH  18  19
ENDBRANCH  17  18
ENDBRANCH  15  17
ENDBRANCH   1  15
TORSDOF 7
ENDMDL
MODEL 4
REMARK VINA RESULT:      -7.8      1.656      2.508
REMARK  Name = 
REMARK  8 active torsions:
REMARK  status: ('A' for Active; 'I' for Inactive)
REMARK    1  A    between atoms: C_1  and  C_2
REMARK    2  A    between atoms: C_10  and  O_11
REMARK    3  A    between atoms: O_11  and  C_12
REMARK    4  A    between atoms: C_12  and  C_14
REMARK    5  A    between atoms: C_14  and  C_15
REMARK    6  A    between atoms: C_15  and  C_16
REMARK    7  A    between atoms: C_16  and  O_17
REMARK    8  A    between atoms: O_17  and  C_18
REMARK                            x       y       z     vdW  Elec       q    Type
REMARK                         _______ _______ _______ _____ _____    ______ ____
ROOT
ATOM      1  O   UNL     1       2.593   1.954  19.082  0.00  0.00    +0.000 OA
ENDROOT
BRANCH   1  11
ATOM      2  C   UNL     1       5.420   6.729  15.586  0.00  0.00    +0.000 C 
ATOM      3  C   UNL     1       5.812   6.111  16.903  0.00  0.00    +0.000 A 
ATOM      4  C   UNL     1       6.916   6.436  17.605  0.00  0.00    +0.000 A 
ATOM      5 CL   UNL     1       8.056   7.616  17.032  0.00  0.00    +0.000 Cl
ATOM      6  C   UNL     1       7.260   5.817  18.917  0.00  0.00    +0.000 A 
ATOM      7  O   UNL     1       8.280   6.090  19.538  0.00  0.00    +0.000 OA
ATOM      8  O   UNL     1       6.347   4.899  19.426  0.00  0.00    +0.000 OA
ATOM      9  C   UNL     1       5.208   4.508  18.702  0.00  0.00    +0.000 A 
ATOM     10  C   UNL     1       4.417   3.505  19.275  0.00  0.00    +0.000 A 
ATOM     11  C   UNL     1       3.302   3.058  18.574  0.00  0.00    +0.000 A 
ATOM     12  C   UNL     1       2.996   3.595  17.323  0.00  0.00    +0.000 A 
ATOM     13  C   UNL     1       3.793   4.601  16.778  0.00  0.00    +0.000 A 
ATOM     14  C   UNL     1       4.922   5.074  17.459  0.00  0.00    +0.000 A 
ENDBRANCH   1  11
BRANCH   1  15
ATOM     15  C   UNL     1       1.283   2.163  19.509  0.00  0.00    +0.000 C 
ATOM     16  O   UNL     1       0.281   2.146  18.805  0.00  0.00    +0.000 OA
BRANCH  15  17
ATOM     17  C   UNL     1       1.253   2.302  21.013  0.00  0.00    +0.000 C 
BRANCH  17  18
ATOM     18  C   UNL     1       1.826   3.655  21.445  0.00  0.00    +0.000 C 
BRANCH  18  19
ATOM     19  C   UNL     1       1.257   4.812  20.621  0.00  0.00    +0.000 C 
BRANCH  19  20
ATOM     20  O   UNL     1       1.612   6.057  21.227  0.00  0.00    +0.000 OA
BRANCH  20  21
ATOM     21  C   UNL     1       1.724   7.116  20.358  0.00  0.00    +0.000 A 
ATOM     22  C   UNL     1       2.471   7.056  19.175  0.00  0.00    +0.000 A 
ATOM     23  C   UNL     1       2.531   8.158  18.317  0.00  0.00    +0.000 A 
ATOM     24  C   UNL     1       1.836   9.322  18.631  0.00  0.00    +0.000 A 
ATOM     25 CL   UNL     1       1.922  10.673  17.570  0.00  0.00    +0.000 Cl
ATOM     26  C   UNL     1       1.073   9.395  19.792  0.00  0.00    +0.000 A 
ATOM     27  C   UNL     1       1.013   8.292  20.650  0.00  0.00    +0.000 A 
ATOM     28 CL   UNL     1       0.062   8.435  22.086  0.00  0.00    +0.000 Cl
ENDBRANCH  20  21
ENDBRANCH  19  20
ENDBRANCH  18  19
ENDBRANCH  17  18
ENDBRANCH  15  17
ENDBRANCH   1  15
TORSDOF 7
ENDMDL
MODEL 5
REMARK VINA RESULT:      -7.8      4.956      7.826
REMARK  Name = 
REMARK  8 active torsions:
REMARK  status: ('A' for Active; 'I' for Inactive)
REMARK    1  A    between atoms: C_1  and  C_2
REMARK    2  A    between atoms: C_10  and  O_11
REMARK    3  A    between atoms: O_11  and  C_12
REMARK    4  A    between atoms: C_12  and  C_14
REMARK    5  A    between atoms: C_14  and  C_15
REMARK    6  A    between atoms: C_15  and  C_16
REMARK    7  A    between atoms: C_16  and  O_17
REMARK    8  A    between atoms: O_17  and  C_18
REMARK                            x       y       z     vdW  Elec       q    Type
REMARK                         _______ _______ _______ _____ _____    ______ ____
ROOT
ATOM      1  O   UNL     1       5.661   7.026  16.363  0.00  0.00    +0.000 OA
ENDROOT
BRANCH   1  11
ATOM      2  C   UNL     1       1.082   4.663  20.421  0.00  0.00    +0.000 C 
ATOM      3  C   UNL     1       2.456   4.147  20.082  0.00  0.00    +0.000 A 
ATOM      4  C   UNL     1       3.024   3.057  20.635  0.00  0.00    +0.000 A 
ATOM      5 CL   UNL     1       2.220   2.121  21.858  0.00  0.00    +0.000 Cl
ATOM      6  C   UNL     1       4.379   2.563  20.258  0.00  0.00    +0.000 A 
ATOM      7  O   UNL     1       4.907   1.591  20.785  0.00  0.00    +0.000 OA
ATOM      8  O   UNL     1       5.035   3.263  19.251  0.00  0.00    +0.000 OA
ATOM      9  C   UNL     1       4.489   4.428  18.682  0.00  0.00    +0.000 A 
ATOM     10  C   UNL     1       5.286   5.099  17.748  0.00  0.00    +0.000 A 
ATOM     11  C   UNL     1       4.802   6.278  17.190  0.00  0.00    +0.000 A 
ATOM     12  C   UNL     1       3.556   6.777  17.570  0.00  0.00    +0.000 A 
ATOM     13  C   UNL     1       2.776   6.083  18.494  0.00  0.00    +0.000 A 
ATOM     14  C   UNL     1       3.233   4.893  19.074  0.00  0.00    +0.000 A 
ENDBRANCH   1  11
BRANCH   1  15
ATOM     15  C   UNL     1       6.982   7.189  16.776  0.00  0.00    +0.000 C 
ATOM     16  O   UNL     1       7.942   6.520  16.413  0.00  0.00    +0.000 OA
BRANCH  15  17
ATOM     17  C   UNL     1       7.092   8.405  17.666  0.00  0.00    +0.000 C 
BRANCH  17  18
ATOM     18  C   UNL     1       8.537   8.611  18.128  0.00  0.00    +0.000 C 
BRANCH  18  19
ATOM     19  C   UNL     1       8.759  10.001  18.727  0.00  0.00    +0.000 C 
BRANCH  19  20
ATOM     20  O   UNL     1       9.727  10.713  17.952  0.00  0.00    +0.000 OA
BRANCH  20  21
ATOM     21  C   UNL     1       9.765  12.070  18.172  0.00  0.00    +0.000 A 
ATOM     22  C   UNL     1       8.739  12.936  17.774  0.00  0.00    +0.000 A 
ATOM     23  C   UNL     1       8.821  14.305  18.044  0.00  0.00    +0.000 A 
ATOM     24  C   UNL     1       9.924  14.814  18.722  0.00  0.00    +0.000 A 
ATOM     25 CL   UNL     1      10.017  16.501  19.044  0.00  0.00    +0.000 Cl
ATOM     26  C   UNL     1      10.945  13.968  19.143  0.00  0.00    +0.000 A 
ATOM     27  C   UNL     1      10.862  12.598  18.873  0.00  0.00    +0.000 A 
ATOM     28 CL   UNL     1      12.161  11.588  19.405  0.00  0.00    +0.000 Cl
ENDBRANCH  20  21
ENDBRANCH  19  20
ENDBRANCH  18  19
ENDBRANCH  17  18
ENDBRANCH  15  17
ENDBRANCH   1  15
TORSDOF 7
ENDMDL
MODEL 6
REMARK VINA RESULT:      -7.8      4.675      7.598
REMARK  Name = 
REMARK  8 active torsions:
REMARK  status: ('A' for Active; 'I' for Inactive)
REMARK    1  A    between atoms: C_1  and  C_2
REMARK    2  A    between atoms: C_10  and  O_11
REMARK    3  A    between atoms: O_11  and  C_12
REMARK    4  A    between atoms: C_12  and  C_14
REMARK    5  A    between atoms: C_14  and  C_15
REMARK    6  A    between atoms: C_15  and  C_16
REMARK    7  A    between atoms: C_16  and  O_17
REMARK    8  A    between atoms: O_17  and  C_18
REMARK                            x       y       z     vdW  Elec       q    Type
REMARK                         _______ _______ _______ _____ _____    ______ ____
ROOT
ATOM      1  O   UNL     1       5.841   7.320  16.881  0.00  0.00    +0.000 OA
ENDROOT
BRANCH   1  11
ATOM      2  C   UNL     1       0.913   4.537  20.197  0.00  0.00    +0.000 C 
ATOM      3  C   UNL     1       2.355   4.126  20.049  0.00  0.00    +0.000 A 
ATOM      4  C   UNL     1       2.916   3.062  20.659  0.00  0.00    +0.000 A 
ATOM      5 CL   UNL     1       2.015   2.040  21.737  0.00  0.00    +0.000 Cl
ATOM      6  C   UNL     1       4.343   2.673  20.471  0.00  0.00    +0.000 A 
ATOM      7  O   UNL     1       4.858   1.725  21.051  0.00  0.00    +0.000 OA
ATOM      8  O   UNL     1       5.083   3.444  19.582  0.00  0.00    +0.000 OA
ATOM      9  C   UNL     1       4.541   4.584  18.961  0.00  0.00    +0.000 A 
ATOM     10  C   UNL     1       5.412   5.334  18.163  0.00  0.00    +0.000 A 
ATOM     11  C   UNL     1       4.929   6.492  17.562  0.00  0.00    +0.000 A 
ATOM     12  C   UNL     1       3.609   6.893  17.768  0.00  0.00    +0.000 A 
ATOM     13  C   UNL     1       2.757   6.122  18.558  0.00  0.00    +0.000 A 
ATOM     14  C   UNL     1       3.212   4.951  19.177  0.00  0.00    +0.000 A 
ENDBRANCH   1  11
BRANCH   1  15
ATOM     15  C   UNL     1       7.177   6.925  16.846  0.00  0.00    +0.000 C 
ATOM     16  O   UNL     1       7.692   6.187  16.015  0.00  0.00    +0.000 OA
BRANCH  15  17
ATOM     17  C   UNL     1       7.948   7.641  17.930  0.00  0.00    +0.000 C 
BRANCH  17  18
ATOM     18  C   UNL     1       7.606   9.133  17.946  0.00  0.00    +0.000 C 
BRANCH  18  19
ATOM     19  C   UNL     1       8.858  10.012  17.963  0.00  0.00    +0.000 C 
BRANCH  19  20
ATOM     20  O   UNL     1       9.497   9.918  19.238  0.00  0.00    +0.000 OA
BRANCH  20  21
ATOM     21  C   UNL     1       9.637  11.110  19.909  0.00  0.00    +0.000 A 
ATOM     22  C   UNL     1       8.738  11.542  20.892  0.00  0.00    +0.000 A 
ATOM     23  C   UNL     1       8.943  12.754  21.558  0.00  0.00    +0.000 A 
ATOM     24  C   UNL     1      10.053  13.535  21.252  0.00  0.00    +0.000 A 
ATOM     25 CL   UNL     1      10.292  15.027  22.074  0.00  0.00    +0.000 Cl
ATOM     26  C   UNL     1      10.968  13.115  20.292  0.00  0.00    +0.000 A 
ATOM     27  C   UNL     1      10.762  11.902  19.626  0.00  0.00    +0.000 A 
ATOM     28 CL   UNL     1      11.919  11.428  18.433  0.00  0.00    +0.000 Cl
ENDBRANCH  20  21
ENDBRANCH  19  20
ENDBRANCH  18  19
ENDBRANCH  17  18
ENDBRANCH  15  17
ENDBRANCH   1  15
TORSDOF 7
ENDMDL
MODEL 7
REMARK VINA RESULT:      -7.8      1.098      1.543
REMARK  Name = 
REMARK  8 active torsions:
REMARK  status: ('A' for Active; 'I' for Inactive)
REMARK    1  A    between atoms: C_1  and  C_2
REMARK    2  A    between atoms: C_10  and  O_11
REMARK    3  A    between atoms: O_11  and  C_12
REMARK    4  A    between atoms: C_12  and  C_14
REMARK    5  A    between atoms: C_14  and  C_15
REMARK    6  A    between atoms: C_15  and  C_16
REMARK    7  A    between atoms: C_16  and  O_17
REMARK    8  A    between atoms: O_17  and  C_18
REMARK                            x       y       z     vdW  Elec       q    Type
REMARK                         _______ _______ _______ _____ _____    ______ ____
ROOT
ATOM      1  O   UNL     1       2.400   1.890  19.095  0.00  0.00    +0.000 OA
ENDROOT
BRANCH   1  11
ATOM      2  C   UNL     1       7.703   5.741  19.356  0.00  0.00    +0.000 C 
ATOM      3  C   UNL     1       6.588   5.670  18.345  0.00  0.00    +0.000 A 
ATOM      4  C   UNL     1       6.471   6.480  17.274  0.00  0.00    +0.000 A 
ATOM      5 CL   UNL     1       7.611   7.752  16.953  0.00  0.00    +0.000 Cl
ATOM      6  C   UNL     1       5.364   6.365  16.282  0.00  0.00    +0.000 A 
ATOM      7  O   UNL     1       5.241   7.123  15.327  0.00  0.00    +0.000 OA
ATOM      8  O   UNL     1       4.456   5.331  16.484  0.00  0.00    +0.000 OA
ATOM      9  C   UNL     1       4.526   4.495  17.612  0.00  0.00    +0.000 A 
ATOM     10  C   UNL     1       3.500   3.553  17.756  0.00  0.00    +0.000 A 
ATOM     11  C   UNL     1       3.506   2.732  18.879  0.00  0.00    +0.000 A 
ATOM     12  C   UNL     1       4.510   2.862  19.840  0.00  0.00    +0.000 A 
ATOM     13  C   UNL     1       5.527   3.800  19.667  0.00  0.00    +0.000 A 
ATOM     14  C   UNL     1       5.550   4.641  18.548  0.00  0.00    +0.000 A 
ENDBRANCH   1  11
BRANCH   1  15
ATOM     15  C   UNL     1       1.161   2.487  19.317  0.00  0.00    +0.000 C 
ATOM     16  O   UNL     1       0.135   2.281  18.681  0.00  0.00    +0.000 OA
BRANCH  15  17
ATOM     17  C   UNL     1       1.227   3.356  20.551  0.00  0.00    +0.000 C 
BRANCH  17  18
ATOM     18  C   UNL     1       0.856   4.804  20.216  0.00  0.00    +0.000 C 
BRANCH  18  19
ATOM     19  C   UNL     1       2.061   5.742  20.301  0.00  0.00    +0.000 C 
BRANCH  19  20
ATOM     20  O   UNL     1       1.736   6.873  21.113  0.00  0.00    +0.000 OA
BRANCH  20  21
ATOM     21  C   UNL     1       1.529   8.045  20.424  0.00  0.00    +0.000 A 
ATOM     22  C   UNL     1       1.909   8.221  19.088  0.00  0.00    +0.000 A 
ATOM     23  C   UNL     1       1.653   9.428  18.430  0.00  0.00    +0.000 A 
ATOM     24  C   UNL     1       1.007  10.460  19.102  0.00  0.00    +0.000 A 
ATOM     25 CL   UNL     1       0.702  11.943  18.284  0.00  0.00    +0.000 Cl
ATOM     26  C   UNL     1       0.604  10.299  20.423  0.00  0.00    +0.000 A 
ATOM     27  C   UNL     1       0.861   9.091  21.081  0.00  0.00    +0.000 A 
ATOM     28 CL   UNL     1       0.352   8.942  22.727  0.00  0.00    +0.000 Cl
ENDBRANCH  20  21
ENDBRANCH  19  20
ENDBRANCH  18  19
ENDBRANCH  17  18
ENDBRANCH  15  17
ENDBRANCH   1  15
TORSDOF 7
ENDMDL
MODEL 8
REMARK VINA RESULT:      -7.7      1.739      2.390
REMARK  Name = 
REMARK  8 active torsions:
REMARK  status: ('A' for Active; 'I' for Inactive)
REMARK    1  A    between atoms: C_1  and  C_2
REMARK    2  A    between atoms: C_10  and  O_11
REMARK    3  A    between atoms: O_11  and  C_12
REMARK    4  A    between atoms: C_12  and  C_14
REMARK    5  A    between atoms: C_14  and  C_15
REMARK    6  A    between atoms: C_15  and  C_16
REMARK    7  A    between atoms: C_16  and  O_17
REMARK    8  A    between atoms: O_17  and  C_18
REMARK                            x       y       z     vdW  Elec       q    Type
REMARK                         _______ _______ _______ _____ _____    ______ ____
ROOT
ATOM      1  O   UNL     1       2.262   1.985  20.340  0.00  0.00    +0.000 OA
ENDROOT
BRANCH   1  11
ATOM      2  C   UNL     1       4.734   4.281  14.716  0.00  0.00    +0.000 C 
ATOM      3  C   UNL     1       5.323   4.234  16.102  0.00  0.00    +0.000 A 
ATOM      4  C   UNL     1       6.565   4.648  16.422  0.00  0.00    +0.000 A 
ATOM      5 CL   UNL     1       7.664   5.269  15.228  0.00  0.00    +0.000 Cl
ATOM      6  C   UNL     1       7.106   4.606  17.811  0.00  0.00    +0.000 A 
ATOM      7  O   UNL     1       8.246   4.952  18.094  0.00  0.00    +0.000 OA
ATOM      8  O   UNL     1       6.239   4.154  18.799  0.00  0.00    +0.000 OA
ATOM      9  C   UNL     1       4.952   3.676  18.494  0.00  0.00    +0.000 A 
ATOM     10  C   UNL     1       4.209   3.156  19.560  0.00  0.00    +0.000 A 
ATOM     11  C   UNL     1       2.946   2.636  19.297  0.00  0.00    +0.000 A 
ATOM     12  C   UNL     1       2.448   2.625  17.994  0.00  0.00    +0.000 A 
ATOM     13  C   UNL     1       3.203   3.160  16.950  0.00  0.00    +0.000 A 
ATOM     14  C   UNL     1       4.477   3.692  17.182  0.00  0.00    +0.000 A 
ENDBRANCH   1  11
BRANCH   1  15
ATOM     15  C   UNL     1       1.449   2.758  21.167  0.00  0.00    +0.000 C 
ATOM     16  O   UNL     1       1.289   2.607  22.372  0.00  0.00    +0.000 OA
BRANCH  15  17
ATOM     17  C   UNL     1       0.868   3.909  20.379  0.00  0.00    +0.000 C 
BRANCH  17  18
ATOM     18  C   UNL     1       1.477   5.239  20.830  0.00  0.00    +0.000 C 
BRANCH  18  19
ATOM     19  C   UNL     1       1.956   6.085  19.649  0.00  0.00    +0.000 C 
BRANCH  19  20
ATOM     20  O   UNL     1       2.434   7.347  20.121  0.00  0.00    +0.000 OA
BRANCH  20  21
ATOM     21  C   UNL     1       1.492   8.349  20.157  0.00  0.00    +0.000 A 
ATOM     22  C   UNL     1       0.703   8.613  21.283  0.00  0.00    +0.000 A 
ATOM     23  C   UNL     1      -0.223   9.660  21.272  0.00  0.00    +0.000 A 
ATOM     24  C   UNL     1      -0.357  10.456  20.139  0.00  0.00    +0.000 A 
ATOM     25 CL   UNL     1      -1.503  11.738  20.133  0.00  0.00    +0.000 Cl
ATOM     26  C   UNL     1       0.431  10.222  19.016  0.00  0.00    +0.000 A 
ATOM     27  C   UNL     1       1.358   9.174  19.029  0.00  0.00    +0.000 A 
ATOM     28 CL   UNL     1       2.306   8.916  17.607  0.00  0.00    +0.000 Cl
ENDBRANCH  20  21
ENDBRANCH  19  20
ENDBRANCH  18  19
ENDBRANCH  17  18
ENDBRANCH  15  17
ENDBRANCH   1  15
TORSDOF 7
ENDMDL
MODEL 9
REMARK VINA RESULT:      -7.7      2.245      7.256
REMARK  Name = 
REMARK  8 active torsions:
REMARK  status: ('A' for Active; 'I' for Inactive)
REMARK    1  A    between atoms: C_1  and  C_2
REMARK    2  A    between atoms: C_10  and  O_11
REMARK    3  A    between atoms: O_11  and  C_12
REMARK    4  A    between atoms: C_12  and  C_14
REMARK    5  A    between atoms: C_14  and  C_15
REMARK    6  A    between atoms: C_15  and  C_16
REMARK    7  A    between atoms: C_16  and  O_17
REMARK    8  A    between atoms: O_17  and  C_18
REMARK                            x       y       z     vdW  Elec       q    Type
REMARK                         _______ _______ _______ _____ _____    ______ ____
ROOT
ATOM      1  O   UNL     1       2.856   6.523  19.825  0.00  0.00    +0.000 OA
ENDROOT
BRANCH   1  11
ATOM      2  C   UNL     1      -0.353  12.107  18.585  0.00  0.00    +0.000 C 
ATOM      3  C   UNL     1      -0.195  11.326  19.864  0.00  0.00    +0.000 A 
ATOM      4  C   UNL     1      -0.691  11.704  21.059  0.00  0.00    +0.000 A 
ATOM      5 CL   UNL     1      -1.563  13.193  21.264  0.00  0.00    +0.000 Cl
ATOM      6  C   UNL     1      -0.534  10.894  22.300  0.00  0.00    +0.000 A 
ATOM      7  O   UNL     1      -0.957  11.254  23.392  0.00  0.00    +0.000 OA
ATOM      8  O   UNL     1       0.122   9.675  22.165  0.00  0.00    +0.000 OA
ATOM      9  C   UNL     1       0.686   9.270  20.942  0.00  0.00    +0.000 A 
ATOM     10  C   UNL     1       1.406   8.069  20.954  0.00  0.00    +0.000 A 
ATOM     11  C   UNL     1       2.016   7.650  19.776  0.00  0.00    +0.000 A 
ATOM     12  C   UNL     1       1.917   8.424  18.620  0.00  0.00    +0.000 A 
ATOM     13  C   UNL     1       1.185   9.610  18.631  0.00  0.00    +0.000 A 
ATOM     14  C   UNL     1       0.558  10.059  19.799  0.00  0.00    +0.000 A 
ENDBRANCH   1  11
BRANCH   1  15
ATOM     15  C   UNL     1       2.258   5.271  19.953  0.00  0.00    +0.000 C 
ATOM     16  O   UNL     1       2.136   4.629  20.990  0.00  0.00    +0.000 OA
BRANCH  15  17
ATOM     17  C   UNL     1       1.661   4.852  18.629  0.00  0.00    +0.000 C 
BRANCH  17  18
ATOM     18  C   UNL     1       1.892   3.360  18.377  0.00  0.00    +0.000 C 
BRANCH  18  19
ATOM     19  C   UNL     1       2.563   3.100  17.027  0.00  0.00    +0.000 C 
BRANCH  19  20
ATOM     20  O   UNL     1       3.947   2.804  17.224  0.00  0.00    +0.000 OA
BRANCH  20  21
ATOM     21  C   UNL     1       4.778   3.900  17.259  0.00  0.00    +0.000 A 
ATOM     22  C   UNL     1       4.997   4.726  16.149  0.00  0.00    +0.000 A 
ATOM     23  C   UNL     1       5.834   5.841  16.248  0.00  0.00    +0.000 A 
ATOM     24  C   UNL     1       6.448   6.142  17.459  0.00  0.00    +0.000 A 
ATOM     25 CL   UNL     1       7.481   7.513  17.569  0.00  0.00    +0.000 Cl
ATOM     26  C   UNL     1       6.229   5.345  18.579  0.00  0.00    +0.000 A 
ATOM     27  C   UNL     1       5.391   4.230  18.479  0.00  0.00    +0.000 A 
ATOM     28 CL   UNL     1       5.158   3.263  19.893  0.00  0.00    +0.000 Cl
ENDBRANCH  20  21
ENDBRANCH  19  20
ENDBRANCH  18  19
ENDBRANCH  17  18
ENDBRANCH  15  17
ENDBRANCH   1  15
TORSDOF 7
ENDMDL
