MODEL 1
REMARK VINA RESULT:      -7.4      0.000      0.000
REMARK  Name = 
REMARK  9 active torsions:
REMARK  status: ('A' for Active; 'I' for Inactive)
REMARK    1  A    between atoms: C_1  and  O_2
REMARK    2  A    between atoms: O_2  and  C_3
REMARK    3  A    between atoms: C_3  and  C_4
REMARK    4  A    between atoms: C_4  and  C_5
REMARK    5  A    between atoms: C_4  and  N_11
REMARK    6  A    between atoms: N_11  and  C_12
REMARK    7  A    between atoms: C_13  and  C_15
REMARK    8  A    between atoms: C_17  and  C_18
REMARK    9  A    between atoms: C_21  and  O_22
REMARK                            x       y       z     vdW  Elec       q    Type
REMARK                         _______ _______ _______ _____ _____    ______ ____
ROOT
ATOM      1  N   UNL     1       3.192   4.819  18.347  0.00  0.00    +0.000 N 
ATOM      2  C   UNL     1       1.839   4.701  17.810  0.00  0.00    +0.000 C 
ATOM      3  C   UNL     1       3.596   5.851  19.208  0.00  0.00    +0.000 C 
ATOM      4  O   UNL     1       4.768   5.961  19.560  0.00  0.00    +0.000 OA
ENDROOT
BRANCH   3   5
ATOM      5  C   UNL     1       2.618   6.822  19.653  0.00  0.00    +0.000 A 
ATOM      6  C   UNL     1       2.042   7.926  19.062  0.00  0.00    +0.000 A 
ATOM      7  C   UNL     1       1.207   8.528  20.036  0.00  0.00    +0.000 A 
ATOM      8  N   UNL     1       1.164   7.769  21.141  0.00  0.00    +0.000 NA
ATOM      9  N   UNL     1       1.983   6.731  20.864  0.00  0.00    +0.000 N 
ATOM     10  H   UNL     1       2.089   5.993  21.553  0.00  0.00    +0.000 HD
BRANCH   7  11
ATOM     11  C   UNL     1       0.457   9.774  19.871  0.00  0.00    +0.000 A 
ATOM     12  C   UNL     1       0.045  10.524  20.979  0.00  0.00    +0.000 A 
ATOM     13  C   UNL     1      -0.774  11.647  20.811  0.00  0.00    +0.000 A 
ATOM     14  C   UNL     1      -1.166  12.028  19.531  0.00  0.00    +0.000 A 
ATOM     15  C   UNL     1      -0.731  11.326  18.416  0.00  0.00    +0.000 A 
ATOM     16  C   UNL     1       0.083  10.205  18.586  0.00  0.00    +0.000 A 
BRANCH  14  17
ATOM     17  O   UNL     1      -1.996  13.088  19.322  0.00  0.00    +0.000 OA
ATOM     18  H   UNL     1      -2.796  12.769  18.873  0.00  0.00    +0.000 HD
ENDBRANCH  14  17
ENDBRANCH   7  11
ENDBRANCH   3   5
BRANCH   1  19
ATOM     19  C   UNL     1       4.165   3.730  18.046  0.00  0.00    +0.000 C 
BRANCH  19  20
ATOM     20  C   UNL     1       5.155   4.119  16.945  0.00  0.00    +0.000 A 
ATOM     21  C   UNL     1       4.744   4.089  15.613  0.00  0.00    +0.000 A 
ATOM     22  C   UNL     1       5.665   4.374  14.615  0.00  0.00    +0.000 A 
ATOM     23  C   UNL     1       6.975   4.677  14.964  0.00  0.00    +0.000 A 
ATOM     24  C   UNL     1       7.316   4.669  16.304  0.00  0.00    +0.000 A 
ATOM     25  N   UNL     1       6.447   4.379  17.293  0.00  0.00    +0.000 NA
ENDBRANCH  19  20
BRANCH  19  26
ATOM     26  C   UNL     1       3.459   2.386  17.737  0.00  0.00    +0.000 C 
BRANCH  26  28
ATOM     27  C   UNL     1       4.343   2.052  19.913  0.00  0.00    +0.000 C 
ATOM     28  O   UNL     1       3.697   1.451  18.802  0.00  0.00    +0.000 OA
ENDBRANCH  26  28
ENDBRANCH  19  26
ENDBRANCH   1  19
TORSDOF 7
ENDMDL
MODEL 2
REMARK VINA RESULT:      -7.2      4.859      7.149
REMARK  Name = 
REMARK  9 active torsions:
REMARK  status: ('A' for Active; 'I' for Inactive)
REMARK    1  A    between atoms: C_1  and  O_2
REMARK    2  A    between atoms: O_2  and  C_3
REMARK    3  A    between atoms: C_3  and  C_4
REMARK    4  A    between atoms: C_4  and  C_5
REMARK    5  A    between atoms: C_4  and  N_11
REMARK    6  A    between atoms: N_11  and  C_12
REMARK    7  A    between atoms: C_13  and  C_15
REMARK    8  A    between atoms: C_17  and  C_18
REMARK    9  A    between atoms: C_21  and  O_22
REMARK                            x       y       z     vdW  Elec       q    Type
REMARK                         _______ _______ _______ _____ _____    ______ ____
ROOT
ATOM      1  N   UNL     1       5.467   5.468  17.368  0.00  0.00    +0.000 N 
ATOM      2  C   UNL     1       5.774   5.026  18.727  0.00  0.00    +0.000 C 
ATOM      3  C   UNL     1       6.015   6.622  16.789  0.00  0.00    +0.000 C 
ATOM      4  O   UNL     1       5.656   7.006  15.677  0.00  0.00    +0.000 OA
ENDROOT
BRANCH   3   5
ATOM      5  C   UNL     1       6.988   7.394  17.534  0.00  0.00    +0.000 A 
ATOM      6  C   UNL     1       7.274   8.739  17.611  0.00  0.00    +0.000 A 
ATOM      7  C   UNL     1       8.400   8.876  18.461  0.00  0.00    +0.000 A 
ATOM      8  N   UNL     1       8.725   7.687  18.990  0.00  0.00    +0.000 NA
ATOM      9  N   UNL     1       7.834   6.827  18.452  0.00  0.00    +0.000 N 
ATOM     10  H   UNL     1       7.862   5.852  18.733  0.00  0.00    +0.000 HD
BRANCH   7  11
ATOM     11  C   UNL     1       9.098  10.125  18.766  0.00  0.00    +0.000 A 
ATOM     12  C   UNL     1       9.573  10.958  17.745  0.00  0.00    +0.000 A 
ATOM     13  C   UNL     1      10.344  12.086  18.051  0.00  0.00    +0.000 A 
ATOM     14  C   UNL     1      10.623  12.390  19.380  0.00  0.00    +0.000 A 
ATOM     15  C   UNL     1      10.123  11.605  20.409  0.00  0.00    +0.000 A 
ATOM     16  C   UNL     1       9.357  10.478  20.102  0.00  0.00    +0.000 A 
BRANCH  14  17
ATOM     17  O   UNL     1      11.403  13.453  19.722  0.00  0.00    +0.000 OA
ATOM     18  H   UNL     1      12.201  13.441  19.168  0.00  0.00    +0.000 HD
ENDBRANCH  14  17
ENDBRANCH   7  11
ENDBRANCH   3   5
BRANCH   1  19
ATOM     19  C   UNL     1       4.609   4.592  16.521  0.00  0.00    +0.000 C 
BRANCH  19  20
ATOM     20  C   UNL     1       3.530   3.870  17.334  0.00  0.00    +0.000 A 
ATOM     21  C   UNL     1       2.411   4.579  17.768  0.00  0.00    +0.000 A 
ATOM     22  C   UNL     1       1.472   3.938  18.564  0.00  0.00    +0.000 A 
ATOM     23  C   UNL     1       1.671   2.609  18.916  0.00  0.00    +0.000 A 
ATOM     24  C   UNL     1       2.815   1.975  18.465  0.00  0.00    +0.000 A 
ATOM     25  N   UNL     1       3.751   2.577  17.706  0.00  0.00    +0.000 NA
ENDBRANCH  19  20
BRANCH  19  26
ATOM     26  C   UNL     1       5.443   3.605  15.669  0.00  0.00    +0.000 C 
BRANCH  26  28
ATOM     27  C   UNL     1       6.768   4.308  13.831  0.00  0.00    +0.000 C 
ATOM     28  O   UNL     1       5.456   4.030  14.297  0.00  0.00    +0.000 OA
ENDBRANCH  26  28
ENDBRANCH  19  26
ENDBRANCH   1  19
TORSDOF 7
ENDMDL
MODEL 3
REMARK VINA RESULT:      -6.9      1.488      1.873
REMARK  Name = 
REMARK  9 active torsions:
REMARK  status: ('A' for Active; 'I' for Inactive)
REMARK    1  A    between atoms: C_1  and  O_2
REMARK    2  A    between atoms: O_2  and  C_3
REMARK    3  A    between atoms: C_3  and  C_4
REMARK    4  A    between atoms: C_4  and  C_5
REMARK    5  A    between atoms: C_4  and  N_11
REMARK    6  A    between atoms: N_11  and  C_12
REMARK    7  A    between atoms: C_13  and  C_15
REMARK    8  A    between atoms: C_17  and  C_18
REMARK    9  A    between atoms: C_21  and  O_22
REMARK                            x       y       z     vdW  Elec       q    Type
REMARK                         _______ _______ _______ _____ _____    ______ ____
ROOT
ATOM      1  N   UNL     1       3.055   5.059  18.059  0.00  0.00    +0.000 N 
ATOM      2  C   UNL     1       1.626   4.785  17.919  0.00  0.00    +0.000 C 
ATOM      3  C   UNL     1       3.569   6.308  18.441  0.00  0.00    +0.000 C 
ATOM      4  O   UNL     1       4.780   6.518  18.455  0.00  0.00    +0.000 OA
ENDROOT
BRANCH   3   5
ATOM      5  C   UNL     1       2.652   7.375  18.782  0.00  0.00    +0.000 A 
ATOM      6  C   UNL     1       2.091   7.801  19.966  0.00  0.00    +0.000 A 
ATOM      7  C   UNL     1       1.200   8.856  19.647  0.00  0.00    +0.000 A 
ATOM      8  N   UNL     1       1.293   9.160  18.345  0.00  0.00    +0.000 NA
ATOM      9  N   UNL     1       2.204   8.287  17.863  0.00  0.00    +0.000 N 
ATOM     10  H   UNL     1       2.469   8.346  16.884  0.00  0.00    +0.000 HD
BRANCH   7  11
ATOM     11  C   UNL     1       0.327   9.556  20.590  0.00  0.00    +0.000 A 
ATOM     12  C   UNL     1      -0.329  10.740  20.229  0.00  0.00    +0.000 A 
ATOM     13  C   UNL     1      -1.063  11.462  21.178  0.00  0.00    +0.000 A 
ATOM     14  C   UNL     1      -1.155  10.989  22.483  0.00  0.00    +0.000 A 
ATOM     15  C   UNL     1      -0.552   9.794  22.851  0.00  0.00    +0.000 A 
ATOM     16  C   UNL     1       0.183   9.077  21.904  0.00  0.00    +0.000 A 
BRANCH  14  17
ATOM     17  O   UNL     1      -1.823  11.679  23.449  0.00  0.00    +0.000 OA
ATOM     18  H   UNL     1      -1.963  11.090  24.209  0.00  0.00    +0.000 HD
ENDBRANCH  14  17
ENDBRANCH   7  11
ENDBRANCH   3   5
BRANCH   1  19
ATOM     19  C   UNL     1       4.008   3.925  17.888  0.00  0.00    +0.000 C 
BRANCH  19  20
ATOM     20  C   UNL     1       5.048   4.198  16.798  0.00  0.00    +0.000 A 
ATOM     21  C   UNL     1       4.645   4.252  15.465  0.00  0.00    +0.000 A 
ATOM     22  C   UNL     1       5.602   4.428  14.475  0.00  0.00    +0.000 A 
ATOM     23  C   UNL     1       6.939   4.541  14.835  0.00  0.00    +0.000 A 
ATOM     24  C   UNL     1       7.268   4.459  16.176  0.00  0.00    +0.000 A 
ATOM     25  N   UNL     1       6.362   4.270  17.155  0.00  0.00    +0.000 NA
ENDBRANCH  19  20
BRANCH  19  26
ATOM     26  C   UNL     1       3.278   2.578  17.664  0.00  0.00    +0.000 C 
BRANCH  26  28
ATOM     27  C   UNL     1       4.210   2.195  19.811  0.00  0.00    +0.000 C 
ATOM     28  O   UNL     1       3.749   1.602  18.607  0.00  0.00    +0.000 OA
ENDBRANCH  26  28
ENDBRANCH  19  26
ENDBRANCH   1  19
TORSDOF 7
ENDMDL
MODEL 4
REMARK VINA RESULT:      -6.9      1.728      2.227
REMARK  Name = 
REMARK  9 active torsions:
REMARK  status: ('A' for Active; 'I' for Inactive)
REMARK    1  A    between atoms: C_1  and  O_2
REMARK    2  A    between atoms: O_2  and  C_3
REMARK    3  A    between atoms: C_3  and  C_4
REMARK    4  A    between atoms: C_4  and  C_5
REMARK    5  A    between atoms: C_4  and  N_11
REMARK    6  A    between atoms: N_11  and  C_12
REMARK    7  A    between atoms: C_13  and  C_15
REMARK    8  A    between atoms: C_17  and  C_18
REMARK    9  A    between atoms: C_21  and  O_22
REMARK                            x       y       z     vdW  Elec       q    Type
REMARK                         _______ _______ _______ _____ _____    ______ ____
ROOT
ATOM      1  N   UNL     1       2.486   6.373  19.161  0.00  0.00    +0.000 N 
ATOM      2  C   UNL     1       2.695   7.507  18.264  0.00  0.00    +0.000 C 
ATOM      3  C   UNL     1       1.879   6.486  20.421  0.00  0.00    +0.000 C 
ATOM      4  O   UNL     1       1.808   5.521  21.180  0.00  0.00    +0.000 OA
ENDROOT
BRANCH   3   5
ATOM      5  C   UNL     1       1.368   7.772  20.847  0.00  0.00    +0.000 A 
ATOM      6  C   UNL     1       0.339   8.577  20.406  0.00  0.00    +0.000 A 
ATOM      7  C   UNL     1       0.381   9.763  21.180  0.00  0.00    +0.000 A 
ATOM      8  N   UNL     1       1.309   9.655  22.141  0.00  0.00    +0.000 NA
ATOM      9  N   UNL     1       1.852   8.434  21.945  0.00  0.00    +0.000 N 
ATOM     10  H   UNL     1       2.570   8.109  22.584  0.00  0.00    +0.000 HD
BRANCH   7  11
ATOM     11  C   UNL     1      -0.480  10.933  21.003  0.00  0.00    +0.000 A 
ATOM     12  C   UNL     1      -0.981  11.638  22.104  0.00  0.00    +0.000 A 
ATOM     13  C   UNL     1      -1.899  12.679  21.922  0.00  0.00    +0.000 A 
ATOM     14  C   UNL     1      -2.302  13.025  20.636  0.00  0.00    +0.000 A 
ATOM     15  C   UNL     1      -1.783  12.371  19.528  0.00  0.00    +0.000 A 
ATOM     16  C   UNL     1      -0.870  11.331  19.712  0.00  0.00    +0.000 A 
BRANCH  14  17
ATOM     17  O   UNL     1      -3.225  14.003  20.414  0.00  0.00    +0.000 OA
ATOM     18  H   UNL     1      -3.187  14.255  19.477  0.00  0.00    +0.000 HD
ENDBRANCH  14  17
ENDBRANCH   7  11
ENDBRANCH   3   5
BRANCH   1  19
ATOM     19  C   UNL     1       2.841   5.012  18.668  0.00  0.00    +0.000 C 
BRANCH  19  20
ATOM     20  C   UNL     1       4.285   4.933  18.164  0.00  0.00    +0.000 A 
ATOM     21  C   UNL     1       4.533   4.501  16.862  0.00  0.00    +0.000 A 
ATOM     22  C   UNL     1       5.847   4.364  16.435  0.00  0.00    +0.000 A 
ATOM     23  C   UNL     1       6.882   4.654  17.314  0.00  0.00    +0.000 A 
ATOM     24  C   UNL     1       6.561   5.058  18.597  0.00  0.00    +0.000 A 
ATOM     25  N   UNL     1       5.296   5.183  19.044  0.00  0.00    +0.000 NA
ENDBRANCH  19  20
BRANCH  19  26
ATOM     26  C   UNL     1       1.834   4.492  17.612  0.00  0.00    +0.000 C 
BRANCH  26  28
ATOM     27  C   UNL     1       1.773   2.640  19.092  0.00  0.00    +0.000 C 
ATOM     28  O   UNL     1       1.042   3.432  18.170  0.00  0.00    +0.000 OA
ENDBRANCH  26  28
ENDBRANCH  19  26
ENDBRANCH   1  19
TORSDOF 7
ENDMDL
MODEL 5
REMARK VINA RESULT:      -6.9      1.597      2.145
REMARK  Name = 
REMARK  9 active torsions:
REMARK  status: ('A' for Active; 'I' for Inactive)
REMARK    1  A    between atoms: C_1  and  O_2
REMARK    2  A    between atoms: O_2  and  C_3
REMARK    3  A    between atoms: C_3  and  C_4
REMARK    4  A    between atoms: C_4  and  C_5
REMARK    5  A    between atoms: C_4  and  N_11
REMARK    6  A    between atoms: N_11  and  C_12
REMARK    7  A    between atoms: C_13  and  C_15
REMARK    8  A    between atoms: C_17  and  C_18
REMARK    9  A    between atoms: C_21  and  O_22
REMARK                            x       y       z     vdW  Elec       q    Type
REMARK                         _______ _______ _______ _____ _____    ______ ____
ROOT
ATOM      1  N   UNL     1       3.079   5.997  18.772  0.00  0.00    +0.000 N 
ATOM      2  C   UNL     1       3.408   7.070  17.836  0.00  0.00    +0.000 C 
ATOM      3  C   UNL     1       2.337   6.195  19.946  0.00  0.00    +0.000 C 
ATOM      4  O   UNL     1       2.164   5.281  20.749  0.00  0.00    +0.000 OA
ENDROOT
BRANCH   3   5
ATOM      5  C   UNL     1       1.803   7.511  20.231  0.00  0.00    +0.000 A 
ATOM      6  C   UNL     1       1.296   8.520  19.441  0.00  0.00    +0.000 A 
ATOM      7  C   UNL     1       1.004   9.610  20.299  0.00  0.00    +0.000 A 
ATOM      8  N   UNL     1       1.202   9.257  21.577  0.00  0.00    +0.000 NA
ATOM      9  N   UNL     1       1.636   7.980  21.508  0.00  0.00    +0.000 N 
ATOM     10  H   UNL     1       1.824   7.479  22.370  0.00  0.00    +0.000 HD
BRANCH   7  11
ATOM     11  C   UNL     1       0.519  10.925  19.879  0.00  0.00    +0.000 A 
ATOM     12  C   UNL     1      -0.620  11.055  19.075  0.00  0.00    +0.000 A 
ATOM     13  C   UNL     1      -1.001  12.309  18.582  0.00  0.00    +0.000 A 
ATOM     14  C   UNL     1      -0.252  13.434  18.909  0.00  0.00    +0.000 A 
ATOM     15  C   UNL     1       0.853  13.335  19.743  0.00  0.00    +0.000 A 
ATOM     16  C   UNL     1       1.234  12.084  20.231  0.00  0.00    +0.000 A 
BRANCH  14  17
ATOM     17  O   UNL     1      -0.561  14.667  18.419  0.00  0.00    +0.000 OA
ATOM     18  H   UNL     1       0.127  15.293  18.701  0.00  0.00    +0.000 HD
ENDBRANCH  14  17
ENDBRANCH   7  11
ENDBRANCH   3   5
BRANCH   1  19
ATOM     19  C   UNL     1       3.463   4.604  18.406  0.00  0.00    +0.000 C 
BRANCH  19  20
ATOM     20  C   UNL     1       4.854   4.531  17.769  0.00  0.00    +0.000 A 
ATOM     21  C   UNL     1       5.977   4.822  18.541  0.00  0.00    +0.000 A 
ATOM     22  C   UNL     1       7.229   4.823  17.941  0.00  0.00    +0.000 A 
ATOM     23  C   UNL     1       7.333   4.541  16.585  0.00  0.00    +0.000 A 
ATOM     24  C   UNL     1       6.174   4.281  15.877  0.00  0.00    +0.000 A 
ATOM     25  N   UNL     1       4.945   4.290  16.430  0.00  0.00    +0.000 NA
ENDBRANCH  19  20
BRANCH  19  26
ATOM     26  C   UNL     1       2.391   3.914  17.527  0.00  0.00    +0.000 C 
BRANCH  26  28
ATOM     27  C   UNL     1       0.921   2.560  18.805  0.00  0.00    +0.000 C 
ATOM     28  O   UNL     1       2.112   2.599  18.035  0.00  0.00    +0.000 OA
ENDBRANCH  26  28
ENDBRANCH  19  26
ENDBRANCH   1  19
TORSDOF 7
ENDMDL
MODEL 6
REMARK VINA RESULT:      -6.9      1.577      1.842
REMARK  Name = 
REMARK  9 active torsions:
REMARK  status: ('A' for Active; 'I' for Inactive)
REMARK    1  A    between atoms: C_1  and  O_2
REMARK    2  A    between atoms: O_2  and  C_3
REMARK    3  A    between atoms: C_3  and  C_4
REMARK    4  A    between atoms: C_4  and  C_5
REMARK    5  A    between atoms: C_4  and  N_11
REMARK    6  A    between atoms: N_11  and  C_12
REMARK    7  A    between atoms: C_13  and  C_15
REMARK    8  A    between atoms: C_17  and  C_18
REMARK    9  A    between atoms: C_21  and  O_22
REMARK                            x       y       z     vdW  Elec       q    Type
REMARK                         _______ _______ _______ _____ _____    ______ ____
ROOT
ATOM      1  N   UNL     1       2.994   6.130  18.747  0.00  0.00    +0.000 N 
ATOM      2  C   UNL     1       3.305   7.202  17.805  0.00  0.00    +0.000 C 
ATOM      3  C   UNL     1       2.288   6.331  19.943  0.00  0.00    +0.000 C 
ATOM      4  O   UNL     1       2.131   5.417  20.749  0.00  0.00    +0.000 OA
ENDROOT
BRANCH   3   5
ATOM      5  C   UNL     1       1.776   7.651  20.247  0.00  0.00    +0.000 A 
ATOM      6  C   UNL     1       1.337   8.700  19.469  0.00  0.00    +0.000 A 
ATOM      7  C   UNL     1       1.030   9.768  20.348  0.00  0.00    +0.000 A 
ATOM      8  N   UNL     1       1.152   9.367  21.622  0.00  0.00    +0.000 NA
ATOM      9  N   UNL     1       1.555   8.082  21.529  0.00  0.00    +0.000 N 
ATOM     10  H   UNL     1       1.686   7.547  22.382  0.00  0.00    +0.000 HD
BRANCH   7  11
ATOM     11  C   UNL     1       0.601  11.110  19.951  0.00  0.00    +0.000 A 
ATOM     12  C   UNL     1      -0.642  11.620  20.345  0.00  0.00    +0.000 A 
ATOM     13  C   UNL     1      -1.089  12.854  19.858  0.00  0.00    +0.000 A 
ATOM     14  C   UNL     1      -0.283  13.585  18.991  0.00  0.00    +0.000 A 
ATOM     15  C   UNL     1       0.972  13.120  18.625  0.00  0.00    +0.000 A 
ATOM     16  C   UNL     1       1.415  11.888  19.108  0.00  0.00    +0.000 A 
BRANCH  14  17
ATOM     17  O   UNL     1      -0.695  14.770  18.459  0.00  0.00    +0.000 OA
ATOM     18  H   UNL     1      -0.256  15.492  18.939  0.00  0.00    +0.000 HD
ENDBRANCH  14  17
ENDBRANCH   7  11
ENDBRANCH   3   5
BRANCH   1  19
ATOM     19  C   UNL     1       3.355   4.734  18.367  0.00  0.00    +0.000 C 
BRANCH  19  20
ATOM     20  C   UNL     1       4.733   4.648  17.704  0.00  0.00    +0.000 A 
ATOM     21  C   UNL     1       4.833   4.196  16.390  0.00  0.00    +0.000 A 
ATOM     22  C   UNL     1       6.090   4.053  15.818  0.00  0.00    +0.000 A 
ATOM     23  C   UNL     1       7.218   4.357  16.570  0.00  0.00    +0.000 A 
ATOM     24  C   UNL     1       7.043   4.781  17.875  0.00  0.00    +0.000 A 
ATOM     25  N   UNL     1       5.836   4.913  18.460  0.00  0.00    +0.000 NA
ENDBRANCH  19  20
BRANCH  19  26
ATOM     26  C   UNL     1       2.259   4.062  17.504  0.00  0.00    +0.000 C 
BRANCH  26  28
ATOM     27  C   UNL     1       2.192   2.240  19.020  0.00  0.00    +0.000 C 
ATOM     28  O   UNL     1       1.435   3.219  18.325  0.00  0.00    +0.000 OA
ENDBRANCH  26  28
ENDBRANCH  19  26
ENDBRANCH   1  19
TORSDOF 7
ENDMDL
MODEL 7
REMARK VINA RESULT:      -6.8      4.894      6.927
REMARK  Name = 
REMARK  9 active torsions:
REMARK  status: ('A' for Active; 'I' for Inactive)
REMARK    1  A    between atoms: C_1  and  O_2
REMARK    2  A    between atoms: O_2  and  C_3
REMARK    3  A    between atoms: C_3  and  C_4
REMARK    4  A    between atoms: C_4  and  C_5
REMARK    5  A    between atoms: C_4  and  N_11
REMARK    6  A    between atoms: N_11  and  C_12
REMARK    7  A    between atoms: C_13  and  C_15
REMARK    8  A    between atoms: C_17  and  C_18
REMARK    9  A    between atoms: C_21  and  O_22
REMARK                            x       y       z     vdW  Elec       q    Type
REMARK                         _______ _______ _______ _____ _____    ______ ____
ROOT
ATOM      1  N   UNL     1       5.453   5.942  16.807  0.00  0.00    +0.000 N 
ATOM      2  C   UNL     1       4.600   6.987  17.370  0.00  0.00    +0.000 C 
ATOM      3  C   UNL     1       6.854   5.973  16.865  0.00  0.00    +0.000 C 
ATOM      4  O   UNL     1       7.532   5.119  16.297  0.00  0.00    +0.000 OA
ENDROOT
BRANCH   3   5
ATOM      5  C   UNL     1       7.508   7.053  17.573  0.00  0.00    +0.000 A 
ATOM      6  C   UNL     1       7.593   8.412  17.360  0.00  0.00    +0.000 A 
ATOM      7  C   UNL     1       8.449   8.936  18.361  0.00  0.00    +0.000 A 
ATOM      8  N   UNL     1       8.783   7.973  19.233  0.00  0.00    +0.000 NA
ATOM      9  N   UNL     1       8.167   6.868  18.761  0.00  0.00    +0.000 N 
ATOM     10  H   UNL     1       8.249   6.001  19.282  0.00  0.00    +0.000 HD
BRANCH   7  11
ATOM     11  C   UNL     1       8.887  10.328  18.473  0.00  0.00    +0.000 A 
ATOM     12  C   UNL     1       8.352  11.324  17.647  0.00  0.00    +0.000 A 
ATOM     13  C   UNL     1       8.867  12.626  17.682  0.00  0.00    +0.000 A 
ATOM     14  C   UNL     1       9.904  12.933  18.557  0.00  0.00    +0.000 A 
ATOM     15  C   UNL     1      10.416  11.973  19.418  0.00  0.00    +0.000 A 
ATOM     16  C   UNL     1       9.905  10.674  19.379  0.00  0.00    +0.000 A 
BRANCH  14  17
ATOM     17  O   UNL     1      10.463  14.175  18.596  0.00  0.00    +0.000 OA
ATOM     18  H   UNL     1      10.111  14.648  19.368  0.00  0.00    +0.000 HD
ENDBRANCH  14  17
ENDBRANCH   7  11
ENDBRANCH   3   5
BRANCH   1  19
ATOM     19  C   UNL     1       4.796   4.733  16.234  0.00  0.00    +0.000 C 
BRANCH  19  20
ATOM     20  C   UNL     1       4.204   3.823  17.314  0.00  0.00    +0.000 A 
ATOM     21  C   UNL     1       2.938   3.271  17.126  0.00  0.00    +0.000 A 
ATOM     22  C   UNL     1       2.377   2.505  18.139  0.00  0.00    +0.000 A 
ATOM     23  C   UNL     1       3.086   2.312  19.318  0.00  0.00    +0.000 A 
ATOM     24  C   UNL     1       4.328   2.906  19.442  0.00  0.00    +0.000 A 
ATOM     25  N   UNL     1       4.889   3.668  18.482  0.00  0.00    +0.000 NA
ENDBRANCH  19  20
BRANCH  19  26
ATOM     26  C   UNL     1       5.735   3.955  15.279  0.00  0.00    +0.000 C 
BRANCH  26  28
ATOM     27  C   UNL     1       6.263   3.614  12.992  0.00  0.00    +0.000 C 
ATOM     28  O   UNL     1       5.357   4.197  13.914  0.00  0.00    +0.000 OA
ENDBRANCH  26  28
ENDBRANCH  19  26
ENDBRANCH   1  19
TORSDOF 7
ENDMDL
MODEL 8
REMARK VINA RESULT:      -6.8      1.777      2.627
REMARK  Name = 
REMARK  9 active torsions:
REMARK  status: ('A' for Active; 'I' for Inactive)
REMARK    1  A    between atoms: C_1  and  O_2
REMARK    2  A    between atoms: O_2  and  C_3
REMARK    3  A    between atoms: C_3  and  C_4
REMARK    4  A    between atoms: C_4  and  C_5
REMARK    5  A    between atoms: C_4  and  N_11
REMARK    6  A    between atoms: N_11  and  C_12
REMARK    7  A    between atoms: C_13  and  C_15
REMARK    8  A    between atoms: C_17  and  C_18
REMARK    9  A    between atoms: C_21  and  O_22
REMARK                            x       y       z     vdW  Elec       q    Type
REMARK                         _______ _______ _______ _____ _____    ______ ____
ROOT
ATOM      1  N   UNL     1       2.437   6.371  19.163  0.00  0.00    +0.000 N 
ATOM      2  C   UNL     1       2.622   7.486  18.237  0.00  0.00    +0.000 C 
ATOM      3  C   UNL     1       1.853   6.507  20.432  0.00  0.00    +0.000 C 
ATOM      4  O   UNL     1       1.803   5.560  21.213  0.00  0.00    +0.000 OA
ENDROOT
BRANCH   3   5
ATOM      5  C   UNL     1       1.340   7.799  20.837  0.00  0.00    +0.000 A 
ATOM      6  C   UNL     1       0.302   8.589  20.394  0.00  0.00    +0.000 A 
ATOM      7  C   UNL     1       0.346   9.792  21.143  0.00  0.00    +0.000 A 
ATOM      8  N   UNL     1       1.287   9.708  22.094  0.00  0.00    +0.000 NA
ATOM      9  N   UNL     1       1.834   8.486  21.916  0.00  0.00    +0.000 N 
ATOM     10  H   UNL     1       2.562   8.177  22.552  0.00  0.00    +0.000 HD
BRANCH   7  11
ATOM     11  C   UNL     1      -0.524  10.953  20.953  0.00  0.00    +0.000 A 
ATOM     12  C   UNL     1      -1.004  11.299  19.684  0.00  0.00    +0.000 A 
ATOM     13  C   UNL     1      -1.733  12.480  19.499  0.00  0.00    +0.000 A 
ATOM     14  C   UNL     1      -1.997  13.304  20.589  0.00  0.00    +0.000 A 
ATOM     15  C   UNL     1      -1.571  12.957  21.863  0.00  0.00    +0.000 A 
ATOM     16  C   UNL     1      -0.840  11.780  22.045  0.00  0.00    +0.000 A 
BRANCH  14  17
ATOM     17  O   UNL     1      -2.666  14.483  20.450  0.00  0.00    +0.000 OA
ATOM     18  H   UNL     1      -3.254  14.414  19.679  0.00  0.00    +0.000 HD
ENDBRANCH  14  17
ENDBRANCH   7  11
ENDBRANCH   3   5
BRANCH   1  19
ATOM     19  C   UNL     1       2.794   5.002  18.694  0.00  0.00    +0.000 C 
BRANCH  19  20
ATOM     20  C   UNL     1       4.265   4.890  18.286  0.00  0.00    +0.000 A 
ATOM     21  C   UNL     1       5.259   5.162  19.225  0.00  0.00    +0.000 A 
ATOM     22  C   UNL     1       6.590   5.128  18.830  0.00  0.00    +0.000 A 
ATOM     23  C   UNL     1       6.900   4.830  17.509  0.00  0.00    +0.000 A 
ATOM     24  C   UNL     1       5.862   4.590  16.628  0.00  0.00    +0.000 A 
ATOM     25  N   UNL     1       4.561   4.633  16.980  0.00  0.00    +0.000 NA
ENDBRANCH  19  20
BRANCH  19  26
ATOM     26  C   UNL     1       1.847   4.503  17.575  0.00  0.00    +0.000 C 
BRANCH  26  28
ATOM     27  C   UNL     1       1.057   2.860  19.092  0.00  0.00    +0.000 C 
ATOM     28  O   UNL     1       1.532   3.116  17.780  0.00  0.00    +0.000 OA
ENDBRANCH  26  28
ENDBRANCH  19  26
ENDBRANCH   1  19
TORSDOF 7
ENDMDL
MODEL 9
REMARK VINA RESULT:      -6.7      2.251      3.484
REMARK  Name = 
REMARK  9 active torsions:
REMARK  status: ('A' for Active; 'I' for Inactive)
REMARK    1  A    between atoms: C_1  and  O_2
REMARK    2  A    between atoms: O_2  and  C_3
REMARK    3  A    between atoms: C_3  and  C_4
REMARK    4  A    between atoms: C_4  and  C_5
REMARK    5  A    between atoms: C_4  and  N_11
REMARK    6  A    between atoms: N_11  and  C_12
REMARK    7  A    between atoms: C_13  and  C_15
REMARK    8  A    between atoms: C_17  and  C_18
REMARK    9  A    between atoms: C_21  and  O_22
REMARK                            x       y       z     vdW  Elec       q    Type
REMARK                         _______ _______ _______ _____ _____    ______ ____
ROOT
ATOM      1  N   UNL     1       3.550   6.331  18.510  0.00  0.00    +0.000 N 
ATOM      2  C   UNL     1       2.760   6.248  19.737  0.00  0.00    +0.000 C 
ATOM      3  C   UNL     1       3.391   7.345  17.554  0.00  0.00    +0.000 C 
ATOM      4  O   UNL     1       4.012   7.322  16.494  0.00  0.00    +0.000 OA
ENDROOT
BRANCH   3   5
ATOM      5  C   UNL     1       2.446   8.413  17.808  0.00  0.00    +0.000 A 
ATOM      6  C   UNL     1       1.072   8.461  17.901  0.00  0.00    +0.000 A 
ATOM      7  C   UNL     1       0.717   9.820  18.090  0.00  0.00    +0.000 A 
ATOM      8  N   UNL     1       1.819  10.569  18.234  0.00  0.00    +0.000 NA
ATOM      9  N   UNL     1       2.838   9.692  18.107  0.00  0.00    +0.000 N 
ATOM     10  H   UNL     1       3.790  10.028  18.213  0.00  0.00    +0.000 HD
BRANCH   7  11
ATOM     11  C   UNL     1      -0.646  10.348  18.161  0.00  0.00    +0.000 A 
ATOM     12  C   UNL     1      -1.654   9.872  17.312  0.00  0.00    +0.000 A 
ATOM     13  C   UNL     1      -2.919  10.471  17.309  0.00  0.00    +0.000 A 
ATOM     14  C   UNL     1      -3.181  11.534  18.168  0.00  0.00    +0.000 A 
ATOM     15  C   UNL     1      -2.212  11.991  19.050  0.00  0.00    +0.000 A 
ATOM     16  C   UNL     1      -0.949  11.395  19.050  0.00  0.00    +0.000 A 
BRANCH  14  17
ATOM     17  O   UNL     1      -4.384  12.174  18.169  0.00  0.00    +0.000 OA
ATOM     18  H   UNL     1      -5.088  11.506  18.225  0.00  0.00    +0.000 HD
ENDBRANCH  14  17
ENDBRANCH   7  11
ENDBRANCH   3   5
BRANCH   1  19
ATOM     19  C   UNL     1       4.651   5.344  18.316  0.00  0.00    +0.000 C 
BRANCH  19  20
ATOM     20  C   UNL     1       4.156   3.897  18.385  0.00  0.00    +0.000 A 
ATOM     21  C   UNL     1       3.228   3.446  17.448  0.00  0.00    +0.000 A 
ATOM     22  C   UNL     1       2.729   2.154  17.558  0.00  0.00    +0.000 A 
ATOM     23  C   UNL     1       3.162   1.345  18.601  0.00  0.00    +0.000 A 
ATOM     24  C   UNL     1       4.070   1.866  19.504  0.00  0.00    +0.000 A 
ATOM     25  N   UNL     1       4.557   3.121  19.431  0.00  0.00    +0.000 NA
ENDBRANCH  19  20
BRANCH  19  26
ATOM     26  C   UNL     1       5.836   5.594  19.281  0.00  0.00    +0.000 C 
BRANCH  26  28
ATOM     27  C   UNL     1       7.365   5.637  17.469  0.00  0.00    +0.000 C 
ATOM     28  O   UNL     1       7.045   5.056  18.723  0.00  0.00    +0.000 OA
ENDBRANCH  26  28
ENDBRANCH  19  26
ENDBRANCH   1  19
TORSDOF 7
ENDMDL
