MODEL 1
REMARK VINA RESULT:      -7.4      0.000      0.000
REMARK  Name = 
REMARK  6 active torsions:
REMARK  status: ('A' for Active; 'I' for Inactive)
REMARK    1  A    between atoms: C_1  and  O_2
REMARK    2  A    between atoms: O_2  and  C_3
REMARK    3  A    between atoms: C_3  and  C_4
REMARK    4  A    between atoms: N_6  and  C_7
REMARK    5  A    between atoms: C_7  and  C_8
REMARK    6  A    between atoms: C_7  and  C_14
REMARK                            x       y       z     vdW  Elec       q    Type
REMARK                         _______ _______ _______ _____ _____    ______ ____
ROOT
ATOM      1  C   UNL     1       3.193   5.907  18.071  0.00  0.00    +0.000 C 
ENDROOT
BRANCH   1   2
ATOM      2  C   UNL     1       2.500   7.175  18.584  0.00  0.00    +0.000 A 
ATOM      3  C   UNL     1       2.108   7.317  19.929  0.00  0.00    +0.000 A 
ATOM      4  C   UNL     1       1.439   8.463  20.360  0.00  0.00    +0.000 A 
ATOM      5  C   UNL     1       1.126   9.473  19.454  0.00  0.00    +0.000 A 
ATOM      6  C   UNL     1       1.493   9.345  18.117  0.00  0.00    +0.000 A 
ATOM      7  C   UNL     1       2.179   8.202  17.683  0.00  0.00    +0.000 A 
ENDBRANCH   1   2
BRANCH   1   8
ATOM      8  C   UNL     1       4.723   5.968  18.144  0.00  0.00    +0.000 A 
ATOM      9  C   UNL     1       5.465   5.311  19.140  0.00  0.00    +0.000 A 
ATOM     10  C   UNL     1       6.846   5.495  19.245  0.00  0.00    +0.000 A 
ATOM     11  C   UNL     1       7.512   6.323  18.345  0.00  0.00    +0.000 A 
ATOM     12  C   UNL     1       6.806   6.934  17.313  0.00  0.00    +0.000 A 
ATOM     13  C   UNL     1       5.427   6.746  17.204  0.00  0.00    +0.000 A 
ENDBRANCH   1   8
BRANCH   1  16
ATOM     14  C   UNL     1       1.598   4.026  18.332  0.00  0.00    +0.000 C 
ATOM     15  O   UNL     1       1.102   4.158  17.217  0.00  0.00    +0.000 OA
ATOM     16  N   UNL     1       2.652   4.775  18.807  0.00  0.00    +0.000 N 
ATOM     17  H   UNL     1       2.771   4.782  19.814  0.00  0.00    +0.000 HD
BRANCH  14  18
ATOM     18  C   UNL     1       1.110   2.972  19.330  0.00  0.00    +0.000 C 
BRANCH  18  20
ATOM     19  C   UNL     1       1.606   2.671  21.618  0.00  0.00    +0.000 C 
ATOM     20  O   UNL     1       0.927   3.469  20.652  0.00  0.00    +0.000 OA
ENDBRANCH  18  20
ENDBRANCH  14  18
ENDBRANCH   1  16
TORSDOF 5
ENDMDL
MODEL 2
REMARK VINA RESULT:      -7.4      2.124      4.692
REMARK  Name = 
REMARK  6 active torsions:
REMARK  status: ('A' for Active; 'I' for Inactive)
REMARK    1  A    between atoms: C_1  and  O_2
REMARK    2  A    between atoms: O_2  and  C_3
REMARK    3  A    between atoms: C_3  and  C_4
REMARK    4  A    between atoms: N_6  and  C_7
REMARK    5  A    between atoms: C_7  and  C_8
REMARK    6  A    between atoms: C_7  and  C_14
REMARK                            x       y       z     vdW  Elec       q    Type
REMARK                         _______ _______ _______ _____ _____    ______ ____
ROOT
ATOM      1  C   UNL     1       3.276   6.052  19.359  0.00  0.00    +0.000 C 
ENDROOT
BRANCH   1   2
ATOM      2  C   UNL     1       2.520   7.378  19.217  0.00  0.00    +0.000 A 
ATOM      3  C   UNL     1       1.753   7.914  20.269  0.00  0.00    +0.000 A 
ATOM      4  C   UNL     1       1.040   9.100  20.099  0.00  0.00    +0.000 A 
ATOM      5  C   UNL     1       1.057   9.759  18.872  0.00  0.00    +0.000 A 
ATOM      6  C   UNL     1       1.800   9.238  17.815  0.00  0.00    +0.000 A 
ATOM      7  C   UNL     1       2.531   8.053  17.987  0.00  0.00    +0.000 A 
ENDBRANCH   1   2
BRANCH   1   8
ATOM      8  C   UNL     1       2.359   4.829  19.482  0.00  0.00    +0.000 A 
ATOM      9  C   UNL     1       1.993   4.272  20.719  0.00  0.00    +0.000 A 
ATOM     10  C   UNL     1       1.260   3.085  20.784  0.00  0.00    +0.000 A 
ATOM     11  C   UNL     1       0.865   2.443  19.614  0.00  0.00    +0.000 A 
ATOM     12  C   UNL     1       1.163   3.009  18.378  0.00  0.00    +0.000 A 
ATOM     13  C   UNL     1       1.890   4.199  18.313  0.00  0.00    +0.000 A 
ENDBRANCH   1   8
BRANCH   1  16
ATOM     14  C   UNL     1       5.457   5.407  18.371  0.00  0.00    +0.000 C 
ATOM     15  O   UNL     1       5.880   4.876  19.395  0.00  0.00    +0.000 OA
ATOM     16  N   UNL     1       4.194   5.939  18.236  0.00  0.00    +0.000 N 
ATOM     17  H   UNL     1       4.070   6.595  17.474  0.00  0.00    +0.000 HD
BRANCH  14  18
ATOM     18  C   UNL     1       6.294   5.511  17.093  0.00  0.00    +0.000 C 
BRANCH  18  20
ATOM     19  C   UNL     1       7.524   7.476  17.537  0.00  0.00    +0.000 C 
ATOM     20  O   UNL     1       6.565   6.849  16.688  0.00  0.00    +0.000 OA
ENDBRANCH  18  20
ENDBRANCH  14  18
ENDBRANCH   1  16
TORSDOF 5
ENDMDL
MODEL 3
REMARK VINA RESULT:      -7.4      2.186      4.835
REMARK  Name = 
REMARK  6 active torsions:
REMARK  status: ('A' for Active; 'I' for Inactive)
REMARK    1  A    between atoms: C_1  and  O_2
REMARK    2  A    between atoms: O_2  and  C_3
REMARK    3  A    between atoms: C_3  and  C_4
REMARK    4  A    between atoms: N_6  and  C_7
REMARK    5  A    between atoms: C_7  and  C_8
REMARK    6  A    between atoms: C_7  and  C_14
REMARK                            x       y       z     vdW  Elec       q    Type
REMARK                         _______ _______ _______ _____ _____    ______ ____
ROOT
ATOM      1  C   UNL     1       3.370   6.075  19.328  0.00  0.00    +0.000 C 
ENDROOT
BRANCH   1   2
ATOM      2  C   UNL     1       2.558   7.368  19.193  0.00  0.00    +0.000 A 
ATOM      3  C   UNL     1       1.801   7.888  20.261  0.00  0.00    +0.000 A 
ATOM      4  C   UNL     1       1.036   9.042  20.098  0.00  0.00    +0.000 A 
ATOM      5  C   UNL     1       0.989   9.683  18.863  0.00  0.00    +0.000 A 
ATOM      6  C   UNL     1       1.719   9.177  17.790  0.00  0.00    +0.000 A 
ATOM      7  C   UNL     1       2.502   8.025  17.954  0.00  0.00    +0.000 A 
ENDBRANCH   1   2
BRANCH   1   8
ATOM      8  C   UNL     1       2.510   4.808  19.391  0.00  0.00    +0.000 A 
ATOM      9  C   UNL     1       2.051   4.141  18.242  0.00  0.00    +0.000 A 
ATOM     10  C   UNL     1       1.167   3.065  18.342  0.00  0.00    +0.000 A 
ATOM     11  C   UNL     1       0.738   2.626  19.591  0.00  0.00    +0.000 A 
ATOM     12  C   UNL     1       1.227   3.232  20.744  0.00  0.00    +0.000 A 
ATOM     13  C   UNL     1       2.117   4.304  20.646  0.00  0.00    +0.000 A 
ENDBRANCH   1   8
BRANCH   1  16
ATOM     14  C   UNL     1       5.605   5.540  18.394  0.00  0.00    +0.000 C 
ATOM     15  O   UNL     1       6.010   4.985  19.413  0.00  0.00    +0.000 OA
ATOM     16  N   UNL     1       4.329   6.035  18.235  0.00  0.00    +0.000 N 
ATOM     17  H   UNL     1       4.209   6.715  17.493  0.00  0.00    +0.000 HD
BRANCH  14  18
ATOM     18  C   UNL     1       6.480   5.718  17.151  0.00  0.00    +0.000 C 
BRANCH  18  20
ATOM     19  C   UNL     1       7.651   7.721  17.588  0.00  0.00    +0.000 C 
ATOM     20  O   UNL     1       6.674   7.077  16.772  0.00  0.00    +0.000 OA
ENDBRANCH  18  20
ENDBRANCH  14  18
ENDBRANCH   1  16
TORSDOF 5
ENDMDL
MODEL 4
REMARK VINA RESULT:      -7.4      2.387      5.656
REMARK  Name = 
REMARK  6 active torsions:
REMARK  status: ('A' for Active; 'I' for Inactive)
REMARK    1  A    between atoms: C_1  and  O_2
REMARK    2  A    between atoms: O_2  and  C_3
REMARK    3  A    between atoms: C_3  and  C_4
REMARK    4  A    between atoms: N_6  and  C_7
REMARK    5  A    between atoms: C_7  and  C_8
REMARK    6  A    between atoms: C_7  and  C_14
REMARK                            x       y       z     vdW  Elec       q    Type
REMARK                         _______ _______ _______ _____ _____    ______ ____
ROOT
ATOM      1  C   UNL     1       3.305   6.005  17.713  0.00  0.00    +0.000 C 
ENDROOT
BRANCH   1   2
ATOM      2  C   UNL     1       2.841   4.643  18.242  0.00  0.00    +0.000 A 
ATOM      3  C   UNL     1       1.567   4.123  17.945  0.00  0.00    +0.000 A 
ATOM      4  C   UNL     1       1.153   2.902  18.476  0.00  0.00    +0.000 A 
ATOM      5  C   UNL     1       1.990   2.190  19.331  0.00  0.00    +0.000 A 
ATOM      6  C   UNL     1       3.250   2.694  19.648  0.00  0.00    +0.000 A 
ATOM      7  C   UNL     1       3.675   3.914  19.104  0.00  0.00    +0.000 A 
ENDBRANCH   1   2
BRANCH   1   8
ATOM      8  C   UNL     1       2.630   7.197  18.401  0.00  0.00    +0.000 A 
ATOM      9  C   UNL     1       2.264   7.188  19.758  0.00  0.00    +0.000 A 
ATOM     10  C   UNL     1       1.539   8.244  20.313  0.00  0.00    +0.000 A 
ATOM     11  C   UNL     1       1.181   9.336  19.528  0.00  0.00    +0.000 A 
ATOM     12  C   UNL     1       1.585   9.395  18.197  0.00  0.00    +0.000 A 
ATOM     13  C   UNL     1       2.317   8.343  17.643  0.00  0.00    +0.000 A 
ENDBRANCH   1   8
BRANCH   1  16
ATOM     14  C   UNL     1       5.564   6.347  16.747  0.00  0.00    +0.000 C 
ATOM     15  O   UNL     1       5.150   6.703  15.646  0.00  0.00    +0.000 OA
ATOM     16  N   UNL     1       4.755   6.056  17.824  0.00  0.00    +0.000 N 
ATOM     17  H   UNL     1       5.180   5.502  18.558  0.00  0.00    +0.000 HD
BRANCH  14  18
ATOM     18  C   UNL     1       7.056   6.214  17.061  0.00  0.00    +0.000 C 
BRANCH  18  20
ATOM     19  C   UNL     1       7.830   8.350  17.698  0.00  0.00    +0.000 C 
ATOM     20  O   UNL     1       7.829   7.348  16.683  0.00  0.00    +0.000 OA
ENDBRANCH  18  20
ENDBRANCH  14  18
ENDBRANCH   1  16
TORSDOF 5
ENDMDL
MODEL 5
REMARK VINA RESULT:      -7.4      2.366      5.627
REMARK  Name = 
REMARK  6 active torsions:
REMARK  status: ('A' for Active; 'I' for Inactive)
REMARK    1  A    between atoms: C_1  and  O_2
REMARK    2  A    between atoms: O_2  and  C_3
REMARK    3  A    between atoms: C_3  and  C_4
REMARK    4  A    between atoms: N_6  and  C_7
REMARK    5  A    between atoms: C_7  and  C_8
REMARK    6  A    between atoms: C_7  and  C_14
REMARK                            x       y       z     vdW  Elec       q    Type
REMARK                         _______ _______ _______ _____ _____    ______ ____
ROOT
ATOM      1  C   UNL     1       3.289   6.030  17.809  0.00  0.00    +0.000 C 
ENDROOT
BRANCH   1   2
ATOM      2  C   UNL     1       2.828   4.672  18.351  0.00  0.00    +0.000 A 
ATOM      3  C   UNL     1       3.651   3.880  19.175  0.00  0.00    +0.000 A 
ATOM      4  C   UNL     1       3.224   2.629  19.619  0.00  0.00    +0.000 A 
ATOM      5  C   UNL     1       1.983   2.134  19.230  0.00  0.00    +0.000 A 
ATOM      6  C   UNL     1       1.159   2.896  18.404  0.00  0.00    +0.000 A 
ATOM      7  C   UNL     1       1.578   4.161  17.968  0.00  0.00    +0.000 A 
ENDBRANCH   1   2
BRANCH   1   8
ATOM      8  C   UNL     1       2.598   7.227  18.472  0.00  0.00    +0.000 A 
ATOM      9  C   UNL     1       2.215   7.232  19.824  0.00  0.00    +0.000 A 
ATOM     10  C   UNL     1       1.477   8.292  20.357  0.00  0.00    +0.000 A 
ATOM     11  C   UNL     1       1.123   9.371  19.553  0.00  0.00    +0.000 A 
ATOM     12  C   UNL     1       1.544   9.416  18.228  0.00  0.00    +0.000 A 
ATOM     13  C   UNL     1       2.288   8.361  17.696  0.00  0.00    +0.000 A 
ENDBRANCH   1   8
BRANCH   1  16
ATOM     14  C   UNL     1       5.555   6.374  16.863  0.00  0.00    +0.000 C 
ATOM     15  O   UNL     1       5.151   6.713  15.753  0.00  0.00    +0.000 OA
ATOM     16  N   UNL     1       4.737   6.092  17.934  0.00  0.00    +0.000 N 
ATOM     17  H   UNL     1       5.157   5.550  18.680  0.00  0.00    +0.000 HD
BRANCH  14  18
ATOM     18  C   UNL     1       7.045   6.255  17.195  0.00  0.00    +0.000 C 
BRANCH  18  20
ATOM     19  C   UNL     1       7.897   8.397  17.699  0.00  0.00    +0.000 C 
ATOM     20  O   UNL     1       7.829   7.350  16.733  0.00  0.00    +0.000 OA
ENDBRANCH  18  20
ENDBRANCH  14  18
ENDBRANCH   1  16
TORSDOF 5
ENDMDL
MODEL 6
REMARK VINA RESULT:      -7.3      2.127      4.807
REMARK  Name = 
REMARK  6 active torsions:
REMARK  status: ('A' for Active; 'I' for Inactive)
REMARK    1  A    between atoms: C_1  and  O_2
REMARK    2  A    between atoms: O_2  and  C_3
REMARK    3  A    between atoms: C_3  and  C_4
REMARK    4  A    between atoms: N_6  and  C_7
REMARK    5  A    between atoms: C_7  and  C_8
REMARK    6  A    between atoms: C_7  and  C_14
REMARK                            x       y       z     vdW  Elec       q    Type
REMARK                         _______ _______ _______ _____ _____    ______ ____
ROOT
ATOM      1  C   UNL     1       3.229   6.142  19.355  0.00  0.00    +0.000 C 
ENDROOT
BRANCH   1   2
ATOM      2  C   UNL     1       2.441   7.444  19.170  0.00  0.00    +0.000 A 
ATOM      3  C   UNL     1       2.490   8.180  17.970  0.00  0.00    +0.000 A 
ATOM      4  C   UNL     1       1.798   9.384  17.843  0.00  0.00    +0.000 A 
ATOM      5  C   UNL     1       1.068   9.888  18.915  0.00  0.00    +0.000 A 
ATOM      6  C   UNL     1       1.018   9.182  20.115  0.00  0.00    +0.000 A 
ATOM      7  C   UNL     1       1.699   7.963  20.242  0.00  0.00    +0.000 A 
ENDBRANCH   1   2
BRANCH   1   8
ATOM      8  C   UNL     1       2.344   4.901  19.518  0.00  0.00    +0.000 A 
ATOM      9  C   UNL     1       2.017   4.357  20.772  0.00  0.00    +0.000 A 
ATOM     10  C   UNL     1       1.313   3.155  20.871  0.00  0.00    +0.000 A 
ATOM     11  C   UNL     1       0.907   2.484  19.720  0.00  0.00    +0.000 A 
ATOM     12  C   UNL     1       1.166   3.036  18.469  0.00  0.00    +0.000 A 
ATOM     13  C   UNL     1       1.864   4.242  18.369  0.00  0.00    +0.000 A 
ENDBRANCH   1   8
BRANCH   1  16
ATOM     14  C   UNL     1       5.417   5.493  18.385  0.00  0.00    +0.000 C 
ATOM     15  O   UNL     1       5.839   4.981  19.419  0.00  0.00    +0.000 OA
ATOM     16  N   UNL     1       4.152   6.016  18.237  0.00  0.00    +0.000 N 
ATOM     17  H   UNL     1       4.028   6.659  17.464  0.00  0.00    +0.000 HD
BRANCH  14  18
ATOM     18  C   UNL     1       6.258   5.580  17.109  0.00  0.00    +0.000 C 
BRANCH  18  20
ATOM     19  C   UNL     1       7.570   7.486  17.574  0.00  0.00    +0.000 C 
ATOM     20  O   UNL     1       6.583   6.911  16.721  0.00  0.00    +0.000 OA
ENDBRANCH  18  20
ENDBRANCH  14  18
ENDBRANCH   1  16
TORSDOF 5
ENDMDL
MODEL 7
REMARK VINA RESULT:      -7.3      2.188      4.952
REMARK  Name = 
REMARK  6 active torsions:
REMARK  status: ('A' for Active; 'I' for Inactive)
REMARK    1  A    between atoms: C_1  and  O_2
REMARK    2  A    between atoms: O_2  and  C_3
REMARK    3  A    between atoms: C_3  and  C_4
REMARK    4  A    between atoms: N_6  and  C_7
REMARK    5  A    between atoms: C_7  and  C_8
REMARK    6  A    between atoms: C_7  and  C_14
REMARK                            x       y       z     vdW  Elec       q    Type
REMARK                         _______ _______ _______ _____ _____    ______ ____
ROOT
ATOM      1  C   UNL     1       3.370   6.068  19.313  0.00  0.00    +0.000 C 
ENDROOT
BRANCH   1   2
ATOM      2  C   UNL     1       2.546   7.350  19.145  0.00  0.00    +0.000 A 
ATOM      3  C   UNL     1       2.567   8.098  17.952  0.00  0.00    +0.000 A 
ATOM      4  C   UNL     1       1.843   9.284  17.841  0.00  0.00    +0.000 A 
ATOM      5  C   UNL     1       1.109   9.761  18.924  0.00  0.00    +0.000 A 
ATOM      6  C   UNL     1       1.087   9.043  20.118  0.00  0.00    +0.000 A 
ATOM      7  C   UNL     1       1.801   7.842  20.228  0.00  0.00    +0.000 A 
ENDBRANCH   1   2
BRANCH   1   8
ATOM      8  C   UNL     1       2.519   4.796  19.412  0.00  0.00    +0.000 A 
ATOM      9  C   UNL     1       2.007   4.132  18.283  0.00  0.00    +0.000 A 
ATOM     10  C   UNL     1       1.134   3.051  18.421  0.00  0.00    +0.000 A 
ATOM     11  C   UNL     1       0.769   2.604  19.688  0.00  0.00    +0.000 A 
ATOM     12  C   UNL     1       1.312   3.207  20.819  0.00  0.00    +0.000 A 
ATOM     13  C   UNL     1       2.191   4.284  20.682  0.00  0.00    +0.000 A 
ENDBRANCH   1   8
BRANCH   1  16
ATOM     14  C   UNL     1       5.613   5.547  18.394  0.00  0.00    +0.000 C 
ATOM     15  O   UNL     1       6.034   5.044  19.433  0.00  0.00    +0.000 OA
ATOM     16  N   UNL     1       4.326   6.005  18.219  0.00  0.00    +0.000 N 
ATOM     17  H   UNL     1       4.188   6.652  17.451  0.00  0.00    +0.000 HD
BRANCH  14  18
ATOM     18  C   UNL     1       6.481   5.696  17.142  0.00  0.00    +0.000 C 
BRANCH  18  20
ATOM     19  C   UNL     1       7.647   7.692  17.615  0.00  0.00    +0.000 C 
ATOM     20  O   UNL     1       6.710   7.047  16.755  0.00  0.00    +0.000 OA
ENDBRANCH  18  20
ENDBRANCH  14  18
ENDBRANCH   1  16
TORSDOF 5
ENDMDL
MODEL 8
REMARK VINA RESULT:      -7.2      0.434      1.189
REMARK  Name = 
REMARK  6 active torsions:
REMARK  status: ('A' for Active; 'I' for Inactive)
REMARK    1  A    between atoms: C_1  and  O_2
REMARK    2  A    between atoms: O_2  and  C_3
REMARK    3  A    between atoms: C_3  and  C_4
REMARK    4  A    between atoms: N_6  and  C_7
REMARK    5  A    between atoms: C_7  and  C_8
REMARK    6  A    between atoms: C_7  and  C_14
REMARK                            x       y       z     vdW  Elec       q    Type
REMARK                         _______ _______ _______ _____ _____    ______ ____
ROOT
ATOM      1  C   UNL     1       3.291   5.734  18.063  0.00  0.00    +0.000 C 
ENDROOT
BRANCH   1   2
ATOM      2  C   UNL     1       2.537   6.972  18.563  0.00  0.00    +0.000 A 
ATOM      3  C   UNL     1       2.238   8.055  17.714  0.00  0.00    +0.000 A 
ATOM      4  C   UNL     1       1.590   9.188  18.204  0.00  0.00    +0.000 A 
ATOM      5  C   UNL     1       1.254   9.274  19.552  0.00  0.00    +0.000 A 
ATOM      6  C   UNL     1       1.554   8.220  20.412  0.00  0.00    +0.000 A 
ATOM      7  C   UNL     1       2.191   7.072  19.919  0.00  0.00    +0.000 A 
ENDBRANCH   1   2
BRANCH   1   8
ATOM      8  C   UNL     1       4.816   5.864  18.146  0.00  0.00    +0.000 A 
ATOM      9  C   UNL     1       5.575   5.290  19.181  0.00  0.00    +0.000 A 
ATOM     10  C   UNL     1       6.945   5.537  19.289  0.00  0.00    +0.000 A 
ATOM     11  C   UNL     1       7.585   6.348  18.356  0.00  0.00    +0.000 A 
ATOM     12  C   UNL     1       6.866   6.877  17.288  0.00  0.00    +0.000 A 
ATOM     13  C   UNL     1       5.497   6.624  17.175  0.00  0.00    +0.000 A 
ENDBRANCH   1   8
BRANCH   1  16
ATOM     14  C   UNL     1       2.172   3.524  18.181  0.00  0.00    +0.000 C 
ATOM     15  O   UNL     1       2.083   3.390  16.963  0.00  0.00    +0.000 OA
ATOM     16  N   UNL     1       2.796   4.582  18.803  0.00  0.00    +0.000 N 
ATOM     17  H   UNL     1       2.550   4.731  19.774  0.00  0.00    +0.000 HD
BRANCH  14  18
ATOM     18  C   UNL     1       1.616   2.490  19.164  0.00  0.00    +0.000 C 
BRANCH  18  20
ATOM     19  C   UNL     1       1.508   2.696  21.513  0.00  0.00    +0.000 C 
ATOM     20  O   UNL     1       0.918   3.060  20.267  0.00  0.00    +0.000 OA
ENDBRANCH  18  20
ENDBRANCH  14  18
ENDBRANCH   1  16
TORSDOF 5
ENDMDL
MODEL 9
REMARK VINA RESULT:      -7.2      2.316      4.832
REMARK  Name = 
REMARK  6 active torsions:
REMARK  status: ('A' for Active; 'I' for Inactive)
REMARK    1  A    between atoms: C_1  and  O_2
REMARK    2  A    between atoms: O_2  and  C_3
REMARK    3  A    between atoms: C_3  and  C_4
REMARK    4  A    between atoms: N_6  and  C_7
REMARK    5  A    between atoms: C_7  and  C_8
REMARK    6  A    between atoms: C_7  and  C_14
REMARK                            x       y       z     vdW  Elec       q    Type
REMARK                         _______ _______ _______ _____ _____    ______ ____
ROOT
ATOM      1  C   UNL     1       3.484   5.871  19.266  0.00  0.00    +0.000 C 
ENDROOT
BRANCH   1   2
ATOM      2  C   UNL     1       2.626   7.131  19.107  0.00  0.00    +0.000 A 
ATOM      3  C   UNL     1       2.552   7.834  17.889  0.00  0.00    +0.000 A 
ATOM      4  C   UNL     1       1.798   9.002  17.783  0.00  0.00    +0.000 A 
ATOM      5  C   UNL     1       1.127   9.505  18.895  0.00  0.00    +0.000 A 
ATOM      6  C   UNL     1       1.198   8.832  20.112  0.00  0.00    +0.000 A 
ATOM      7  C   UNL     1       1.942   7.649  20.218  0.00  0.00    +0.000 A 
ENDBRANCH   1   2
BRANCH   1   8
ATOM      8  C   UNL     1       2.702   4.564  19.093  0.00  0.00    +0.000 A 
ATOM      9  C   UNL     1       2.825   3.747  17.956  0.00  0.00    +0.000 A 
ATOM     10  C   UNL     1       2.002   2.632  17.781  0.00  0.00    +0.000 A 
ATOM     11  C   UNL     1       1.054   2.304  18.745  0.00  0.00    +0.000 A 
ATOM     12  C   UNL     1       0.956   3.063  19.908  0.00  0.00    +0.000 A 
ATOM     13  C   UNL     1       1.783   4.174  20.087  0.00  0.00    +0.000 A 
ENDBRANCH   1   8
BRANCH   1  16
ATOM     14  C   UNL     1       5.881   5.608  18.686  0.00  0.00    +0.000 C 
ATOM     15  O   UNL     1       6.182   5.063  19.745  0.00  0.00    +0.000 OA
ATOM     16  N   UNL     1       4.599   5.971  18.336  0.00  0.00    +0.000 N 
ATOM     17  H   UNL     1       4.522   6.661  17.598  0.00  0.00    +0.000 HD
BRANCH  14  18
ATOM     18  C   UNL     1       6.914   5.922  17.600  0.00  0.00    +0.000 C 
BRANCH  18  20
ATOM     19  C   UNL     1       6.795   4.256  15.932  0.00  0.00    +0.000 C 
ATOM     20  O   UNL     1       7.532   4.768  17.040  0.00  0.00    +0.000 OA
ENDBRANCH  18  20
ENDBRANCH  14  18
ENDBRANCH   1  16
TORSDOF 5
ENDMDL
