MODEL 1
REMARK VINA RESULT:      -8.3      0.000      0.000
REMARK  Name = 
REMARK  11 active torsions:
REMARK  status: ('A' for Active; 'I' for Inactive)
REMARK    1  A    between atoms: C_1  and  C_2
REMARK    2  A    between atoms: C_2  and  O_3
REMARK    3  A    between atoms: O_3  and  C_4
REMARK    4  A    between atoms: C_4  and  C_6
REMARK    5  A    between atoms: C_6  and  C_7
REMARK    6  A    between atoms: C_9  and  C_10
REMARK    7  A    between atoms: C_13  and  S_14
REMARK    8  A    between atoms: S_14  and  C_15
REMARK    9  A    between atoms: N_20  and  C_21
REMARK   10  A    between atoms: C_24  and  C_25
REMARK   11  A    between atoms: C_28  and  C_29
REMARK                            x       y       z     vdW  Elec       q    Type
REMARK                         _______ _______ _______ _____ _____    ______ ____
ROOT
ATOM      1  C   UNL     1       4.757   5.761  16.534  0.00  0.00    +0.000 A 
ATOM      2  C   UNL     1       4.066   6.945  16.889  0.00  0.00    +0.000 A 
ATOM      3  C   UNL     1       3.226   6.690  17.964  0.00  0.00    +0.000 A 
ATOM      4  N   UNL     1       3.383   5.322  18.285  0.00  0.00    +0.000 N 
ATOM      5  C   UNL     1       4.341   4.777  17.420  0.00  0.00    +0.000 A 
ATOM      6  C   UNL     1       4.777   3.344  17.391  0.00  0.00    +0.000 C 
ENDROOT
BRANCH   4   7
ATOM      7  C   UNL     1       2.680   4.602  19.306  0.00  0.00    +0.000 A 
ATOM      8  C   UNL     1       3.218   4.488  20.595  0.00  0.00    +0.000 A 
ATOM      9  C   UNL     1       2.615   3.661  21.544  0.00  0.00    +0.000 A 
ATOM     10  C   UNL     1       1.412   3.010  21.252  0.00  0.00    +0.000 A 
ATOM     11  C   UNL     1       0.729   2.157  22.276  0.00  0.00    +0.000 C 
ATOM     12  C   UNL     1       0.841   3.174  19.985  0.00  0.00    +0.000 A 
ATOM     13  C   UNL     1       1.487   3.935  19.007  0.00  0.00    +0.000 A 
ENDBRANCH   4   7
BRANCH   3  14
ATOM     14  C   UNL     1       2.369   7.683  18.666  0.00  0.00    +0.000 A 
ATOM     15  C   UNL     1       2.053   7.515  20.026  0.00  0.00    +0.000 A 
ATOM     16  C   UNL     1       1.336   8.491  20.731  0.00  0.00    +0.000 A 
ATOM     17  C   UNL     1       0.961   9.670  20.087  0.00  0.00    +0.000 A 
ATOM     18  C   UNL     1       1.216   9.839  18.728  0.00  0.00    +0.000 A 
ATOM     19  C   UNL     1       1.864   8.823  18.021  0.00  0.00    +0.000 A 
BRANCH  17  20
ATOM     20  S   UNL     1       0.091  10.947  20.969  0.00  0.00    +0.000 S 
ATOM     21  C   UNL     1       1.068  12.399  20.669  0.00  0.00    +0.000 C 
ATOM     22  O   UNL     1      -1.189  11.126  20.313  0.00  0.00    +0.000 OA
ATOM     23  O   UNL     1       0.184  10.629  22.386  0.00  0.00    +0.000 OA
ENDBRANCH  17  20
ENDBRANCH   3  14
BRANCH   1  24
ATOM     24  C   UNL     1       5.744   5.608  15.411  0.00  0.00    +0.000 C 
BRANCH  24  25
ATOM     25  C   UNL     1       7.149   5.458  15.938  0.00  0.00    +0.000 C 
ATOM     26  O   UNL     1       7.709   4.385  16.133  0.00  0.00    +0.000 OA
BRANCH  25  27
ATOM     27  O   UNL     1       7.654   6.682  16.266  0.00  0.00    +0.000 OA
BRANCH  27  29
ATOM     28  C   UNL     1       7.898   8.461  17.834  0.00  0.00    +0.000 C 
ATOM     29  C   UNL     1       7.688   6.966  17.670  0.00  0.00    +0.000 C 
ENDBRANCH  27  29
ENDBRANCH  25  27
ENDBRANCH  24  25
ENDBRANCH   1  24
TORSDOF 7
ENDMDL
MODEL 2
REMARK VINA RESULT:      -8.0      0.954      1.183
REMARK  Name = 
REMARK  11 active torsions:
REMARK  status: ('A' for Active; 'I' for Inactive)
REMARK    1  A    between atoms: C_1  and  C_2
REMARK    2  A    between atoms: C_2  and  O_3
REMARK    3  A    between atoms: O_3  and  C_4
REMARK    4  A    between atoms: C_4  and  C_6
REMARK    5  A    between atoms: C_6  and  C_7
REMARK    6  A    between atoms: C_9  and  C_10
REMARK    7  A    between atoms: C_13  and  S_14
REMARK    8  A    between atoms: S_14  and  C_15
REMARK    9  A    between atoms: N_20  and  C_21
REMARK   10  A    between atoms: C_24  and  C_25
REMARK   11  A    between atoms: C_28  and  C_29
REMARK                            x       y       z     vdW  Elec       q    Type
REMARK                         _______ _______ _______ _____ _____    ______ ____
ROOT
ATOM      1  C   UNL     1       4.598   5.998  16.498  0.00  0.00    +0.000 A 
ATOM      2  C   UNL     1       3.901   7.158  16.917  0.00  0.00    +0.000 A 
ATOM      3  C   UNL     1       3.098   6.850  18.007  0.00  0.00    +0.000 A 
ATOM      4  N   UNL     1       3.284   5.473  18.272  0.00  0.00    +0.000 N 
ATOM      5  C   UNL     1       4.223   4.976  17.358  0.00  0.00    +0.000 A 
ATOM      6  C   UNL     1       4.678   3.551  17.262  0.00  0.00    +0.000 C 
ENDROOT
BRANCH   4   7
ATOM      7  C   UNL     1       2.623   4.705  19.285  0.00  0.00    +0.000 A 
ATOM      8  C   UNL     1       3.191   4.571  20.560  0.00  0.00    +0.000 A 
ATOM      9  C   UNL     1       2.632   3.700  21.497  0.00  0.00    +0.000 A 
ATOM     10  C   UNL     1       1.442   3.025  21.211  0.00  0.00    +0.000 A 
ATOM     11  C   UNL     1       0.804   2.123  22.224  0.00  0.00    +0.000 C 
ATOM     12  C   UNL     1       0.840   3.207  19.960  0.00  0.00    +0.000 A 
ATOM     13  C   UNL     1       1.443   4.014  18.992  0.00  0.00    +0.000 A 
ENDBRANCH   4   7
BRANCH   3  14
ATOM     14  C   UNL     1       2.249   7.803  18.772  0.00  0.00    +0.000 A 
ATOM     15  C   UNL     1       1.985   7.585  20.136  0.00  0.00    +0.000 A 
ATOM     16  C   UNL     1       1.276   8.523  20.897  0.00  0.00    +0.000 A 
ATOM     17  C   UNL     1       0.857   9.716  20.306  0.00  0.00    +0.000 A 
ATOM     18  C   UNL     1       1.060   9.933  18.946  0.00  0.00    +0.000 A 
ATOM     19  C   UNL     1       1.701   8.954  18.183  0.00  0.00    +0.000 A 
BRANCH  17  20
ATOM     20  S   UNL     1      -0.003  10.946  21.261  0.00  0.00    +0.000 S 
ATOM     21  C   UNL     1      -0.436  10.087  22.752  0.00  0.00    +0.000 C 
ATOM     22  O   UNL     1       0.959  11.976  21.600  0.00  0.00    +0.000 OA
ATOM     23  O   UNL     1      -1.234  11.258  20.549  0.00  0.00    +0.000 OA
ENDBRANCH  17  20
ENDBRANCH   3  14
BRANCH   1  24
ATOM     24  C   UNL     1       5.551   5.902  15.341  0.00  0.00    +0.000 C 
BRANCH  24  25
ATOM     25  C   UNL     1       6.907   5.418  15.791  0.00  0.00    +0.000 C 
ATOM     26  O   UNL     1       7.522   4.491  15.275  0.00  0.00    +0.000 OA
BRANCH  25  27
ATOM     27  O   UNL     1       7.288   6.088  16.918  0.00  0.00    +0.000 OA
BRANCH  27  29
ATOM     28  C   UNL     1       7.156   5.712  19.267  0.00  0.00    +0.000 C 
ATOM     29  C   UNL     1       7.800   5.260  17.969  0.00  0.00    +0.000 C 
ENDBRANCH  27  29
ENDBRANCH  25  27
ENDBRANCH  24  25
ENDBRANCH   1  24
TORSDOF 7
ENDMDL
MODEL 3
REMARK VINA RESULT:      -8.0      1.112      1.944
REMARK  Name = 
REMARK  11 active torsions:
REMARK  status: ('A' for Active; 'I' for Inactive)
REMARK    1  A    between atoms: C_1  and  C_2
REMARK    2  A    between atoms: C_2  and  O_3
REMARK    3  A    between atoms: O_3  and  C_4
REMARK    4  A    between atoms: C_4  and  C_6
REMARK    5  A    between atoms: C_6  and  C_7
REMARK    6  A    between atoms: C_9  and  C_10
REMARK    7  A    between atoms: C_13  and  S_14
REMARK    8  A    between atoms: S_14  and  C_15
REMARK    9  A    between atoms: N_20  and  C_21
REMARK   10  A    between atoms: C_24  and  C_25
REMARK   11  A    between atoms: C_28  and  C_29
REMARK                            x       y       z     vdW  Elec       q    Type
REMARK                         _______ _______ _______ _____ _____    ______ ____
ROOT
ATOM      1  C   UNL     1       4.554   6.139  16.486  0.00  0.00    +0.000 A 
ATOM      2  C   UNL     1       3.844   7.286  16.920  0.00  0.00    +0.000 A 
ATOM      3  C   UNL     1       3.058   6.961  18.016  0.00  0.00    +0.000 A 
ATOM      4  N   UNL     1       3.267   5.585  18.271  0.00  0.00    +0.000 N 
ATOM      5  C   UNL     1       4.203   5.107  17.344  0.00  0.00    +0.000 A 
ATOM      6  C   UNL     1       4.678   3.690  17.234  0.00  0.00    +0.000 C 
ENDROOT
BRANCH   4   7
ATOM      7  C   UNL     1       2.628   4.801  19.287  0.00  0.00    +0.000 A 
ATOM      8  C   UNL     1       3.214   4.665  20.553  0.00  0.00    +0.000 A 
ATOM      9  C   UNL     1       2.677   3.781  21.491  0.00  0.00    +0.000 A 
ATOM     10  C   UNL     1       1.492   3.092  21.214  0.00  0.00    +0.000 A 
ATOM     11  C   UNL     1       0.879   2.176  22.228  0.00  0.00    +0.000 C 
ATOM     12  C   UNL     1       0.874   3.275  19.973  0.00  0.00    +0.000 A 
ATOM     13  C   UNL     1       1.454   4.096  19.003  0.00  0.00    +0.000 A 
ENDBRANCH   4   7
BRANCH   3  14
ATOM     14  C   UNL     1       2.204   7.896  18.796  0.00  0.00    +0.000 A 
ATOM     15  C   UNL     1       1.934   7.650  20.154  0.00  0.00    +0.000 A 
ATOM     16  C   UNL     1       1.220   8.572  20.931  0.00  0.00    +0.000 A 
ATOM     17  C   UNL     1       0.801   9.775  20.362  0.00  0.00    +0.000 A 
ATOM     18  C   UNL     1       1.009  10.020  19.007  0.00  0.00    +0.000 A 
ATOM     19  C   UNL     1       1.655   9.057  18.228  0.00  0.00    +0.000 A 
BRANCH  17  20
ATOM     20  S   UNL     1      -0.066  10.985  21.337  0.00  0.00    +0.000 S 
ATOM     21  C   UNL     1      -0.462  10.110  22.829  0.00  0.00    +0.000 C 
ATOM     22  O   UNL     1       0.883  12.030  21.668  0.00  0.00    +0.000 OA
ATOM     23  O   UNL     1      -1.313  11.279  20.645  0.00  0.00    +0.000 OA
ENDBRANCH  17  20
ENDBRANCH   3  14
BRANCH   1  24
ATOM     24  C   UNL     1       5.496   6.064  15.318  0.00  0.00    +0.000 C 
BRANCH  24  25
ATOM     25  C   UNL     1       6.845   5.538  15.740  0.00  0.00    +0.000 C 
ATOM     26  O   UNL     1       7.444   5.890  16.750  0.00  0.00    +0.000 OA
BRANCH  25  27
ATOM     27  O   UNL     1       7.338   4.704  14.780  0.00  0.00    +0.000 OA
BRANCH  27  29
ATOM     28  C   UNL     1       6.726   3.821  12.653  0.00  0.00    +0.000 C 
ATOM     29  C   UNL     1       6.358   3.890  14.124  0.00  0.00    +0.000 C 
ENDBRANCH  27  29
ENDBRANCH  25  27
ENDBRANCH  24  25
ENDBRANCH   1  24
TORSDOF 7
ENDMDL
MODEL 4
REMARK VINA RESULT:      -7.8      0.848      1.541
REMARK  Name = 
REMARK  11 active torsions:
REMARK  status: ('A' for Active; 'I' for Inactive)
REMARK    1  A    between atoms: C_1  and  C_2
REMARK    2  A    between atoms: C_2  and  O_3
REMARK    3  A    between atoms: O_3  and  C_4
REMARK    4  A    between atoms: C_4  and  C_6
REMARK    5  A    between atoms: C_6  and  C_7
REMARK    6  A    between atoms: C_9  and  C_10
REMARK    7  A    between atoms: C_13  and  S_14
REMARK    8  A    between atoms: S_14  and  C_15
REMARK    9  A    between atoms: N_20  and  C_21
REMARK   10  A    between atoms: C_24  and  C_25
REMARK   11  A    between atoms: C_28  and  C_29
REMARK                            x       y       z     vdW  Elec       q    Type
REMARK                         _______ _______ _______ _____ _____    ______ ____
ROOT
ATOM      1  C   UNL     1       4.610   6.054  16.457  0.00  0.00    +0.000 A 
ATOM      2  C   UNL     1       3.901   7.213  16.860  0.00  0.00    +0.000 A 
ATOM      3  C   UNL     1       3.101   6.913  17.953  0.00  0.00    +0.000 A 
ATOM      4  N   UNL     1       3.300   5.542  18.238  0.00  0.00    +0.000 N 
ATOM      5  C   UNL     1       4.245   5.041  17.332  0.00  0.00    +0.000 A 
ATOM      6  C   UNL     1       4.713   3.620  17.256  0.00  0.00    +0.000 C 
ENDROOT
BRANCH   4   7
ATOM      7  C   UNL     1       2.646   4.782  19.262  0.00  0.00    +0.000 A 
ATOM      8  C   UNL     1       3.215   4.670  20.538  0.00  0.00    +0.000 A 
ATOM      9  C   UNL     1       2.663   3.808  21.487  0.00  0.00    +0.000 A 
ATOM     10  C   UNL     1       1.480   3.117  21.210  0.00  0.00    +0.000 A 
ATOM     11  C   UNL     1       0.850   2.225  22.235  0.00  0.00    +0.000 C 
ATOM     12  C   UNL     1       0.876   3.278  19.957  0.00  0.00    +0.000 A 
ATOM     13  C   UNL     1       1.472   4.076  18.978  0.00  0.00    +0.000 A 
ENDBRANCH   4   7
BRANCH   3  14
ATOM     14  C   UNL     1       2.242   7.868  18.704  0.00  0.00    +0.000 A 
ATOM     15  C   UNL     1       2.006   7.685  20.078  0.00  0.00    +0.000 A 
ATOM     16  C   UNL     1       1.287   8.629  20.823  0.00  0.00    +0.000 A 
ATOM     17  C   UNL     1       0.830   9.793  20.205  0.00  0.00    +0.000 A 
ATOM     18  C   UNL     1       1.006   9.974  18.835  0.00  0.00    +0.000 A 
ATOM     19  C   UNL     1       1.657   8.988  18.091  0.00  0.00    +0.000 A 
BRANCH  17  20
ATOM     20  S   UNL     1      -0.044  11.031  21.136  0.00  0.00    +0.000 S 
ATOM     21  C   UNL     1       0.932  12.495  20.900  0.00  0.00    +0.000 C 
ATOM     22  O   UNL     1      -1.323  11.235  20.485  0.00  0.00    +0.000 OA
ATOM     23  O   UNL     1       0.045  10.655  22.539  0.00  0.00    +0.000 OA
ENDBRANCH  17  20
ENDBRANCH   3  14
BRANCH   1  24
ATOM     24  C   UNL     1       5.565   5.951  15.302  0.00  0.00    +0.000 C 
BRANCH  24  25
ATOM     25  C   UNL     1       6.995   5.912  15.781  0.00  0.00    +0.000 C 
ATOM     26  O   UNL     1       7.439   6.584  16.705  0.00  0.00    +0.000 OA
BRANCH  25  27
ATOM     27  O   UNL     1       7.735   5.107  14.965  0.00  0.00    +0.000 OA
BRANCH  27  29
ATOM     28  C   UNL     1       7.890   5.357  12.600  0.00  0.00    +0.000 C 
ATOM     29  C   UNL     1       7.096   4.739  13.737  0.00  0.00    +0.000 C 
ENDBRANCH  27  29
ENDBRANCH  25  27
ENDBRANCH  24  25
ENDBRANCH   1  24
TORSDOF 7
ENDMDL
MODEL 5
REMARK VINA RESULT:      -7.8      1.211      2.102
REMARK  Name = 
REMARK  11 active torsions:
REMARK  status: ('A' for Active; 'I' for Inactive)
REMARK    1  A    between atoms: C_1  and  C_2
REMARK    2  A    between atoms: C_2  and  O_3
REMARK    3  A    between atoms: O_3  and  C_4
REMARK    4  A    between atoms: C_4  and  C_6
REMARK    5  A    between atoms: C_6  and  C_7
REMARK    6  A    between atoms: C_9  and  C_10
REMARK    7  A    between atoms: C_13  and  S_14
REMARK    8  A    between atoms: S_14  and  C_15
REMARK    9  A    between atoms: N_20  and  C_21
REMARK   10  A    between atoms: C_24  and  C_25
REMARK   11  A    between atoms: C_28  and  C_29
REMARK                            x       y       z     vdW  Elec       q    Type
REMARK                         _______ _______ _______ _____ _____    ______ ____
ROOT
ATOM      1  C   UNL     1       4.673   5.995  16.313  0.00  0.00    +0.000 A 
ATOM      2  C   UNL     1       3.953   7.114  16.799  0.00  0.00    +0.000 A 
ATOM      3  C   UNL     1       3.191   6.737  17.895  0.00  0.00    +0.000 A 
ATOM      4  N   UNL     1       3.426   5.357  18.098  0.00  0.00    +0.000 N 
ATOM      5  C   UNL     1       4.354   4.928  17.140  0.00  0.00    +0.000 A 
ATOM      6  C   UNL     1       4.850   3.523  16.972  0.00  0.00    +0.000 C 
ENDROOT
BRANCH   4   7
ATOM      7  C   UNL     1       2.817   4.527  19.095  0.00  0.00    +0.000 A 
ATOM      8  C   UNL     1       1.492   4.095  18.949  0.00  0.00    +0.000 A 
ATOM      9  C   UNL     1       0.849   3.419  19.988  0.00  0.00    +0.000 A 
ATOM     10  C   UNL     1       1.547   3.080  21.150  0.00  0.00    +0.000 A 
ATOM     11  C   UNL     1       0.883   2.314  22.253  0.00  0.00    +0.000 C 
ATOM     12  C   UNL     1       2.890   3.457  21.270  0.00  0.00    +0.000 A 
ATOM     13  C   UNL     1       3.511   4.205  20.267  0.00  0.00    +0.000 A 
ENDBRANCH   4   7
BRANCH   3  14
ATOM     14  C   UNL     1       2.334   7.630  18.722  0.00  0.00    +0.000 A 
ATOM     15  C   UNL     1       2.152   7.373  20.093  0.00  0.00    +0.000 A 
ATOM     16  C   UNL     1       1.436   8.259  20.908  0.00  0.00    +0.000 A 
ATOM     17  C   UNL     1       0.927   9.439  20.364  0.00  0.00    +0.000 A 
ATOM     18  C   UNL     1       1.048   9.691  18.999  0.00  0.00    +0.000 A 
ATOM     19  C   UNL     1       1.698   8.761  18.186  0.00  0.00    +0.000 A 
BRANCH  17  20
ATOM     20  S   UNL     1       0.054  10.606  21.385  0.00  0.00    +0.000 S 
ATOM     21  C   UNL     1      -1.175  11.276  20.294  0.00  0.00    +0.000 C 
ATOM     22  O   UNL     1      -0.628   9.847  22.416  0.00  0.00    +0.000 OA
ATOM     23  O   UNL     1       0.990  11.670  21.716  0.00  0.00    +0.000 OA
ENDBRANCH  17  20
ENDBRANCH   3  14
BRANCH   1  24
ATOM     24  C   UNL     1       5.597   5.978  15.128  0.00  0.00    +0.000 C 
BRANCH  24  25
ATOM     25  C   UNL     1       6.952   5.433  15.503  0.00  0.00    +0.000 C 
ATOM     26  O   UNL     1       7.564   5.730  16.523  0.00  0.00    +0.000 OA
BRANCH  25  27
ATOM     27  O   UNL     1       7.435   4.654  14.492  0.00  0.00    +0.000 OA
BRANCH  27  29
ATOM     28  C   UNL     1       6.881   3.844  12.320  0.00  0.00    +0.000 C 
ATOM     29  C   UNL     1       6.442   3.914  13.772  0.00  0.00    +0.000 C 
ENDBRANCH  27  29
ENDBRANCH  25  27
ENDBRANCH  24  25
ENDBRANCH   1  24
TORSDOF 7
ENDMDL
MODEL 6
REMARK VINA RESULT:      -7.8      1.086      2.023
REMARK  Name = 
REMARK  11 active torsions:
REMARK  status: ('A' for Active; 'I' for Inactive)
REMARK    1  A    between atoms: C_1  and  C_2
REMARK    2  A    between atoms: C_2  and  O_3
REMARK    3  A    between atoms: O_3  and  C_4
REMARK    4  A    between atoms: C_4  and  C_6
REMARK    5  A    between atoms: C_6  and  C_7
REMARK    6  A    between atoms: C_9  and  C_10
REMARK    7  A    between atoms: C_13  and  S_14
REMARK    8  A    between atoms: S_14  and  C_15
REMARK    9  A    between atoms: N_20  and  C_21
REMARK   10  A    between atoms: C_24  and  C_25
REMARK   11  A    between atoms: C_28  and  C_29
REMARK                            x       y       z     vdW  Elec       q    Type
REMARK                         _______ _______ _______ _____ _____    ______ ____
ROOT
ATOM      1  C   UNL     1       4.708   5.815  16.386  0.00  0.00    +0.000 A 
ATOM      2  C   UNL     1       3.996   6.950  16.846  0.00  0.00    +0.000 A 
ATOM      3  C   UNL     1       3.221   6.601  17.943  0.00  0.00    +0.000 A 
ATOM      4  N   UNL     1       3.439   5.222  18.172  0.00  0.00    +0.000 N 
ATOM      5  C   UNL     1       4.371   4.766  17.230  0.00  0.00    +0.000 A 
ATOM      6  C   UNL     1       4.852   3.354  17.091  0.00  0.00    +0.000 C 
ENDROOT
BRANCH   4   7
ATOM      7  C   UNL     1       2.814   4.418  19.179  0.00  0.00    +0.000 A 
ATOM      8  C   UNL     1       1.471   4.037  19.053  0.00  0.00    +0.000 A 
ATOM      9  C   UNL     1       0.816   3.388  20.101  0.00  0.00    +0.000 A 
ATOM     10  C   UNL     1       1.518   3.022  21.253  0.00  0.00    +0.000 A 
ATOM     11  C   UNL     1       0.841   2.283  22.366  0.00  0.00    +0.000 C 
ATOM     12  C   UNL     1       2.876   3.347  21.353  0.00  0.00    +0.000 A 
ATOM     13  C   UNL     1       3.511   4.069  20.341  0.00  0.00    +0.000 A 
ENDBRANCH   4   7
BRANCH   3  14
ATOM     14  C   UNL     1       2.367   7.518  18.746  0.00  0.00    +0.000 A 
ATOM     15  C   UNL     1       2.122   7.255  20.106  0.00  0.00    +0.000 A 
ATOM     16  C   UNL     1       1.409   8.159  20.903  0.00  0.00    +0.000 A 
ATOM     17  C   UNL     1       0.967   9.364  20.354  0.00  0.00    +0.000 A 
ATOM     18  C   UNL     1       1.152   9.625  18.998  0.00  0.00    +0.000 A 
ATOM     19  C   UNL     1       1.796   8.678  18.199  0.00  0.00    +0.000 A 
BRANCH  17  20
ATOM     20  S   UNL     1       0.101  10.552  21.354  0.00  0.00    +0.000 S 
ATOM     21  C   UNL     1      -0.285   9.649  22.832  0.00  0.00    +0.000 C 
ATOM     22  O   UNL     1       1.048  11.594  21.701  0.00  0.00    +0.000 OA
ATOM     23  O   UNL     1      -1.149  10.856  20.674  0.00  0.00    +0.000 OA
ENDBRANCH  17  20
ENDBRANCH   3  14
BRANCH   1  24
ATOM     24  C   UNL     1       5.641   5.766  15.210  0.00  0.00    +0.000 C 
BRANCH  24  25
ATOM     25  C   UNL     1       7.081   5.837  15.654  0.00  0.00    +0.000 C 
ATOM     26  O   UNL     1       7.493   6.538  16.572  0.00  0.00    +0.000 OA
BRANCH  25  27
ATOM     27  O   UNL     1       7.861   5.094  14.816  0.00  0.00    +0.000 OA
BRANCH  27  29
ATOM     28  C   UNL     1       8.081   5.592  12.496  0.00  0.00    +0.000 C 
ATOM     29  C   UNL     1       7.283   4.823  13.534  0.00  0.00    +0.000 C 
ENDBRANCH  27  29
ENDBRANCH  25  27
ENDBRANCH  24  25
ENDBRANCH   1  24
TORSDOF 7
ENDMDL
MODEL 7
REMARK VINA RESULT:      -7.8      1.233      2.130
REMARK  Name = 
REMARK  11 active torsions:
REMARK  status: ('A' for Active; 'I' for Inactive)
REMARK    1  A    between atoms: C_1  and  C_2
REMARK    2  A    between atoms: C_2  and  O_3
REMARK    3  A    between atoms: O_3  and  C_4
REMARK    4  A    between atoms: C_4  and  C_6
REMARK    5  A    between atoms: C_6  and  C_7
REMARK    6  A    between atoms: C_9  and  C_10
REMARK    7  A    between atoms: C_13  and  S_14
REMARK    8  A    between atoms: S_14  and  C_15
REMARK    9  A    between atoms: N_20  and  C_21
REMARK   10  A    between atoms: C_24  and  C_25
REMARK   11  A    between atoms: C_28  and  C_29
REMARK                            x       y       z     vdW  Elec       q    Type
REMARK                         _______ _______ _______ _____ _____    ______ ____
ROOT
ATOM      1  C   UNL     1       4.517   5.938  16.291  0.00  0.00    +0.000 A 
ATOM      2  C   UNL     1       3.922   7.131  16.772  0.00  0.00    +0.000 A 
ATOM      3  C   UNL     1       3.182   6.855  17.913  0.00  0.00    +0.000 A 
ATOM      4  N   UNL     1       3.305   5.466  18.150  0.00  0.00    +0.000 N 
ATOM      5  C   UNL     1       4.145   4.928  17.166  0.00  0.00    +0.000 A 
ATOM      6  C   UNL     1       4.506   3.481  17.022  0.00  0.00    +0.000 C 
ENDROOT
BRANCH   4   7
ATOM      7  C   UNL     1       2.674   4.723  19.201  0.00  0.00    +0.000 A 
ATOM      8  C   UNL     1       3.325   4.533  20.427  0.00  0.00    +0.000 A 
ATOM      9  C   UNL     1       2.783   3.683  21.393  0.00  0.00    +0.000 A 
ATOM     10  C   UNL     1       1.536   3.086  21.189  0.00  0.00    +0.000 A 
ATOM     11  C   UNL     1       0.920   2.209  22.236  0.00  0.00    +0.000 C 
ATOM     12  C   UNL     1       0.856   3.326  19.989  0.00  0.00    +0.000 A 
ATOM     13  C   UNL     1       1.435   4.109  18.988  0.00  0.00    +0.000 A 
ENDBRANCH   4   7
BRANCH   3  14
ATOM     14  C   UNL     1       2.448   7.844  18.748  0.00  0.00    +0.000 A 
ATOM     15  C   UNL     1       1.991   9.049  18.186  0.00  0.00    +0.000 A 
ATOM     16  C   UNL     1       1.208   9.945  18.928  0.00  0.00    +0.000 A 
ATOM     17  C   UNL     1       0.838   9.620  20.233  0.00  0.00    +0.000 A 
ATOM     18  C   UNL     1       1.321   8.457  20.830  0.00  0.00    +0.000 A 
ATOM     19  C   UNL     1       2.164   7.613  20.103  0.00  0.00    +0.000 A 
BRANCH  17  20
ATOM     20  S   UNL     1      -0.194  10.714  21.182  0.00  0.00    +0.000 S 
ATOM     21  C   UNL     1      -1.332  11.358  19.981  0.00  0.00    +0.000 C 
ATOM     22  O   UNL     1      -0.944   9.896  22.115  0.00  0.00    +0.000 OA
ATOM     23  O   UNL     1       0.647  11.812  21.636  0.00  0.00    +0.000 OA
ENDBRANCH  17  20
ENDBRANCH   3  14
BRANCH   1  24
ATOM     24  C   UNL     1       5.377   5.804  15.067  0.00  0.00    +0.000 C 
BRANCH  24  25
ATOM     25  C   UNL     1       6.775   5.367  15.430  0.00  0.00    +0.000 C 
ATOM     26  O   UNL     1       7.477   5.911  16.274  0.00  0.00    +0.000 OA
BRANCH  25  27
ATOM     27  O   UNL     1       7.172   4.355  14.605  0.00  0.00    +0.000 OA
BRANCH  27  29
ATOM     28  C   UNL     1       6.727   3.751  12.343  0.00  0.00    +0.000 C 
ATOM     29  C   UNL     1       6.149   3.839  13.745  0.00  0.00    +0.000 C 
ENDBRANCH  27  29
ENDBRANCH  25  27
ENDBRANCH  24  25
ENDBRANCH   1  24
TORSDOF 7
ENDMDL
MODEL 8
REMARK VINA RESULT:      -7.8      0.718      1.231
REMARK  Name = 
REMARK  11 active torsions:
REMARK  status: ('A' for Active; 'I' for Inactive)
REMARK    1  A    between atoms: C_1  and  C_2
REMARK    2  A    between atoms: C_2  and  O_3
REMARK    3  A    between atoms: O_3  and  C_4
REMARK    4  A    between atoms: C_4  and  C_6
REMARK    5  A    between atoms: C_6  and  C_7
REMARK    6  A    between atoms: C_9  and  C_10
REMARK    7  A    between atoms: C_13  and  S_14
REMARK    8  A    between atoms: S_14  and  C_15
REMARK    9  A    between atoms: N_20  and  C_21
REMARK   10  A    between atoms: C_24  and  C_25
REMARK   11  A    between atoms: C_28  and  C_29
REMARK                            x       y       z     vdW  Elec       q    Type
REMARK                         _______ _______ _______ _____ _____    ______ ____
ROOT
ATOM      1  C   UNL     1       4.755   5.200  16.317  0.00  0.00    +0.000 A 
ATOM      2  C   UNL     1       4.178   6.449  16.651  0.00  0.00    +0.000 A 
ATOM      3  C   UNL     1       3.386   6.310  17.782  0.00  0.00    +0.000 A 
ATOM      4  N   UNL     1       3.456   4.949  18.161  0.00  0.00    +0.000 N 
ATOM      5  C   UNL     1       4.317   4.292  17.271  0.00  0.00    +0.000 A 
ATOM      6  C   UNL     1       4.639   2.829  17.288  0.00  0.00    +0.000 C 
ENDROOT
BRANCH   4   7
ATOM      7  C   UNL     1       2.761   4.333  19.252  0.00  0.00    +0.000 A 
ATOM      8  C   UNL     1       3.413   4.105  20.472  0.00  0.00    +0.000 A 
ATOM      9  C   UNL     1       2.790   3.369  21.482  0.00  0.00    +0.000 A 
ATOM     10  C   UNL     1       1.472   2.930  21.326  0.00  0.00    +0.000 A 
ATOM     11  C   UNL     1       0.775   2.179  22.418  0.00  0.00    +0.000 C 
ATOM     12  C   UNL     1       0.800   3.211  20.131  0.00  0.00    +0.000 A 
ATOM     13  C   UNL     1       1.449   3.877  19.089  0.00  0.00    +0.000 A 
ENDBRANCH   4   7
BRANCH   3  14
ATOM     14  C   UNL     1       2.650   7.397  18.482  0.00  0.00    +0.000 A 
ATOM     15  C   UNL     1       2.229   8.540  17.778  0.00  0.00    +0.000 A 
ATOM     16  C   UNL     1       1.445   9.524  18.395  0.00  0.00    +0.000 A 
ATOM     17  C   UNL     1       1.038   9.352  19.718  0.00  0.00    +0.000 A 
ATOM     18  C   UNL     1       1.483   8.256  20.452  0.00  0.00    +0.000 A 
ATOM     19  C   UNL     1       2.328   7.323  19.846  0.00  0.00    +0.000 A 
BRANCH  17  20
ATOM     20  S   UNL     1       0.002  10.562  20.512  0.00  0.00    +0.000 S 
ATOM     21  C   UNL     1       0.990  12.038  20.482  0.00  0.00    +0.000 C 
ATOM     22  O   UNL     1      -1.146  10.774  19.652  0.00  0.00    +0.000 OA
ATOM     23  O   UNL     1      -0.150  10.153  21.900  0.00  0.00    +0.000 OA
ENDBRANCH  17  20
ENDBRANCH   3  14
BRANCH   1  24
ATOM     24  C   UNL     1       5.658   4.920  15.150  0.00  0.00    +0.000 C 
BRANCH  24  25
ATOM     25  C   UNL     1       7.082   5.313  15.458  0.00  0.00    +0.000 C 
ATOM     26  O   UNL     1       7.906   5.657  14.619  0.00  0.00    +0.000 OA
BRANCH  25  27
ATOM     27  O   UNL     1       7.339   5.123  16.785  0.00  0.00    +0.000 OA
BRANCH  27  29
ATOM     28  C   UNL     1       7.754   5.932  18.988  0.00  0.00    +0.000 C 
ATOM     29  C   UNL     1       7.601   6.320  17.527  0.00  0.00    +0.000 C 
ENDBRANCH  27  29
ENDBRANCH  25  27
ENDBRANCH  24  25
ENDBRANCH   1  24
TORSDOF 7
ENDMDL
MODEL 9
REMARK VINA RESULT:      -7.8      1.027      1.364
REMARK  Name = 
REMARK  11 active torsions:
REMARK  status: ('A' for Active; 'I' for Inactive)
REMARK    1  A    between atoms: C_1  and  C_2
REMARK    2  A    between atoms: C_2  and  O_3
REMARK    3  A    between atoms: O_3  and  C_4
REMARK    4  A    between atoms: C_4  and  C_6
REMARK    5  A    between atoms: C_6  and  C_7
REMARK    6  A    between atoms: C_9  and  C_10
REMARK    7  A    between atoms: C_13  and  S_14
REMARK    8  A    between atoms: S_14  and  C_15
REMARK    9  A    between atoms: N_20  and  C_21
REMARK   10  A    between atoms: C_24  and  C_25
REMARK   11  A    between atoms: C_28  and  C_29
REMARK                            x       y       z     vdW  Elec       q    Type
REMARK                         _______ _______ _______ _____ _____    ______ ____
ROOT
ATOM      1  C   UNL     1       4.744   5.795  16.383  0.00  0.00    +0.000 A 
ATOM      2  C   UNL     1       4.032   6.932  16.838  0.00  0.00    +0.000 A 
ATOM      3  C   UNL     1       3.243   6.584  17.925  0.00  0.00    +0.000 A 
ATOM      4  N   UNL     1       3.452   5.203  18.152  0.00  0.00    +0.000 N 
ATOM      5  C   UNL     1       4.392   4.745  17.219  0.00  0.00    +0.000 A 
ATOM      6  C   UNL     1       4.868   3.331  17.082  0.00  0.00    +0.000 C 
ENDROOT
BRANCH   4   7
ATOM      7  C   UNL     1       2.810   4.399  19.149  0.00  0.00    +0.000 A 
ATOM      8  C   UNL     1       1.466   4.027  19.007  0.00  0.00    +0.000 A 
ATOM      9  C   UNL     1       0.797   3.378  20.046  0.00  0.00    +0.000 A 
ATOM     10  C   UNL     1       1.485   3.003  21.204  0.00  0.00    +0.000 A 
ATOM     11  C   UNL     1       0.791   2.264  22.308  0.00  0.00    +0.000 C 
ATOM     12  C   UNL     1       2.843   3.319  21.320  0.00  0.00    +0.000 A 
ATOM     13  C   UNL     1       3.493   4.042  20.317  0.00  0.00    +0.000 A 
ENDBRANCH   4   7
BRANCH   3  14
ATOM     14  C   UNL     1       2.384   7.502  18.720  0.00  0.00    +0.000 A 
ATOM     15  C   UNL     1       2.152   7.256  20.085  0.00  0.00    +0.000 A 
ATOM     16  C   UNL     1       1.434   8.164  20.875  0.00  0.00    +0.000 A 
ATOM     17  C   UNL     1       0.975   9.355  20.311  0.00  0.00    +0.000 A 
ATOM     18  C   UNL     1       1.146   9.599  18.951  0.00  0.00    +0.000 A 
ATOM     19  C   UNL     1       1.796   8.648  18.161  0.00  0.00    +0.000 A 
BRANCH  17  20
ATOM     20  S   UNL     1       0.101  10.548  21.301  0.00  0.00    +0.000 S 
ATOM     21  C   UNL     1      -1.112  11.206  20.184  0.00  0.00    +0.000 C 
ATOM     22  O   UNL     1      -0.596   9.816  22.339  0.00  0.00    +0.000 OA
ATOM     23  O   UNL     1       1.042  11.612  21.619  0.00  0.00    +0.000 OA
ENDBRANCH  17  20
ENDBRANCH   3  14
BRANCH   1  24
ATOM     24  C   UNL     1       5.690   5.745  15.217  0.00  0.00    +0.000 C 
BRANCH  24  25
ATOM     25  C   UNL     1       7.088   5.399  15.666  0.00  0.00    +0.000 C 
ATOM     26  O   UNL     1       7.822   4.595  15.102  0.00  0.00    +0.000 OA
BRANCH  25  27
ATOM     27  O   UNL     1       7.366   6.028  16.845  0.00  0.00    +0.000 OA
BRANCH  27  29
ATOM     28  C   UNL     1       7.341   5.761  19.213  0.00  0.00    +0.000 C 
ATOM     29  C   UNL     1       7.814   5.167  17.898  0.00  0.00    +0.000 C 
ENDBRANCH  27  29
ENDBRANCH  25  27
ENDBRANCH  24  25
ENDBRANCH   1  24
TORSDOF 7
ENDMDL
