MODEL 1
REMARK VINA RESULT:      -7.5      0.000      0.000
REMARK  Name = 
REMARK  6 active torsions:
REMARK  status: ('A' for Active; 'I' for Inactive)
REMARK    1  A    between atoms: C_1  and  C_2
REMARK    2  A    between atoms: C_2  and  C_3
REMARK    3  A    between atoms: C_7  and  N_8
REMARK    4  A    between atoms: N_8  and  C_9
REMARK    5  A    between atoms: N_12  and  C_13
REMARK    6  A    between atoms: N_12  and  C_14
REMARK                            x       y       z     vdW  Elec       q    Type
REMARK                         _______ _______ _______ _____ _____    ______ ____
ROOT
ATOM      1  N   UNL     1       6.661   5.142  16.155  0.00  0.00    +0.000 N 
ATOM      2  C   UNL     1       7.645   6.084  16.697  0.00  0.00    +0.000 C 
ATOM      3  C   UNL     1       5.583   4.610  17.014  0.00  0.00    +0.000 C 
ATOM      4  N   UNL     1       4.820   3.661  16.584  0.00  0.00    +0.000 NA
ATOM      5  N   UNL     1       5.338   5.022  18.404  0.00  0.00    +0.000 N 
ATOM      6  C   UNL     1       6.413   5.380  19.332  0.00  0.00    +0.000 C 
ATOM      7  H   UNL     1       4.870   3.209  15.670  0.00  0.00    +0.000 HD
ENDROOT
BRANCH   5   8
ATOM      8  C   UNL     1       3.995   4.934  18.980  0.00  0.00    +0.000 A 
ATOM      9  C   UNL     1       3.661   3.866  19.867  0.00  0.00    +0.000 A 
ATOM     10  C   UNL     1       2.396   3.744  20.438  0.00  0.00    +0.000 A 
ATOM     11 BR   UNL     1       2.016   2.280  21.611  0.00  0.00    +0.000 Br
ATOM     12  C   UNL     1       1.413   4.682  20.162  0.00  0.00    +0.000 A 
ATOM     13  C   UNL     1       1.699   5.754  19.324  0.00  0.00    +0.000 A 
ATOM     14  C   UNL     1       2.965   5.901  18.734  0.00  0.00    +0.000 A 
ATOM     15 BR   UNL     1       3.176   7.521  17.716  0.00  0.00    +0.000 Br
ENDBRANCH   5   8
BRANCH   1  20
ATOM     16  C   UNL     1       6.039   3.646  12.713  0.00  0.00    +0.000 A 
ATOM     17  C   UNL     1       7.033   4.268  11.954  0.00  0.00    +0.000 A 
ATOM     18  C   UNL     1       7.890   5.195  12.546  0.00  0.00    +0.000 A 
ATOM     19  C   UNL     1       7.780   5.503  13.911  0.00  0.00    +0.000 A 
ATOM     20  C   UNL     1       6.779   4.910  14.715  0.00  0.00    +0.000 A 
ATOM     21  C   UNL     1       5.903   3.993  14.070  0.00  0.00    +0.000 A 
BRANCH  16  23
ATOM     22  C   UNL     1       4.069   3.237  11.206  0.00  0.00    +0.000 C 
ATOM     23  C   UNL     1       5.143   2.593  12.093  0.00  0.00    +0.000 C 
ENDBRANCH  16  23
ENDBRANCH   1  20
TORSDOF 3
ENDMDL
MODEL 2
REMARK VINA RESULT:      -7.4      5.218      7.445
REMARK  Name = 
REMARK  6 active torsions:
REMARK  status: ('A' for Active; 'I' for Inactive)
REMARK    1  A    between atoms: C_1  and  C_2
REMARK    2  A    between atoms: C_2  and  C_3
REMARK    3  A    between atoms: C_7  and  N_8
REMARK    4  A    between atoms: N_8  and  C_9
REMARK    5  A    between atoms: N_12  and  C_13
REMARK    6  A    between atoms: N_12  and  C_14
REMARK                            x       y       z     vdW  Elec       q    Type
REMARK                         _______ _______ _______ _____ _____    ______ ____
ROOT
ATOM      1  N   UNL     1       1.943   7.876  19.154  0.00  0.00    +0.000 N 
ATOM      2  C   UNL     1       1.798   7.426  20.542  0.00  0.00    +0.000 C 
ATOM      3  C   UNL     1       1.392   9.178  18.728  0.00  0.00    +0.000 C 
ATOM      4  N   UNL     1       1.377   9.499  17.477  0.00  0.00    +0.000 NA
ATOM      5  N   UNL     1       0.757  10.154  19.626  0.00  0.00    +0.000 N 
ATOM      6  C   UNL     1      -0.053   9.766  20.783  0.00  0.00    +0.000 C 
ATOM      7  H   UNL     1       1.723   8.931  16.702  0.00  0.00    +0.000 HD
ENDROOT
BRANCH   5   8
ATOM      8  C   UNL     1       0.772  11.582  19.304  0.00  0.00    +0.000 A 
ATOM      9  C   UNL     1       1.921  12.376  19.603  0.00  0.00    +0.000 A 
ATOM     10  C   UNL     1       1.978  13.737  19.315  0.00  0.00    +0.000 A 
ATOM     11 BR   UNL     1       3.547  14.741  19.754  0.00  0.00    +0.000 Br
ATOM     12  C   UNL     1       0.902  14.366  18.706  0.00  0.00    +0.000 A 
ATOM     13  C   UNL     1      -0.228  13.630  18.373  0.00  0.00    +0.000 A 
ATOM     14  C   UNL     1      -0.313  12.256  18.653  0.00  0.00    +0.000 A 
ATOM     15 BR   UNL     1      -1.912  11.415  17.990  0.00  0.00    +0.000 Br
ENDBRANCH   5   8
BRANCH   1  20
ATOM     16  C   UNL     1       3.213   4.722  17.447  0.00  0.00    +0.000 A 
ATOM     17  C   UNL     1       4.394   5.179  16.858  0.00  0.00    +0.000 A 
ATOM     18  C   UNL     1       4.769   6.516  16.985  0.00  0.00    +0.000 A 
ATOM     19  C   UNL     1       3.981   7.414  17.720  0.00  0.00    +0.000 A 
ATOM     20  C   UNL     1       2.770   7.000  18.321  0.00  0.00    +0.000 A 
ATOM     21  C   UNL     1       2.402   5.638  18.143  0.00  0.00    +0.000 A 
BRANCH  16  23
ATOM     22  C   UNL     1       1.652   2.946  18.299  0.00  0.00    +0.000 C 
ATOM     23  C   UNL     1       2.828   3.259  17.364  0.00  0.00    +0.000 C 
ENDBRANCH  16  23
ENDBRANCH   1  20
TORSDOF 3
ENDMDL
MODEL 3
REMARK VINA RESULT:      -7.2      0.950      2.356
REMARK  Name = 
REMARK  6 active torsions:
REMARK  status: ('A' for Active; 'I' for Inactive)
REMARK    1  A    between atoms: C_1  and  C_2
REMARK    2  A    between atoms: C_2  and  C_3
REMARK    3  A    between atoms: C_7  and  N_8
REMARK    4  A    between atoms: N_8  and  C_9
REMARK    5  A    between atoms: N_12  and  C_13
REMARK    6  A    between atoms: N_12  and  C_14
REMARK                            x       y       z     vdW  Elec       q    Type
REMARK                         _______ _______ _______ _____ _____    ______ ____
ROOT
ATOM      1  N   UNL     1       6.526   4.540  16.169  0.00  0.00    +0.000 N 
ATOM      2  C   UNL     1       7.793   4.669  16.897  0.00  0.00    +0.000 C 
ATOM      3  C   UNL     1       5.240   4.561  16.897  0.00  0.00    +0.000 C 
ATOM      4  N   UNL     1       4.141   4.285  16.278  0.00  0.00    +0.000 NA
ATOM      5  N   UNL     1       5.097   4.800  18.340  0.00  0.00    +0.000 N 
ATOM      6  C   UNL     1       6.077   4.338  19.326  0.00  0.00    +0.000 C 
ATOM      7  H   UNL     1       4.044   4.043  15.290  0.00  0.00    +0.000 HD
ENDROOT
BRANCH   5   8
ATOM      8  C   UNL     1       3.866   5.378  18.880  0.00  0.00    +0.000 A 
ATOM      9  C   UNL     1       3.466   6.698  18.510  0.00  0.00    +0.000 A 
ATOM     10  C   UNL     1       2.304   7.286  19.000  0.00  0.00    +0.000 A 
ATOM     11 BR   UNL     1       1.836   9.064  18.468  0.00  0.00    +0.000 Br
ATOM     12  C   UNL     1       1.482   6.586  19.871  0.00  0.00    +0.000 A 
ATOM     13  C   UNL     1       1.816   5.289  20.241  0.00  0.00    +0.000 A 
ATOM     14  C   UNL     1       2.983   4.671  19.762  0.00  0.00    +0.000 A 
ATOM     15 BR   UNL     1       3.180   2.834  20.302  0.00  0.00    +0.000 Br
ENDBRANCH   5   8
BRANCH   1  20
ATOM     16  C   UNL     1       6.046   3.501  12.541  0.00  0.00    +0.000 A 
ATOM     17  C   UNL     1       6.982   4.310  11.892  0.00  0.00    +0.000 A 
ATOM     18  C   UNL     1       7.752   5.215  12.622  0.00  0.00    +0.000 A 
ATOM     19  C   UNL     1       7.612   5.314  14.015  0.00  0.00    +0.000 A 
ATOM     20  C   UNL     1       6.667   4.527  14.712  0.00  0.00    +0.000 A 
ATOM     21  C   UNL     1       5.877   3.638  13.931  0.00  0.00    +0.000 A 
BRANCH  16  23
ATOM     22  C   UNL     1       4.020   3.113  11.104  0.00  0.00    +0.000 C 
ATOM     23  C   UNL     1       5.249   2.473  11.765  0.00  0.00    +0.000 C 
ENDBRANCH  16  23
ENDBRANCH   1  20
TORSDOF 3
ENDMDL
MODEL 4
REMARK VINA RESULT:      -7.1      3.139      7.766
REMARK  Name = 
REMARK  6 active torsions:
REMARK  status: ('A' for Active; 'I' for Inactive)
REMARK    1  A    between atoms: C_1  and  C_2
REMARK    2  A    between atoms: C_2  and  C_3
REMARK    3  A    between atoms: C_7  and  N_8
REMARK    4  A    between atoms: N_8  and  C_9
REMARK    5  A    between atoms: N_12  and  C_13
REMARK    6  A    between atoms: N_12  and  C_14
REMARK                            x       y       z     vdW  Elec       q    Type
REMARK                         _______ _______ _______ _____ _____    ______ ____
ROOT
ATOM      1  N   UNL     1       2.689   6.162  18.820  0.00  0.00    +0.000 N 
ATOM      2  C   UNL     1       1.859   5.011  19.191  0.00  0.00    +0.000 C 
ATOM      3  C   UNL     1       3.972   5.962  18.115  0.00  0.00    +0.000 C 
ATOM      4  N   UNL     1       4.775   6.958  17.935  0.00  0.00    +0.000 NA
ATOM      5  N   UNL     1       4.480   4.665  17.649  0.00  0.00    +0.000 N 
ATOM      6  C   UNL     1       4.253   3.411  18.373  0.00  0.00    +0.000 C 
ATOM      7  H   UNL     1       4.621   7.923  18.234  0.00  0.00    +0.000 HD
ENDROOT
BRANCH   5   8
ATOM      8  C   UNL     1       5.389   4.588  16.504  0.00  0.00    +0.000 A 
ATOM      9  C   UNL     1       4.892   4.243  15.211  0.00  0.00    +0.000 A 
ATOM     10  C   UNL     1       5.722   4.158  14.095  0.00  0.00    +0.000 A 
ATOM     11 BR   UNL     1       4.988   3.680  12.394  0.00  0.00    +0.000 Br
ATOM     12  C   UNL     1       7.078   4.424  14.214  0.00  0.00    +0.000 A 
ATOM     13  C   UNL     1       7.604   4.788  15.448  0.00  0.00    +0.000 A 
ATOM     14  C   UNL     1       6.791   4.881  16.589  0.00  0.00    +0.000 A 
ATOM     15 BR   UNL     1       7.704   5.523  18.157  0.00  0.00    +0.000 Br
ENDBRANCH   5   8
BRANCH   1  20
ATOM     16  C   UNL     1       0.987   8.986  20.718  0.00  0.00    +0.000 A 
ATOM     17  C   UNL     1       0.716   9.891  19.689  0.00  0.00    +0.000 A 
ATOM     18  C   UNL     1       1.110   9.605  18.382  0.00  0.00    +0.000 A 
ATOM     19  C   UNL     1       1.763   8.401  18.078  0.00  0.00    +0.000 A 
ATOM     20  C   UNL     1       2.071   7.461  19.089  0.00  0.00    +0.000 A 
ATOM     21  C   UNL     1       1.684   7.801  20.415  0.00  0.00    +0.000 A 
BRANCH  16  23
ATOM     22  C   UNL     1      -0.377  10.511  22.177  0.00  0.00    +0.000 C 
ATOM     23  C   UNL     1       0.510   9.260  22.129  0.00  0.00    +0.000 C 
ENDBRANCH  16  23
ENDBRANCH   1  20
TORSDOF 3
ENDMDL
MODEL 5
REMARK VINA RESULT:      -7.0      5.210      7.839
REMARK  Name = 
REMARK  6 active torsions:
REMARK  status: ('A' for Active; 'I' for Inactive)
REMARK    1  A    between atoms: C_1  and  C_2
REMARK    2  A    between atoms: C_2  and  C_3
REMARK    3  A    between atoms: C_7  and  N_8
REMARK    4  A    between atoms: N_8  and  C_9
REMARK    5  A    between atoms: N_12  and  C_13
REMARK    6  A    between atoms: N_12  and  C_14
REMARK                            x       y       z     vdW  Elec       q    Type
REMARK                         _______ _______ _______ _____ _____    ______ ____
ROOT
ATOM      1  N   UNL     1       2.041   8.066  18.942  0.00  0.00    +0.000 N 
ATOM      2  C   UNL     1       2.712   8.416  17.686  0.00  0.00    +0.000 C 
ATOM      3  C   UNL     1       1.276   9.085  19.690  0.00  0.00    +0.000 C 
ATOM      4  N   UNL     1       0.825   8.820  20.871  0.00  0.00    +0.000 NA
ATOM      5  N   UNL     1       1.037  10.460  19.229  0.00  0.00    +0.000 N 
ATOM      6  C   UNL     1       2.018  11.225  18.454  0.00  0.00    +0.000 C 
ATOM      7  H   UNL     1       0.936   7.941  21.379  0.00  0.00    +0.000 HD
ENDROOT
BRANCH   5   8
ATOM      8  C   UNL     1      -0.147  11.199  19.671  0.00  0.00    +0.000 A 
ATOM      9  C   UNL     1      -0.070  12.076  20.796  0.00  0.00    +0.000 A 
ATOM     10  C   UNL     1      -1.171  12.797  21.250  0.00  0.00    +0.000 A 
ATOM     11 BR   UNL     1      -0.998  13.946  22.771  0.00  0.00    +0.000 Br
ATOM     12  C   UNL     1      -2.393  12.687  20.601  0.00  0.00    +0.000 A 
ATOM     13  C   UNL     1      -2.509  11.865  19.487  0.00  0.00    +0.000 A 
ATOM     14  C   UNL     1      -1.416  11.126  19.007  0.00  0.00    +0.000 A 
ATOM     15 BR   UNL     1      -1.771  10.159  17.382  0.00  0.00    +0.000 Br
ENDBRANCH   5   8
BRANCH   1  20
ATOM     16  C   UNL     1       2.316   4.298  18.501  0.00  0.00    +0.000 A 
ATOM     17  C   UNL     1       2.067   3.846  19.799  0.00  0.00    +0.000 A 
ATOM     18  C   UNL     1       1.837   4.758  20.828  0.00  0.00    +0.000 A 
ATOM     19  C   UNL     1       1.835   6.139  20.573  0.00  0.00    +0.000 A 
ATOM     20  C   UNL     1       2.098   6.643  19.279  0.00  0.00    +0.000 A 
ATOM     21  C   UNL     1       2.359   5.684  18.261  0.00  0.00    +0.000 A 
BRANCH  16  23
ATOM     22  C   UNL     1       3.040   1.971  17.885  0.00  0.00    +0.000 C 
ATOM     23  C   UNL     1       2.507   3.313  17.366  0.00  0.00    +0.000 C 
ENDBRANCH  16  23
ENDBRANCH   1  20
TORSDOF 3
ENDMDL
MODEL 6
REMARK VINA RESULT:      -6.9      9.819     11.671
REMARK  Name = 
REMARK  6 active torsions:
REMARK  status: ('A' for Active; 'I' for Inactive)
REMARK    1  A    between atoms: C_1  and  C_2
REMARK    2  A    between atoms: C_2  and  C_3
REMARK    3  A    between atoms: C_7  and  N_8
REMARK    4  A    between atoms: N_8  and  C_9
REMARK    5  A    between atoms: N_12  and  C_13
REMARK    6  A    between atoms: N_12  and  C_14
REMARK                            x       y       z     vdW  Elec       q    Type
REMARK                         _______ _______ _______ _____ _____    ______ ____
ROOT
ATOM      1  N   UNL     1       0.995  13.342  19.252  0.00  0.00    +0.000 N 
ATOM      2  C   UNL     1       1.567  12.790  20.485  0.00  0.00    +0.000 C 
ATOM      3  C   UNL     1      -0.292  12.836  18.733  0.00  0.00    +0.000 C 
ATOM      4  N   UNL     1      -0.712  13.204  17.569  0.00  0.00    +0.000 NA
ATOM      5  N   UNL     1      -1.139  11.846  19.413  0.00  0.00    +0.000 N 
ATOM      6  C   UNL     1      -0.596  10.740  20.207  0.00  0.00    +0.000 C 
ATOM      7  H   UNL     1      -0.238  13.842  16.927  0.00  0.00    +0.000 HD
ENDROOT
BRANCH   5   8
ATOM      8  C   UNL     1      -2.586  11.824  19.189  0.00  0.00    +0.000 A 
ATOM      9  C   UNL     1      -3.450  12.632  19.989  0.00  0.00    +0.000 A 
ATOM     10  C   UNL     1      -4.831  12.642  19.811  0.00  0.00    +0.000 A 
ATOM     11 BR   UNL     1      -5.930  13.741  20.927  0.00  0.00    +0.000 Br
ATOM     12  C   UNL     1      -5.412  11.859  18.824  0.00  0.00    +0.000 A 
ATOM     13  C   UNL     1      -4.609  11.075  18.004  0.00  0.00    +0.000 A 
ATOM     14  C   UNL     1      -3.214  11.046  18.162  0.00  0.00    +0.000 A 
ATOM     15 BR   UNL     1      -2.294   9.994  16.839  0.00  0.00    +0.000 Br
ENDBRANCH   5   8
BRANCH   1  20
ATOM     16  C   UNL     1       1.751  16.881  18.079  0.00  0.00    +0.000 A 
ATOM     17  C   UNL     1       3.018  16.723  17.513  0.00  0.00    +0.000 A 
ATOM     18  C   UNL     1       3.646  15.478  17.535  0.00  0.00    +0.000 A 
ATOM     19  C   UNL     1       3.010  14.365  18.105  0.00  0.00    +0.000 A 
ATOM     20  C   UNL     1       1.734  14.481  18.703  0.00  0.00    +0.000 A 
ATOM     21  C   UNL     1       1.138  15.772  18.692  0.00  0.00    +0.000 A 
BRANCH  16  23
ATOM     22  C   UNL     1       0.667  18.564  16.559  0.00  0.00    +0.000 C 
ATOM     23  C   UNL     1       1.036  18.215  18.007  0.00  0.00    +0.000 C 
ENDBRANCH  16  23
ENDBRANCH   1  20
TORSDOF 3
ENDMDL
MODEL 7
REMARK VINA RESULT:      -6.8      5.136      7.584
REMARK  Name = 
REMARK  6 active torsions:
REMARK  status: ('A' for Active; 'I' for Inactive)
REMARK    1  A    between atoms: C_1  and  C_2
REMARK    2  A    between atoms: C_2  and  C_3
REMARK    3  A    between atoms: C_7  and  N_8
REMARK    4  A    between atoms: N_8  and  C_9
REMARK    5  A    between atoms: N_12  and  C_13
REMARK    6  A    between atoms: N_12  and  C_14
REMARK                            x       y       z     vdW  Elec       q    Type
REMARK                         _______ _______ _______ _____ _____    ______ ____
ROOT
ATOM      1  N   UNL     1       1.884   7.802  19.342  0.00  0.00    +0.000 N 
ATOM      2  C   UNL     1       1.635   7.397  20.730  0.00  0.00    +0.000 C 
ATOM      3  C   UNL     1       1.382   9.097  18.840  0.00  0.00    +0.000 C 
ATOM      4  N   UNL     1       1.459   9.379  17.582  0.00  0.00    +0.000 NA
ATOM      5  N   UNL     1       0.701  10.108  19.661  0.00  0.00    +0.000 N 
ATOM      6  C   UNL     1      -0.194   9.766  20.770  0.00  0.00    +0.000 C 
ATOM      7  H   UNL     1       1.850   8.784  16.850  0.00  0.00    +0.000 HD
ENDROOT
BRANCH   5   8
ATOM      8  C   UNL     1       0.759  11.525  19.298  0.00  0.00    +0.000 A 
ATOM      9  C   UNL     1       1.921  12.299  19.599  0.00  0.00    +0.000 A 
ATOM     10  C   UNL     1       2.018  13.649  19.272  0.00  0.00    +0.000 A 
ATOM     11 BR   UNL     1       3.603  14.626  19.716  0.00  0.00    +0.000 Br
ATOM     12  C   UNL     1       0.971  14.286  18.623  0.00  0.00    +0.000 A 
ATOM     13  C   UNL     1      -0.171  13.568  18.288  0.00  0.00    +0.000 A 
ATOM     14  C   UNL     1      -0.296  12.206  18.605  0.00  0.00    +0.000 A 
ATOM     15 BR   UNL     1      -1.902  11.385  17.934  0.00  0.00    +0.000 Br
ENDBRANCH   5   8
BRANCH   1  20
ATOM     16  C   UNL     1       4.877   6.537  17.364  0.00  0.00    +0.000 A 
ATOM     17  C   UNL     1       4.453   5.256  17.004  0.00  0.00    +0.000 A 
ATOM     18  C   UNL     1       3.209   4.785  17.424  0.00  0.00    +0.000 A 
ATOM     19  C   UNL     1       2.360   5.594  18.195  0.00  0.00    +0.000 A 
ATOM     20  C   UNL     1       2.754   6.891  18.596  0.00  0.00    +0.000 A 
ATOM     21  C   UNL     1       4.042   7.326  18.178  0.00  0.00    +0.000 A 
BRANCH  16  23
ATOM     22  C   UNL     1       7.364   6.574  17.726  0.00  0.00    +0.000 C 
ATOM     23  C   UNL     1       6.200   7.079  16.863  0.00  0.00    +0.000 C 
ENDBRANCH  16  23
ENDBRANCH   1  20
TORSDOF 3
ENDMDL
MODEL 8
REMARK VINA RESULT:      -6.8      1.557      3.015
REMARK  Name = 
REMARK  6 active torsions:
REMARK  status: ('A' for Active; 'I' for Inactive)
REMARK    1  A    between atoms: C_1  and  C_2
REMARK    2  A    between atoms: C_2  and  C_3
REMARK    3  A    between atoms: C_7  and  N_8
REMARK    4  A    between atoms: N_8  and  C_9
REMARK    5  A    between atoms: N_12  and  C_13
REMARK    6  A    between atoms: N_12  and  C_14
REMARK                            x       y       z     vdW  Elec       q    Type
REMARK                         _______ _______ _______ _____ _____    ______ ____
ROOT
ATOM      1  N   UNL     1       6.367   4.573  14.508  0.00  0.00    +0.000 N 
ATOM      2  C   UNL     1       7.545   5.441  14.410  0.00  0.00    +0.000 C 
ATOM      3  C   UNL     1       5.522   4.592  15.719  0.00  0.00    +0.000 C 
ATOM      4  N   UNL     1       4.586   3.716  15.871  0.00  0.00    +0.000 NA
ATOM      5  N   UNL     1       5.706   5.507  16.855  0.00  0.00    +0.000 N 
ATOM      6  C   UNL     1       7.023   5.958  17.312  0.00  0.00    +0.000 C 
ATOM      7  H   UNL     1       4.341   2.970  15.217  0.00  0.00    +0.000 HD
ENDROOT
BRANCH   5   8
ATOM      8  C   UNL     1       4.570   5.884  17.699  0.00  0.00    +0.000 A 
ATOM      9  C   UNL     1       3.844   7.085  17.433  0.00  0.00    +0.000 A 
ATOM     10  C   UNL     1       2.758   7.482  18.210  0.00  0.00    +0.000 A 
ATOM     11 BR   UNL     1       1.837   9.109  17.802  0.00  0.00    +0.000 Br
ATOM     12  C   UNL     1       2.341   6.699  19.276  0.00  0.00    +0.000 A 
ATOM     13  C   UNL     1       3.002   5.509  19.558  0.00  0.00    +0.000 A 
ATOM     14  C   UNL     1       4.099   5.085  18.792  0.00  0.00    +0.000 A 
ATOM     15 BR   UNL     1       4.777   3.351  19.280  0.00  0.00    +0.000 Br
ENDBRANCH   5   8
BRANCH   1  20
ATOM     16  C   UNL     1       4.401   3.197  11.556  0.00  0.00    +0.000 A 
ATOM     17  C   UNL     1       5.321   2.307  10.997  0.00  0.00    +0.000 A 
ATOM     18  C   UNL     1       6.592   2.171  11.555  0.00  0.00    +0.000 A 
ATOM     19  C   UNL     1       6.958   2.906  12.693  0.00  0.00    +0.000 A 
ATOM     20  C   UNL     1       6.064   3.829  13.283  0.00  0.00    +0.000 A 
ATOM     21  C   UNL     1       4.789   3.967  12.668  0.00  0.00    +0.000 A 
BRANCH  16  23
ATOM     22  C   UNL     1       3.005   4.027   9.638  0.00  0.00    +0.000 C 
ATOM     23  C   UNL     1       2.999   3.308  10.993  0.00  0.00    +0.000 C 
ENDBRANCH  16  23
ENDBRANCH   1  20
TORSDOF 3
ENDMDL
MODEL 9
REMARK VINA RESULT:      -6.8      5.317      7.680
REMARK  Name = 
REMARK  6 active torsions:
REMARK  status: ('A' for Active; 'I' for Inactive)
REMARK    1  A    between atoms: C_1  and  C_2
REMARK    2  A    between atoms: C_2  and  C_3
REMARK    3  A    between atoms: C_7  and  N_8
REMARK    4  A    between atoms: N_8  and  C_9
REMARK    5  A    between atoms: N_12  and  C_13
REMARK    6  A    between atoms: N_12  and  C_14
REMARK                            x       y       z     vdW  Elec       q    Type
REMARK                         _______ _______ _______ _____ _____    ______ ____
ROOT
ATOM      1  N   UNL     1       2.229   7.893  18.764  0.00  0.00    +0.000 N 
ATOM      2  C   UNL     1       3.059   8.172  17.587  0.00  0.00    +0.000 C 
ATOM      3  C   UNL     1       1.345   8.938  19.320  0.00  0.00    +0.000 C 
ATOM      4  N   UNL     1       0.741   8.745  20.445  0.00  0.00    +0.000 NA
ATOM      5  N   UNL     1       1.142  10.267  18.727  0.00  0.00    +0.000 N 
ATOM      6  C   UNL     1       2.203  11.005  18.037  0.00  0.00    +0.000 C 
ATOM      7  H   UNL     1       0.800   7.910  21.029  0.00  0.00    +0.000 HD
ENDROOT
BRANCH   5   8
ATOM      8  C   UNL     1      -0.108  10.997  18.946  0.00  0.00    +0.000 A 
ATOM      9  C   UNL     1      -1.308  10.583  18.291  0.00  0.00    +0.000 A 
ATOM     10  C   UNL     1      -2.518  11.248  18.470  0.00  0.00    +0.000 A 
ATOM     11 BR   UNL     1      -4.085  10.644  17.552  0.00  0.00    +0.000 Br
ATOM     12  C   UNL     1      -2.592  12.346  19.315  0.00  0.00    +0.000 A 
ATOM     13  C   UNL     1      -1.455  12.771  19.993  0.00  0.00    +0.000 A 
ATOM     14  C   UNL     1      -0.222  12.120  19.831  0.00  0.00    +0.000 A 
ATOM     15 BR   UNL     1       1.181  12.796  20.961  0.00  0.00    +0.000 Br
ENDBRANCH   5   8
BRANCH   1  20
ATOM     16  C   UNL     1       2.414   4.096  18.621  0.00  0.00    +0.000 A 
ATOM     17  C   UNL     1       2.203   3.755  19.958  0.00  0.00    +0.000 A 
ATOM     18  C   UNL     1       2.029   4.753  20.917  0.00  0.00    +0.000 A 
ATOM     19  C   UNL     1       2.044   6.108  20.552  0.00  0.00    +0.000 A 
ATOM     20  C   UNL     1       2.269   6.500  19.212  0.00  0.00    +0.000 A 
ATOM     21  C   UNL     1       2.475   5.457  18.267  0.00  0.00    +0.000 A 
BRANCH  16  23
ATOM     22  C   UNL     1       3.191   1.754  18.143  0.00  0.00    +0.000 C 
ATOM     23  C   UNL     1       2.543   3.019  17.563  0.00  0.00    +0.000 C 
ENDBRANCH  16  23
ENDBRANCH   1  20
TORSDOF 3
ENDMDL
