MODEL 1
REMARK VINA RESULT:      -7.4      0.000      0.000
REMARK  Name = 
REMARK  7 active torsions:
REMARK  status: ('A' for Active; 'I' for Inactive)
REMARK    1  A    between atoms: C_1  and  C_2
REMARK    2  A    between atoms: C_2  and  C_3
REMARK    3  A    between atoms: C_2  and  N_4
REMARK    4  A    between atoms: C_8  and  C_9
REMARK    5  A    between atoms: N_11  and  C_12
REMARK    6  A    between atoms: C_12  and  C_13
REMARK    7  A    between atoms: C_12  and  C_14
REMARK                            x       y       z     vdW  Elec       q    Type
REMARK                         _______ _______ _______ _____ _____    ______ ____
ROOT
ATOM      1  C   UNL     1       5.054   4.555  18.395  0.00  0.00    +0.000 C 
ATOM      2  O   UNL     1       5.279   3.739  19.279  0.00  0.00    +0.000 OA
ATOM      3  N   UNL     1       4.082   5.531  18.510  0.00  0.00    +0.000 N 
ATOM      4  H   UNL     1       4.104   6.269  17.817  0.00  0.00    +0.000 HD
ENDROOT
BRANCH   1   9
ATOM      5  N   UNL     1       6.913   5.328  16.811  0.00  0.00    +0.000 N 
ATOM      6  C   UNL     1       7.294   5.032  15.513  0.00  0.00    +0.000 A 
ATOM      7  C   UNL     1       6.399   4.142  14.979  0.00  0.00    +0.000 A 
ATOM      8  C   UNL     1       5.450   3.870  15.984  0.00  0.00    +0.000 A 
ATOM      9  C   UNL     1       5.773   4.601  17.125  0.00  0.00    +0.000 A 
BRANCH   5  11
ATOM     10  C   UNL     1       7.023   7.745  17.472  0.00  0.00    +0.000 C 
ATOM     11  C   UNL     1       7.628   6.347  17.586  0.00  0.00    +0.000 C 
ATOM     12  C   UNL     1       7.931   5.941  19.027  0.00  0.00    +0.000 C 
ENDBRANCH   5  11
ENDBRANCH   1   9
BRANCH   3  13
ATOM     13  C   UNL     1       3.207   5.716  19.668  0.00  0.00    +0.000 C 
ATOM     14  C   UNL     1       2.386   7.004  19.541  0.00  0.00    +0.000 C 
BRANCH  13  15
ATOM     15  C   UNL     1       2.254   4.538  19.899  0.00  0.00    +0.000 A 
ATOM     16  C   UNL     1       2.116   3.947  21.167  0.00  0.00    +0.000 A 
ATOM     17  F   UNL     1       2.779   4.452  22.220  0.00  0.00    +0.000 F 
ATOM     18  C   UNL     1       1.309   2.834  21.396  0.00  0.00    +0.000 A 
ATOM     19  C   UNL     1       0.616   2.250  20.342  0.00  0.00    +0.000 A 
ATOM     20  C   UNL     1       0.739   2.794  19.068  0.00  0.00    +0.000 A 
ATOM     21  C   UNL     1       1.546   3.924  18.847  0.00  0.00    +0.000 A 
ATOM     22 CL   UNL     1       1.640   4.495  17.216  0.00  0.00    +0.000 Cl
ENDBRANCH  13  15
ENDBRANCH   3  13
TORSDOF 4
ENDMDL
MODEL 2
REMARK VINA RESULT:      -7.3      2.138      5.878
REMARK  Name = 
REMARK  7 active torsions:
REMARK  status: ('A' for Active; 'I' for Inactive)
REMARK    1  A    between atoms: C_1  and  C_2
REMARK    2  A    between atoms: C_2  and  C_3
REMARK    3  A    between atoms: C_2  and  N_4
REMARK    4  A    between atoms: C_8  and  C_9
REMARK    5  A    between atoms: N_11  and  C_12
REMARK    6  A    between atoms: C_12  and  C_13
REMARK    7  A    between atoms: C_12  and  C_14
REMARK                            x       y       z     vdW  Elec       q    Type
REMARK                         _______ _______ _______ _____ _____    ______ ____
ROOT
ATOM      1  C   UNL     1       4.447   3.425  18.642  0.00  0.00    +0.000 C 
ATOM      2  O   UNL     1       5.333   3.130  19.434  0.00  0.00    +0.000 OA
ATOM      3  N   UNL     1       4.710   3.885  17.366  0.00  0.00    +0.000 N 
ATOM      4  H   UNL     1       3.923   3.916  16.729  0.00  0.00    +0.000 HD
ENDROOT
BRANCH   1   9
ATOM      5  N   UNL     1       2.152   4.350  19.309  0.00  0.00    +0.000 N 
ATOM      6  C   UNL     1       0.876   3.830  19.436  0.00  0.00    +0.000 A 
ATOM      7  C   UNL     1       0.915   2.485  19.179  0.00  0.00    +0.000 A 
ATOM      8  C   UNL     1       2.252   2.171  18.867  0.00  0.00    +0.000 A 
ATOM      9  C   UNL     1       3.021   3.331  18.940  0.00  0.00    +0.000 A 
BRANCH   5  11
ATOM     10  C   UNL     1       2.552   6.661  18.424  0.00  0.00    +0.000 C 
ATOM     11  C   UNL     1       2.427   5.751  19.643  0.00  0.00    +0.000 C 
ATOM     12  C   UNL     1       1.522   6.326  20.731  0.00  0.00    +0.000 C 
ENDBRANCH   5  11
ENDBRANCH   1   9
BRANCH   3  13
ATOM     13  C   UNL     1       6.046   4.083  16.800  0.00  0.00    +0.000 C 
ATOM     14  C   UNL     1       6.023   3.961  15.272  0.00  0.00    +0.000 C 
BRANCH  13  15
ATOM     15  C   UNL     1       6.669   5.430  17.183  0.00  0.00    +0.000 A 
ATOM     16  C   UNL     1       7.686   5.516  18.149  0.00  0.00    +0.000 A 
ATOM     17  F   UNL     1       8.175   4.399  18.713  0.00  0.00    +0.000 F 
ATOM     18  C   UNL     1       8.227   6.730  18.568  0.00  0.00    +0.000 A 
ATOM     19  C   UNL     1       7.747   7.923  18.040  0.00  0.00    +0.000 A 
ATOM     20  C   UNL     1       6.729   7.882  17.094  0.00  0.00    +0.000 A 
ATOM     21  C   UNL     1       6.196   6.653  16.668  0.00  0.00    +0.000 A 
ATOM     22 CL   UNL     1       4.917   6.731  15.505  0.00  0.00    +0.000 Cl
ENDBRANCH  13  15
ENDBRANCH   3  13
TORSDOF 4
ENDMDL
MODEL 3
REMARK VINA RESULT:      -7.1      2.317      6.031
REMARK  Name = 
REMARK  7 active torsions:
REMARK  status: ('A' for Active; 'I' for Inactive)
REMARK    1  A    between atoms: C_1  and  C_2
REMARK    2  A    between atoms: C_2  and  C_3
REMARK    3  A    between atoms: C_2  and  N_4
REMARK    4  A    between atoms: C_8  and  C_9
REMARK    5  A    between atoms: N_11  and  C_12
REMARK    6  A    between atoms: C_12  and  C_13
REMARK    7  A    between atoms: C_12  and  C_14
REMARK                            x       y       z     vdW  Elec       q    Type
REMARK                         _______ _______ _______ _____ _____    ______ ____
ROOT
ATOM      1  C   UNL     1       3.460   5.242  19.794  0.00  0.00    +0.000 C 
ATOM      2  O   UNL     1       3.082   6.401  19.685  0.00  0.00    +0.000 OA
ATOM      3  N   UNL     1       4.719   4.828  19.402  0.00  0.00    +0.000 N 
ATOM      4  H   UNL     1       5.003   3.906  19.708  0.00  0.00    +0.000 HD
ENDROOT
BRANCH   1   9
ATOM      5  N   UNL     1       2.003   3.139  19.657  0.00  0.00    +0.000 N 
ATOM      6  C   UNL     1       1.386   2.302  20.571  0.00  0.00    +0.000 A 
ATOM      7  C   UNL     1       1.598   2.789  21.834  0.00  0.00    +0.000 A 
ATOM      8  C   UNL     1       2.384   3.950  21.694  0.00  0.00    +0.000 A 
ATOM      9  C   UNL     1       2.642   4.165  20.342  0.00  0.00    +0.000 A 
BRANCH   5  11
ATOM     10  C   UNL     1       1.379   4.166  17.455  0.00  0.00    +0.000 C 
ATOM     11  C   UNL     1       1.840   2.924  18.215  0.00  0.00    +0.000 C 
ATOM     12  C   UNL     1       3.019   2.216  17.550  0.00  0.00    +0.000 C 
ENDBRANCH   5  11
ENDBRANCH   1   9
BRANCH   3  13
ATOM     13  C   UNL     1       5.746   5.692  18.815  0.00  0.00    +0.000 C 
ATOM     14  C   UNL     1       7.089   5.521  19.533  0.00  0.00    +0.000 C 
BRANCH  13  15
ATOM     15  C   UNL     1       5.948   5.453  17.316  0.00  0.00    +0.000 A 
ATOM     16  C   UNL     1       7.002   4.654  16.838  0.00  0.00    +0.000 A 
ATOM     17  F   UNL     1       7.818   4.030  17.703  0.00  0.00    +0.000 F 
ATOM     18  C   UNL     1       7.253   4.470  15.480  0.00  0.00    +0.000 A 
ATOM     19  C   UNL     1       6.459   5.108  14.534  0.00  0.00    +0.000 A 
ATOM     20  C   UNL     1       5.417   5.922  14.965  0.00  0.00    +0.000 A 
ATOM     21  C   UNL     1       5.162   6.093  16.337  0.00  0.00    +0.000 A 
ATOM     22 CL   UNL     1       3.854   7.148  16.751  0.00  0.00    +0.000 Cl
ENDBRANCH  13  15
ENDBRANCH   3  13
TORSDOF 4
ENDMDL
MODEL 4
REMARK VINA RESULT:      -7.1      1.733      1.895
REMARK  Name = 
REMARK  7 active torsions:
REMARK  status: ('A' for Active; 'I' for Inactive)
REMARK    1  A    between atoms: C_1  and  C_2
REMARK    2  A    between atoms: C_2  and  C_3
REMARK    3  A    between atoms: C_2  and  N_4
REMARK    4  A    between atoms: C_8  and  C_9
REMARK    5  A    between atoms: N_11  and  C_12
REMARK    6  A    between atoms: C_12  and  C_13
REMARK    7  A    between atoms: C_12  and  C_14
REMARK                            x       y       z     vdW  Elec       q    Type
REMARK                         _______ _______ _______ _____ _____    ______ ____
ROOT
ATOM      1  C   UNL     1       4.372   5.961  16.962  0.00  0.00    +0.000 C 
ATOM      2  O   UNL     1       4.148   7.127  17.262  0.00  0.00    +0.000 OA
ATOM      3  N   UNL     1       3.548   4.920  17.349  0.00  0.00    +0.000 N 
ATOM      4  H   UNL     1       3.708   4.030  16.895  0.00  0.00    +0.000 HD
ENDROOT
BRANCH   1   9
ATOM      5  N   UNL     1       6.862   5.551  16.521  0.00  0.00    +0.000 N 
ATOM      6  C   UNL     1       7.606   4.990  15.498  0.00  0.00    +0.000 A 
ATOM      7  C   UNL     1       6.762   4.627  14.481  0.00  0.00    +0.000 A 
ATOM      8  C   UNL     1       5.458   4.958  14.899  0.00  0.00    +0.000 A 
ATOM      9  C   UNL     1       5.519   5.527  16.170  0.00  0.00    +0.000 A 
BRANCH   5  11
ATOM     10  C   UNL     1       7.617   7.662  17.646  0.00  0.00    +0.000 C 
ATOM     11  C   UNL     1       7.522   6.138  17.692  0.00  0.00    +0.000 C 
ATOM     12  C   UNL     1       7.012   5.610  19.031  0.00  0.00    +0.000 C 
ENDBRANCH   5  11
ENDBRANCH   1   9
BRANCH   3  13
ATOM     13  C   UNL     1       2.333   5.062  18.152  0.00  0.00    +0.000 C 
ATOM     14  C   UNL     1       1.080   4.792  17.312  0.00  0.00    +0.000 C 
BRANCH  13  15
ATOM     15  C   UNL     1       2.314   4.149  19.383  0.00  0.00    +0.000 A 
ATOM     16  C   UNL     1       2.113   4.666  20.675  0.00  0.00    +0.000 A 
ATOM     17  F   UNL     1       1.872   5.977  20.844  0.00  0.00    +0.000 F 
ATOM     18  C   UNL     1       2.156   3.874  21.820  0.00  0.00    +0.000 A 
ATOM     19  C   UNL     1       2.427   2.514  21.714  0.00  0.00    +0.000 A 
ATOM     20  C   UNL     1       2.648   1.965  20.455  0.00  0.00    +0.000 A 
ATOM     21  C   UNL     1       2.591   2.770  19.303  0.00  0.00    +0.000 A 
ATOM     22 CL   UNL     1       2.908   1.979  17.797  0.00  0.00    +0.000 Cl
ENDBRANCH  13  15
ENDBRANCH   3  13
TORSDOF 4
ENDMDL
MODEL 5
REMARK VINA RESULT:      -7.1      3.312      6.089
REMARK  Name = 
REMARK  7 active torsions:
REMARK  status: ('A' for Active; 'I' for Inactive)
REMARK    1  A    between atoms: C_1  and  C_2
REMARK    2  A    between atoms: C_2  and  C_3
REMARK    3  A    between atoms: C_2  and  N_4
REMARK    4  A    between atoms: C_8  and  C_9
REMARK    5  A    between atoms: N_11  and  C_12
REMARK    6  A    between atoms: C_12  and  C_13
REMARK    7  A    between atoms: C_12  and  C_14
REMARK                            x       y       z     vdW  Elec       q    Type
REMARK                         _______ _______ _______ _____ _____    ______ ____
ROOT
ATOM      1  C   UNL     1       1.955   8.098  19.238  0.00  0.00    +0.000 C 
ATOM      2  O   UNL     1       2.126   8.457  18.080  0.00  0.00    +0.000 OA
ATOM      3  N   UNL     1       2.429   6.893  19.723  0.00  0.00    +0.000 N 
ATOM      4  H   UNL     1       2.407   6.775  20.728  0.00  0.00    +0.000 HD
ENDROOT
BRANCH   1   9
ATOM      5  N   UNL     1       0.382   9.955  20.036  0.00  0.00    +0.000 N 
ATOM      6  C   UNL     1      -0.124  10.366  21.257  0.00  0.00    +0.000 A 
ATOM      7  C   UNL     1       0.417   9.589  22.248  0.00  0.00    +0.000 A 
ATOM      8  C   UNL     1       1.267   8.661  21.615  0.00  0.00    +0.000 A 
ATOM      9  C   UNL     1       1.241   8.883  20.240  0.00  0.00    +0.000 A 
BRANCH   5  11
ATOM     10  C   UNL     1      -1.288  10.315  18.200  0.00  0.00    +0.000 C 
ATOM     11  C   UNL     1       0.062  10.690  18.808  0.00  0.00    +0.000 C 
ATOM     12  C   UNL     1       0.277  12.199  18.906  0.00  0.00    +0.000 C 
ENDBRANCH   5  11
ENDBRANCH   1   9
BRANCH   3  13
ATOM     13  C   UNL     1       3.174   5.904  18.941  0.00  0.00    +0.000 C 
ATOM     14  C   UNL     1       4.574   5.682  19.523  0.00  0.00    +0.000 C 
BRANCH  13  15
ATOM     15  C   UNL     1       2.457   4.554  18.837  0.00  0.00    +0.000 A 
ATOM     16  C   UNL     1       1.480   4.170  19.772  0.00  0.00    +0.000 A 
ATOM     17  F   UNL     1       1.113   5.018  20.747  0.00  0.00    +0.000 F 
ATOM     18  C   UNL     1       0.858   2.924  19.744  0.00  0.00    +0.000 A 
ATOM     19  C   UNL     1       1.212   1.992  18.774  0.00  0.00    +0.000 A 
ATOM     20  C   UNL     1       2.187   2.327  17.840  0.00  0.00    +0.000 A 
ATOM     21  C   UNL     1       2.802   3.591  17.868  0.00  0.00    +0.000 A 
ATOM     22 CL   UNL     1       4.017   3.881  16.671  0.00  0.00    +0.000 Cl
ENDBRANCH  13  15
ENDBRANCH   3  13
TORSDOF 4
ENDMDL
MODEL 6
REMARK VINA RESULT:      -7.0      2.023      2.309
REMARK  Name = 
REMARK  7 active torsions:
REMARK  status: ('A' for Active; 'I' for Inactive)
REMARK    1  A    between atoms: C_1  and  C_2
REMARK    2  A    between atoms: C_2  and  C_3
REMARK    3  A    between atoms: C_2  and  N_4
REMARK    4  A    between atoms: C_8  and  C_9
REMARK    5  A    between atoms: N_11  and  C_12
REMARK    6  A    between atoms: C_12  and  C_13
REMARK    7  A    between atoms: C_12  and  C_14
REMARK                            x       y       z     vdW  Elec       q    Type
REMARK                         _______ _______ _______ _____ _____    ______ ____
ROOT
ATOM      1  C   UNL     1       4.381   5.853  17.011  0.00  0.00    +0.000 C 
ATOM      2  O   UNL     1       4.215   6.967  17.491  0.00  0.00    +0.000 OA
ATOM      3  N   UNL     1       3.495   4.813  17.217  0.00  0.00    +0.000 N 
ATOM      4  H   UNL     1       3.615   3.998  16.628  0.00  0.00    +0.000 HD
ENDROOT
BRANCH   1   9
ATOM      5  N   UNL     1       6.871   5.566  16.480  0.00  0.00    +0.000 N 
ATOM      6  C   UNL     1       7.604   5.058  15.422  0.00  0.00    +0.000 A 
ATOM      7  C   UNL     1       6.743   4.676  14.426  0.00  0.00    +0.000 A 
ATOM      8  C   UNL     1       5.441   4.940  14.894  0.00  0.00    +0.000 A 
ATOM      9  C   UNL     1       5.519   5.487  16.173  0.00  0.00    +0.000 A 
BRANCH   5  11
ATOM     10  C   UNL     1       7.622   7.684  17.592  0.00  0.00    +0.000 C 
ATOM     11  C   UNL     1       7.543   6.160  17.640  0.00  0.00    +0.000 C 
ATOM     12  C   UNL     1       7.060   5.627  18.987  0.00  0.00    +0.000 C 
ENDBRANCH   5  11
ENDBRANCH   1   9
BRANCH   3  13
ATOM     13  C   UNL     1       2.272   4.893  18.018  0.00  0.00    +0.000 C 
ATOM     14  C   UNL     1       1.060   4.384  17.230  0.00  0.00    +0.000 C 
BRANCH  13  15
ATOM     15  C   UNL     1       2.366   4.123  19.340  0.00  0.00    +0.000 A 
ATOM     16  C   UNL     1       2.653   2.747  19.366  0.00  0.00    +0.000 A 
ATOM     17  F   UNL     1       2.912   2.092  18.222  0.00  0.00    +0.000 F 
ATOM     18  C   UNL     1       2.680   2.005  20.545  0.00  0.00    +0.000 A 
ATOM     19  C   UNL     1       2.396   2.619  21.759  0.00  0.00    +0.000 A 
ATOM     20  C   UNL     1       2.091   3.976  21.775  0.00  0.00    +0.000 A 
ATOM     21  C   UNL     1       2.077   4.720  20.582  0.00  0.00    +0.000 A 
ATOM     22 CL   UNL     1       1.659   6.394  20.726  0.00  0.00    +0.000 Cl
ENDBRANCH  13  15
ENDBRANCH   3  13
TORSDOF 4
ENDMDL
MODEL 7
REMARK VINA RESULT:      -7.0      1.843      2.580
REMARK  Name = 
REMARK  7 active torsions:
REMARK  status: ('A' for Active; 'I' for Inactive)
REMARK    1  A    between atoms: C_1  and  C_2
REMARK    2  A    between atoms: C_2  and  C_3
REMARK    3  A    between atoms: C_2  and  N_4
REMARK    4  A    between atoms: C_8  and  C_9
REMARK    5  A    between atoms: N_11  and  C_12
REMARK    6  A    between atoms: C_12  and  C_13
REMARK    7  A    between atoms: C_12  and  C_14
REMARK                            x       y       z     vdW  Elec       q    Type
REMARK                         _______ _______ _______ _____ _____    ______ ____
ROOT
ATOM      1  C   UNL     1       4.400   3.808  16.724  0.00  0.00    +0.000 C 
ATOM      2  O   UNL     1       3.215   3.965  16.462  0.00  0.00    +0.000 OA
ATOM      3  N   UNL     1       4.832   3.183  17.879  0.00  0.00    +0.000 N 
ATOM      4  H   UNL     1       5.812   2.931  17.913  0.00  0.00    +0.000 HD
ENDROOT
BRANCH   1   9
ATOM      5  N   UNL     1       6.590   5.033  16.207  0.00  0.00    +0.000 N 
ATOM      6  C   UNL     1       7.411   5.166  15.101  0.00  0.00    +0.000 A 
ATOM      7  C   UNL     1       6.845   4.503  14.044  0.00  0.00    +0.000 A 
ATOM      8  C   UNL     1       5.649   3.931  14.519  0.00  0.00    +0.000 A 
ATOM      9  C   UNL     1       5.493   4.253  15.865  0.00  0.00    +0.000 A 
BRANCH   5  11
ATOM     10  C   UNL     1       7.800   4.963  18.403  0.00  0.00    +0.000 C 
ATOM     11  C   UNL     1       6.892   5.744  17.454  0.00  0.00    +0.000 C 
ATOM     12  C   UNL     1       7.334   7.193  17.260  0.00  0.00    +0.000 C 
ENDBRANCH   5  11
ENDBRANCH   1   9
BRANCH   3  13
ATOM     13  C   UNL     1       3.958   2.643  18.922  0.00  0.00    +0.000 C 
ATOM     14  C   UNL     1       4.774   2.051  20.076  0.00  0.00    +0.000 C 
BRANCH  13  15
ATOM     15  C   UNL     1       2.979   3.678  19.484  0.00  0.00    +0.000 A 
ATOM     16  C   UNL     1       3.421   4.934  19.936  0.00  0.00    +0.000 A 
ATOM     17  F   UNL     1       4.716   5.271  19.822  0.00  0.00    +0.000 F 
ATOM     18  C   UNL     1       2.567   5.872  20.513  0.00  0.00    +0.000 A 
ATOM     19  C   UNL     1       1.220   5.574  20.681  0.00  0.00    +0.000 A 
ATOM     20  C   UNL     1       0.745   4.335  20.263  0.00  0.00    +0.000 A 
ATOM     21  C   UNL     1       1.610   3.399  19.671  0.00  0.00    +0.000 A 
ATOM     22 CL   UNL     1       0.908   1.884  19.216  0.00  0.00    +0.000 Cl
ENDBRANCH  13  15
ENDBRANCH   3  13
TORSDOF 4
ENDMDL
MODEL 8
REMARK VINA RESULT:      -6.9      2.963      4.979
REMARK  Name = 
REMARK  7 active torsions:
REMARK  status: ('A' for Active; 'I' for Inactive)
REMARK    1  A    between atoms: C_1  and  C_2
REMARK    2  A    between atoms: C_2  and  C_3
REMARK    3  A    between atoms: C_2  and  N_4
REMARK    4  A    between atoms: C_8  and  C_9
REMARK    5  A    between atoms: N_11  and  C_12
REMARK    6  A    between atoms: C_12  and  C_13
REMARK    7  A    between atoms: C_12  and  C_14
REMARK                            x       y       z     vdW  Elec       q    Type
REMARK                         _______ _______ _______ _____ _____    ______ ____
ROOT
ATOM      1  C   UNL     1       6.397   4.096  15.171  0.00  0.00    +0.000 C 
ATOM      2  O   UNL     1       5.648   3.143  15.348  0.00  0.00    +0.000 OA
ATOM      3  N   UNL     1       6.824   4.912  16.201  0.00  0.00    +0.000 N 
ATOM      4  H   UNL     1       7.584   5.545  15.987  0.00  0.00    +0.000 HD
ENDROOT
BRANCH   1   9
ATOM      5  N   UNL     1       6.562   4.007  12.615  0.00  0.00    +0.000 N 
ATOM      6  C   UNL     1       7.271   4.695  11.646  0.00  0.00    +0.000 A 
ATOM      7  C   UNL     1       8.105   5.595  12.258  0.00  0.00    +0.000 A 
ATOM      8  C   UNL     1       7.889   5.468  13.644  0.00  0.00    +0.000 A 
ATOM      9  C   UNL     1       6.925   4.487  13.867  0.00  0.00    +0.000 A 
BRANCH   5  11
ATOM     10  C   UNL     1       4.355   3.342  11.628  0.00  0.00    +0.000 C 
ATOM     11  C   UNL     1       5.677   2.896  12.249  0.00  0.00    +0.000 C 
ATOM     12  C   UNL     1       6.363   1.781  11.463  0.00  0.00    +0.000 C 
ENDBRANCH   5  11
ENDBRANCH   1   9
BRANCH   3  13
ATOM     13  C   UNL     1       6.448   4.759  17.608  0.00  0.00    +0.000 C 
ATOM     14  C   UNL     1       7.476   5.422  18.530  0.00  0.00    +0.000 C 
BRANCH  13  15
ATOM     15  C   UNL     1       5.058   5.320  17.925  0.00  0.00    +0.000 A 
ATOM     16  C   UNL     1       4.662   6.591  17.473  0.00  0.00    +0.000 A 
ATOM     17  F   UNL     1       5.484   7.314  16.695  0.00  0.00    +0.000 F 
ATOM     18  C   UNL     1       3.432   7.158  17.799  0.00  0.00    +0.000 A 
ATOM     19  C   UNL     1       2.546   6.471  18.621  0.00  0.00    +0.000 A 
ATOM     20  C   UNL     1       2.907   5.217  19.104  0.00  0.00    +0.000 A 
ATOM     21  C   UNL     1       4.145   4.647  18.761  0.00  0.00    +0.000 A 
ATOM     22 CL   UNL     1       4.492   3.094  19.443  0.00  0.00    +0.000 Cl
ENDBRANCH  13  15
ENDBRANCH   3  13
TORSDOF 4
ENDMDL
MODEL 9
REMARK VINA RESULT:      -6.7      2.502      6.192
REMARK  Name = 
REMARK  7 active torsions:
REMARK  status: ('A' for Active; 'I' for Inactive)
REMARK    1  A    between atoms: C_1  and  C_2
REMARK    2  A    between atoms: C_2  and  C_3
REMARK    3  A    between atoms: C_2  and  N_4
REMARK    4  A    between atoms: C_8  and  C_9
REMARK    5  A    between atoms: N_11  and  C_12
REMARK    6  A    between atoms: C_12  and  C_13
REMARK    7  A    between atoms: C_12  and  C_14
REMARK                            x       y       z     vdW  Elec       q    Type
REMARK                         _______ _______ _______ _____ _____    ______ ____
ROOT
ATOM      1  C   UNL     1       4.444   3.606  19.185  0.00  0.00    +0.000 C 
ATOM      2  O   UNL     1       5.305   3.112  19.901  0.00  0.00    +0.000 OA
ATOM      3  N   UNL     1       4.738   4.246  17.996  0.00  0.00    +0.000 N 
ATOM      4  H   UNL     1       3.954   4.447  17.389  0.00  0.00    +0.000 HD
ENDROOT
BRANCH   1   9
ATOM      5  N   UNL     1       2.161   4.660  19.679  0.00  0.00    +0.000 N 
ATOM      6  C   UNL     1       0.878   4.187  19.889  0.00  0.00    +0.000 A 
ATOM      7  C   UNL     1       0.899   2.817  19.863  0.00  0.00    +0.000 A 
ATOM      8  C   UNL     1       2.232   2.437  19.613  0.00  0.00    +0.000 A 
ATOM      9  C   UNL     1       3.017   3.582  19.491  0.00  0.00    +0.000 A 
BRANCH   5  11
ATOM     10  C   UNL     1       2.583   6.785  18.416  0.00  0.00    +0.000 C 
ATOM     11  C   UNL     1       2.455   6.094  19.772  0.00  0.00    +0.000 C 
ATOM     12  C   UNL     1       1.563   6.855  20.751  0.00  0.00    +0.000 C 
ENDBRANCH   5  11
ENDBRANCH   1   9
BRANCH   3  13
ATOM     13  C   UNL     1       6.083   4.423  17.445  0.00  0.00    +0.000 C 
ATOM     14  C   UNL     1       6.125   4.051  15.959  0.00  0.00    +0.000 C 
BRANCH  13  15
ATOM     15  C   UNL     1       6.622   5.847  17.618  0.00  0.00    +0.000 A 
ATOM     16  C   UNL     1       6.120   6.917  16.856  0.00  0.00    +0.000 A 
ATOM     17  F   UNL     1       5.105   6.714  15.999  0.00  0.00    +0.000 F 
ATOM     18  C   UNL     1       6.633   8.209  16.941  0.00  0.00    +0.000 A 
ATOM     19  C   UNL     1       7.700   8.479  17.791  0.00  0.00    +0.000 A 
ATOM     20  C   UNL     1       8.237   7.444  18.549  0.00  0.00    +0.000 A 
ATOM     21  C   UNL     1       7.706   6.145  18.467  0.00  0.00    +0.000 A 
ATOM     22 CL   UNL     1       8.474   4.938  19.440  0.00  0.00    +0.000 Cl
ENDBRANCH  13  15
ENDBRANCH   3  13
TORSDOF 4
ENDMDL
