MODEL 1
REMARK VINA RESULT:      -7.1      0.000      0.000
REMARK  Name = 
REMARK  3 active torsions:
REMARK  status: ('A' for Active; 'I' for Inactive)
REMARK    1  A    between atoms: C_1  and  C_2
REMARK    2  A    between atoms: C_8  and  N_9
REMARK    3  A    between atoms: C_12  and  C_13
REMARK                            x       y       z     vdW  Elec       q    Type
REMARK                         _______ _______ _______ _____ _____    ______ ____
ROOT
ATOM      1  C   UNL     1       1.874   2.425  21.598  0.00  0.00    +0.000 C 
ATOM      2  C   UNL     1       2.345   3.611  20.804  0.00  0.00    +0.000 A 
ATOM      3  N   UNL     1       1.779   4.791  21.145  0.00  0.00    +0.000 NA
ATOM      4  C   UNL     1       1.956   5.867  20.373  0.00  0.00    +0.000 A 
ATOM      5  N   UNL     1       1.378   6.998  20.770  0.00  0.00    +0.000 NA
ATOM      6  C   UNL     1       1.482   8.120  20.016  0.00  0.00    +0.000 A 
ATOM      7  C   UNL     1       2.151   8.151  18.786  0.00  0.00    +0.000 A 
ATOM      8  C   UNL     1       2.788   6.971  18.363  0.00  0.00    +0.000 A 
ATOM      9  C   UNL     1       2.738   5.814  19.208  0.00  0.00    +0.000 A 
ATOM     10  C   UNL     1       3.420   4.603  18.935  0.00  0.00    +0.000 A 
ATOM     11  C   UNL     1       3.268   3.490  19.759  0.00  0.00    +0.000 A 
ATOM     12  C   UNL     1       2.202   9.409  17.963  0.00  0.00    +0.000 C 
ATOM     13  C   UNL     1       1.180  10.465  18.377  0.00  0.00    +0.000 C 
ATOM     14  C   UNL     1       1.205  10.646  19.884  0.00  0.00    +0.000 C 
ATOM     15  C   UNL     1       0.790   9.345  20.568  0.00  0.00    +0.000 C 
ENDROOT
BRANCH   8  16
ATOM     16  N   UNL     1       3.647   6.998  17.252  0.00  0.00    +0.000 N 
ATOM     17  H   UNL     1       3.844   6.088  16.851  0.00  0.00    +0.000 HD
ATOM     18  H   UNL     1       4.504   7.498  17.418  0.00  0.00    +0.000 HD
ENDBRANCH   8  16
BRANCH  11  19
ATOM     19  C   UNL     1       4.117   2.276  19.585  0.00  0.00    +0.000 C 
ATOM     20  O   UNL     1       5.102   2.083  20.364  0.00  0.00    +0.000 OA
ATOM     21  O   UNL     1       3.673   1.497  18.662  0.00  0.00    +0.000 OA
ENDBRANCH  11  19
TORSDOF 2
ENDMDL
MODEL 2
REMARK VINA RESULT:      -7.0      3.447      5.978
REMARK  Name = 
REMARK  3 active torsions:
REMARK  status: ('A' for Active; 'I' for Inactive)
REMARK    1  A    between atoms: C_1  and  C_2
REMARK    2  A    between atoms: C_8  and  N_9
REMARK    3  A    between atoms: C_12  and  C_13
REMARK                            x       y       z     vdW  Elec       q    Type
REMARK                         _______ _______ _______ _____ _____    ______ ____
ROOT
ATOM      1  C   UNL     1       0.016  10.571  19.519  0.00  0.00    +0.000 C 
ATOM      2  C   UNL     1       0.938   9.397  19.687  0.00  0.00    +0.000 A 
ATOM      3  N   UNL     1       1.760   9.159  18.639  0.00  0.00    +0.000 NA
ATOM      4  C   UNL     1       2.464   8.025  18.583  0.00  0.00    +0.000 A 
ATOM      5  N   UNL     1       3.259   7.858  17.529  0.00  0.00    +0.000 NA
ATOM      6  C   UNL     1       3.973   6.714  17.387  0.00  0.00    +0.000 A 
ATOM      7  C   UNL     1       3.892   5.648  18.292  0.00  0.00    +0.000 A 
ATOM      8  C   UNL     1       3.076   5.819  19.424  0.00  0.00    +0.000 A 
ATOM      9  C   UNL     1       2.388   7.063  19.604  0.00  0.00    +0.000 A 
ATOM     10  C   UNL     1       1.618   7.385  20.747  0.00  0.00    +0.000 A 
ATOM     11  C   UNL     1       0.913   8.584  20.825  0.00  0.00    +0.000 A 
ATOM     12  C   UNL     1       4.670   4.380  18.069  0.00  0.00    +0.000 C 
ATOM     13  C   UNL     1       5.205   4.221  16.647  0.00  0.00    +0.000 C 
ATOM     14  C   UNL     1       5.873   5.509  16.198  0.00  0.00    +0.000 C 
ATOM     15  C   UNL     1       4.844   6.637  16.155  0.00  0.00    +0.000 C 
ENDROOT
BRANCH   8  16
ATOM     16  N   UNL     1       3.119   4.879  20.467  0.00  0.00    +0.000 N 
ATOM     17  H   UNL     1       3.975   4.891  21.010  0.00  0.00    +0.000 HD
ATOM     18  H   UNL     1       2.908   3.940  20.171  0.00  0.00    +0.000 HD
ENDBRANCH   8  16
BRANCH  11  19
ATOM     19  C   UNL     1       0.250   9.012  22.092  0.00  0.00    +0.000 C 
ATOM     20  O   UNL     1       0.788   9.913  22.808  0.00  0.00    +0.000 OA
ATOM     21  O   UNL     1      -0.885   8.432  22.269  0.00  0.00    +0.000 OA
ENDBRANCH  11  19
TORSDOF 2
ENDMDL
MODEL 3
REMARK VINA RESULT:      -6.9      3.778      5.753
REMARK  Name = 
REMARK  3 active torsions:
REMARK  status: ('A' for Active; 'I' for Inactive)
REMARK    1  A    between atoms: C_1  and  C_2
REMARK    2  A    between atoms: C_8  and  N_9
REMARK    3  A    between atoms: C_12  and  C_13
REMARK                            x       y       z     vdW  Elec       q    Type
REMARK                         _______ _______ _______ _____ _____    ______ ____
ROOT
ATOM      1  C   UNL     1       7.421   7.115  16.647  0.00  0.00    +0.000 C 
ATOM      2  C   UNL     1       6.382   6.043  16.818  0.00  0.00    +0.000 A 
ATOM      3  N   UNL     1       5.545   6.218  17.866  0.00  0.00    +0.000 NA
ATOM      4  C   UNL     1       4.729   5.229  18.244  0.00  0.00    +0.000 A 
ATOM      5  N   UNL     1       3.926   5.470  19.277  0.00  0.00    +0.000 NA
ATOM      6  C   UNL     1       3.100   4.500  19.741  0.00  0.00    +0.000 A 
ATOM      7  C   UNL     1       3.067   3.207  19.203  0.00  0.00    +0.000 A 
ATOM      8  C   UNL     1       3.892   2.944  18.095  0.00  0.00    +0.000 A 
ATOM      9  C   UNL     1       4.702   4.000  17.565  0.00  0.00    +0.000 A 
ATOM     10  C   UNL     1       5.496   3.882  16.399  0.00  0.00    +0.000 A 
ATOM     11  C   UNL     1       6.320   4.924  15.980  0.00  0.00    +0.000 A 
ATOM     12  C   UNL     1       2.164   2.150  19.779  0.00  0.00    +0.000 C 
ATOM     13  C   UNL     1       1.623   2.485  21.167  0.00  0.00    +0.000 C 
ATOM     14  C   UNL     1       1.092   3.907  21.187  0.00  0.00    +0.000 C 
ATOM     15  C   UNL     1       2.231   4.887  20.914  0.00  0.00    +0.000 C 
ENDROOT
BRANCH   8  16
ATOM     16  N   UNL     1       3.747   1.740  17.385  0.00  0.00    +0.000 N 
ATOM     17  H   UNL     1       2.928   1.198  17.637  0.00  0.00    +0.000 HD
ATOM     18  H   UNL     1       4.569   1.160  17.408  0.00  0.00    +0.000 HD
ENDBRANCH   8  16
BRANCH  11  19
ATOM     19  C   UNL     1       7.017   4.879  14.661  0.00  0.00    +0.000 C 
ATOM     20  O   UNL     1       8.002   5.652  14.446  0.00  0.00    +0.000 OA
ATOM     21  O   UNL     1       6.550   3.958  13.894  0.00  0.00    +0.000 OA
ENDBRANCH  11  19
TORSDOF 2
ENDMDL
MODEL 4
REMARK VINA RESULT:      -6.8      2.507      3.484
REMARK  Name = 
REMARK  3 active torsions:
REMARK  status: ('A' for Active; 'I' for Inactive)
REMARK    1  A    between atoms: C_1  and  C_2
REMARK    2  A    between atoms: C_8  and  N_9
REMARK    3  A    between atoms: C_12  and  C_13
REMARK                            x       y       z     vdW  Elec       q    Type
REMARK                         _______ _______ _______ _____ _____    ______ ____
ROOT
ATOM      1  C   UNL     1       4.185   4.254  18.546  0.00  0.00    +0.000 C 
ATOM      2  C   UNL     1       3.738   5.688  18.558  0.00  0.00    +0.000 A 
ATOM      3  N   UNL     1       2.978   6.044  19.619  0.00  0.00    +0.000 NA
ATOM      4  C   UNL     1       2.348   7.222  19.627  0.00  0.00    +0.000 A 
ATOM      5  N   UNL     1       1.623   7.513  20.704  0.00  0.00    +0.000 NA
ATOM      6  C   UNL     1       0.925   8.674  20.765  0.00  0.00    +0.000 A 
ATOM      7  C   UNL     1       0.889   9.597  19.713  0.00  0.00    +0.000 A 
ATOM      8  C   UNL     1       1.669   9.316  18.576  0.00  0.00    +0.000 A 
ATOM      9  C   UNL     1       2.465   8.125  18.557  0.00  0.00    +0.000 A 
ATOM     10  C   UNL     1       3.360   7.786  17.513  0.00  0.00    +0.000 A 
ATOM     11  C   UNL     1       4.048   6.575  17.520  0.00  0.00    +0.000 A 
ATOM     12  C   UNL     1       0.064  10.851  19.809  0.00  0.00    +0.000 C 
ATOM     13  C   UNL     1      -0.978  10.825  20.924  0.00  0.00    +0.000 C 
ATOM     14  C   UNL     1      -0.344  10.336  22.214  0.00  0.00    +0.000 C 
ATOM     15  C   UNL     1       0.144   8.900  22.038  0.00  0.00    +0.000 C 
ENDROOT
BRANCH   8  16
ATOM     16  N   UNL     1       1.840  10.296  17.585  0.00  0.00    +0.000 N 
ATOM     17  H   UNL     1       2.761  10.720  17.567  0.00  0.00    +0.000 HD
ATOM     18  H   UNL     1       1.129  11.008  17.597  0.00  0.00    +0.000 HD
ENDBRANCH   8  16
BRANCH  11  19
ATOM     19  C   UNL     1       5.124   6.289  16.526  0.00  0.00    +0.000 C 
ATOM     20  O   UNL     1       4.917   5.439  15.605  0.00  0.00    +0.000 OA
ATOM     21  O   UNL     1       6.156   7.039  16.696  0.00  0.00    +0.000 OA
ENDBRANCH  11  19
TORSDOF 2
ENDMDL
MODEL 5
REMARK VINA RESULT:      -6.6      1.872      3.496
REMARK  Name = 
REMARK  3 active torsions:
REMARK  status: ('A' for Active; 'I' for Inactive)
REMARK    1  A    between atoms: C_1  and  C_2
REMARK    2  A    between atoms: C_8  and  N_9
REMARK    3  A    between atoms: C_12  and  C_13
REMARK                            x       y       z     vdW  Elec       q    Type
REMARK                         _______ _______ _______ _____ _____    ______ ____
ROOT
ATOM      1  C   UNL     1       5.555   6.083  16.236  0.00  0.00    +0.000 C 
ATOM      2  C   UNL     1       4.455   6.311  17.234  0.00  0.00    +0.000 A 
ATOM      3  N   UNL     1       3.710   7.420  17.023  0.00  0.00    +0.000 NA
ATOM      4  C   UNL     1       2.852   7.839  17.957  0.00  0.00    +0.000 A 
ATOM      5  N   UNL     1       2.145   8.932  17.682  0.00  0.00    +0.000 NA
ATOM      6  C   UNL     1       1.284   9.437  18.600  0.00  0.00    +0.000 A 
ATOM      7  C   UNL     1       1.117   8.882  19.874  0.00  0.00    +0.000 A 
ATOM      8  C   UNL     1       1.839   7.712  20.172  0.00  0.00    +0.000 A 
ATOM      9  C   UNL     1       2.685   7.143  19.166  0.00  0.00    +0.000 A 
ATOM     10  C   UNL     1       3.384   5.920  19.315  0.00  0.00    +0.000 A 
ATOM     11  C   UNL     1       4.251   5.461  18.326  0.00  0.00    +0.000 A 
ATOM     12  C   UNL     1       0.182   9.504  20.876  0.00  0.00    +0.000 C 
ATOM     13  C   UNL     1      -0.233  10.933  20.534  0.00  0.00    +0.000 C 
ATOM     14  C   UNL     1      -0.655  11.015  19.077  0.00  0.00    +0.000 C 
ATOM     15  C   UNL     1       0.531  10.677  18.177  0.00  0.00    +0.000 C 
ENDROOT
BRANCH   8  16
ATOM     16  N   UNL     1       1.556   6.994  21.346  0.00  0.00    +0.000 N 
ATOM     17  H   UNL     1       1.794   7.480  22.204  0.00  0.00    +0.000 HD
ATOM     18  H   UNL     1       1.945   6.066  21.353  0.00  0.00    +0.000 HD
ENDBRANCH   8  16
BRANCH  11  19
ATOM     19  C   UNL     1       4.847   4.095  18.393  0.00  0.00    +0.000 C 
ATOM     20  O   UNL     1       4.321   3.148  17.729  0.00  0.00    +0.000 OA
ATOM     21  O   UNL     1       5.924   4.066  19.096  0.00  0.00    +0.000 OA
ENDBRANCH  11  19
TORSDOF 2
ENDMDL
MODEL 6
REMARK VINA RESULT:      -6.6      1.166      2.921
REMARK  Name = 
REMARK  3 active torsions:
REMARK  status: ('A' for Active; 'I' for Inactive)
REMARK    1  A    between atoms: C_1  and  C_2
REMARK    2  A    between atoms: C_8  and  N_9
REMARK    3  A    between atoms: C_12  and  C_13
REMARK                            x       y       z     vdW  Elec       q    Type
REMARK                         _______ _______ _______ _____ _____    ______ ____
ROOT
ATOM      1  C   UNL     1       5.555   4.070  16.836  0.00  0.00    +0.000 C 
ATOM      2  C   UNL     1       4.459   4.673  17.668  0.00  0.00    +0.000 A 
ATOM      3  N   UNL     1       4.079   5.918  17.299  0.00  0.00    +0.000 NA
ATOM      4  C   UNL     1       3.274   6.635  18.089  0.00  0.00    +0.000 A 
ATOM      5  N   UNL     1       2.932   7.848  17.663  0.00  0.00    +0.000 NA
ATOM      6  C   UNL     1       2.149   8.646  18.430  0.00  0.00    +0.000 A 
ATOM      7  C   UNL     1       1.697   8.273  19.702  0.00  0.00    +0.000 A 
ATOM      8  C   UNL     1       2.029   6.985  20.157  0.00  0.00    +0.000 A 
ATOM      9  C   UNL     1       2.789   6.121  19.303  0.00  0.00    +0.000 A 
ATOM     10  C   UNL     1       3.101   4.775  19.612  0.00  0.00    +0.000 A 
ATOM     11  C   UNL     1       3.909   4.012  18.771  0.00  0.00    +0.000 A 
ATOM     12  C   UNL     1       0.868   9.211  20.536  0.00  0.00    +0.000 C 
ATOM     13  C   UNL     1       0.905  10.662  20.062  0.00  0.00    +0.000 C 
ATOM     14  C   UNL     1       0.685  10.723  18.561  0.00  0.00    +0.000 C 
ATOM     15  C   UNL     1       1.821   9.999  17.843  0.00  0.00    +0.000 C 
ENDROOT
BRANCH   8  16
ATOM     16  N   UNL     1       1.432   6.478  21.323  0.00  0.00    +0.000 N 
ATOM     17  H   UNL     1       0.439   6.665  21.402  0.00  0.00    +0.000 HD
ATOM     18  H   UNL     1       1.906   6.750  22.168  0.00  0.00    +0.000 HD
ENDBRANCH   8  16
BRANCH  11  19
ATOM     19  C   UNL     1       4.092   2.548  18.992  0.00  0.00    +0.000 C 
ATOM     20  O   UNL     1       3.540   1.720  18.201  0.00  0.00    +0.000 OA
ATOM     21  O   UNL     1       4.892   2.297  19.968  0.00  0.00    +0.000 OA
ENDBRANCH  11  19
TORSDOF 2
ENDMDL
MODEL 7
REMARK VINA RESULT:      -6.5      3.703      5.981
REMARK  Name = 
REMARK  3 active torsions:
REMARK  status: ('A' for Active; 'I' for Inactive)
REMARK    1  A    between atoms: C_1  and  C_2
REMARK    2  A    between atoms: C_8  and  N_9
REMARK    3  A    between atoms: C_12  and  C_13
REMARK                            x       y       z     vdW  Elec       q    Type
REMARK                         _______ _______ _______ _____ _____    ______ ____
ROOT
ATOM      1  C   UNL     1       7.542   5.271  15.492  0.00  0.00    +0.000 C 
ATOM      2  C   UNL     1       6.578   5.279  16.643  0.00  0.00    +0.000 A 
ATOM      3  N   UNL     1       5.726   4.230  16.685  0.00  0.00    +0.000 NA
ATOM      4  C   UNL     1       4.691   4.240  17.530  0.00  0.00    +0.000 A 
ATOM      5  N   UNL     1       3.896   3.173  17.526  0.00  0.00    +0.000 NA
ATOM      6  C   UNL     1       2.804   3.131  18.329  0.00  0.00    +0.000 A 
ATOM      7  C   UNL     1       2.430   4.193  19.161  0.00  0.00    +0.000 A 
ATOM      8  C   UNL     1       3.272   5.319  19.196  0.00  0.00    +0.000 A 
ATOM      9  C   UNL     1       4.465   5.318  18.402  0.00  0.00    +0.000 A 
ATOM     10  C   UNL     1       5.436   6.349  18.428  0.00  0.00    +0.000 A 
ATOM     11  C   UNL     1       6.537   6.322  17.575  0.00  0.00    +0.000 A 
ATOM     12  C   UNL     1       1.184   4.118  20.002  0.00  0.00    +0.000 C 
ATOM     13  C   UNL     1       0.217   3.013  19.583  0.00  0.00    +0.000 C 
ATOM     14  C   UNL     1       0.973   1.712  19.383  0.00  0.00    +0.000 C 
ATOM     15  C   UNL     1       1.979   1.868  18.244  0.00  0.00    +0.000 C 
ENDROOT
BRANCH   8  16
ATOM     16  N   UNL     1       3.066   6.318  20.161  0.00  0.00    +0.000 N 
ATOM     17  H   UNL     1       3.499   6.132  21.058  0.00  0.00    +0.000 HD
ATOM     18  H   UNL     1       2.098   6.563  20.285  0.00  0.00    +0.000 HD
ENDBRANCH   8  16
BRANCH  11  19
ATOM     19  C   UNL     1       7.653   7.302  17.720  0.00  0.00    +0.000 C 
ATOM     20  O   UNL     1       7.726   8.291  16.926  0.00  0.00    +0.000 OA
ATOM     21  O   UNL     1       8.399   7.046  18.736  0.00  0.00    +0.000 OA
ENDBRANCH  11  19
TORSDOF 2
ENDMDL
MODEL 8
REMARK VINA RESULT:      -6.4      1.997      2.767
REMARK  Name = 
REMARK  3 active torsions:
REMARK  status: ('A' for Active; 'I' for Inactive)
REMARK    1  A    between atoms: C_1  and  C_2
REMARK    2  A    between atoms: C_8  and  N_9
REMARK    3  A    between atoms: C_12  and  C_13
REMARK                            x       y       z     vdW  Elec       q    Type
REMARK                         _______ _______ _______ _____ _____    ______ ____
ROOT
ATOM      1  C   UNL     1       3.253   3.903  19.822  0.00  0.00    +0.000 C 
ATOM      2  C   UNL     1       3.017   5.361  19.550  0.00  0.00    +0.000 A 
ATOM      3  N   UNL     1       2.281   6.007  20.483  0.00  0.00    +0.000 NA
ATOM      4  C   UNL     1       1.827   7.240  20.243  0.00  0.00    +0.000 A 
ATOM      5  N   UNL     1       1.116   7.821  21.207  0.00  0.00    +0.000 NA
ATOM      6  C   UNL     1       0.590   9.056  21.018  0.00  0.00    +0.000 A 
ATOM      7  C   UNL     1       0.723   9.765  19.818  0.00  0.00    +0.000 A 
ATOM      8  C   UNL     1       1.492   9.176  18.798  0.00  0.00    +0.000 A 
ATOM      9  C   UNL     1       2.108   7.905  19.039  0.00  0.00    +0.000 A 
ATOM     10  C   UNL     1       2.980   7.261  18.127  0.00  0.00    +0.000 A 
ATOM     11  C   UNL     1       3.486   5.990  18.391  0.00  0.00    +0.000 A 
ATOM     12  C   UNL     1       0.084  11.115  19.639  0.00  0.00    +0.000 C 
ATOM     13  C   UNL     1      -0.988  11.437  20.677  0.00  0.00    +0.000 C 
ATOM     14  C   UNL     1      -0.475  11.115  22.069  0.00  0.00    +0.000 C 
ATOM     15  C   UNL     1      -0.193   9.618  22.181  0.00  0.00    +0.000 C 
ENDROOT
BRANCH   8  16
ATOM     16  N   UNL     1       1.836   9.923  17.659  0.00  0.00    +0.000 N 
ATOM     17  H   UNL     1       1.789  10.928  17.786  0.00  0.00    +0.000 HD
ATOM     18  H   UNL     1       1.329   9.652  16.833  0.00  0.00    +0.000 HD
ENDBRANCH   8  16
BRANCH  11  19
ATOM     19  C   UNL     1       4.543   5.383  17.530  0.00  0.00    +0.000 C 
ATOM     20  O   UNL     1       5.767   5.618  17.778  0.00  0.00    +0.000 OA
ATOM     21  O   UNL     1       4.053   4.594  16.640  0.00  0.00    +0.000 OA
ENDBRANCH  11  19
TORSDOF 2
ENDMDL
MODEL 9
REMARK VINA RESULT:      -6.4      1.826      2.556
REMARK  Name = 
REMARK  3 active torsions:
REMARK  status: ('A' for Active; 'I' for Inactive)
REMARK    1  A    between atoms: C_1  and  C_2
REMARK    2  A    between atoms: C_8  and  N_9
REMARK    3  A    between atoms: C_12  and  C_13
REMARK                            x       y       z     vdW  Elec       q    Type
REMARK                         _______ _______ _______ _____ _____    ______ ____
ROOT
ATOM      1  C   UNL     1       3.583   3.226  19.437  0.00  0.00    +0.000 C 
ATOM      2  C   UNL     1       3.369   4.701  19.246  0.00  0.00    +0.000 A 
ATOM      3  N   UNL     1       2.629   5.302  20.206  0.00  0.00    +0.000 NA
ATOM      4  C   UNL     1       2.194   6.553  20.032  0.00  0.00    +0.000 A 
ATOM      5  N   UNL     1       1.478   7.087  21.019  0.00  0.00    +0.000 NA
ATOM      6  C   UNL     1       0.971   8.338  20.895  0.00  0.00    +0.000 A 
ATOM      7  C   UNL     1       1.127   9.112  19.738  0.00  0.00    +0.000 A 
ATOM      8  C   UNL     1       1.901   8.572  18.695  0.00  0.00    +0.000 A 
ATOM      9  C   UNL     1       2.498   7.282  18.871  0.00  0.00    +0.000 A 
ATOM     10  C   UNL     1       3.373   6.679  17.934  0.00  0.00    +0.000 A 
ATOM     11  C   UNL     1       3.860   5.389  18.131  0.00  0.00    +0.000 A 
ATOM     12  C   UNL     1       0.507  10.478  19.629  0.00  0.00    +0.000 C 
ATOM     13  C   UNL     1      -0.574  10.755  20.672  0.00  0.00    +0.000 C 
ATOM     14  C   UNL     1      -0.082  10.347  22.049  0.00  0.00    +0.000 C 
ATOM     15  C   UNL     1       0.180   8.843  22.079  0.00  0.00    +0.000 C 
ENDROOT
BRANCH   8  16
ATOM     16  N   UNL     1       2.268   9.378  17.606  0.00  0.00    +0.000 N 
ATOM     17  H   UNL     1       2.061  10.364  17.723  0.00  0.00    +0.000 HD
ATOM     18  H   UNL     1       1.910   9.050  16.724  0.00  0.00    +0.000 HD
ENDBRANCH   8  16
BRANCH  11  19
ATOM     19  C   UNL     1       4.920   4.818  17.249  0.00  0.00    +0.000 C 
ATOM     20  O   UNL     1       4.590   4.243  16.164  0.00  0.00    +0.000 OA
ATOM     21  O   UNL     1       6.104   5.059  17.689  0.00  0.00    +0.000 OA
ENDBRANCH  11  19
TORSDOF 2
ENDMDL
