MODEL 1
REMARK VINA RESULT:      -6.9      0.000      0.000
REMARK  Name = 
REMARK  2 active torsions:
REMARK  status: ('A' for Active; 'I' for Inactive)
REMARK    1  A    between atoms: C_1  and  C_2
REMARK    2  A    between atoms: N_9  and  C_10
REMARK                            x       y       z     vdW  Elec       q    Type
REMARK                         _______ _______ _______ _____ _____    ______ ____
ROOT
ATOM      1  C   UNL     1       1.440   3.778  18.858  0.00  0.00    +0.000 C 
ATOM      2  C   UNL     1       2.534   4.026  19.908  0.00  0.00    +0.000 C 
ATOM      3  N   UNL     1       3.188   2.733  20.089  0.00  0.00    +0.000 NA
ATOM      4  C   UNL     1       4.424   2.637  19.758  0.00  0.00    +0.000 C 
ATOM      5  N   UNL     1       5.025   1.428  19.868  0.00  0.00    +0.000 N 
ATOM      6  N   UNL     1       5.208   3.659  19.346  0.00  0.00    +0.000 NA
ATOM      7  C   UNL     1       4.685   4.842  19.259  0.00  0.00    +0.000 C 
ATOM      8  N   UNL     1       5.545   5.845  18.934  0.00  0.00    +0.000 N 
ATOM      9  N   UNL     1       3.382   5.162  19.535  0.00  0.00    +0.000 N 
ATOM     10  H   UNL     1       4.544   0.814  20.512  0.00  0.00    +0.000 HD
ATOM     11  H   UNL     1       6.022   1.498  20.005  0.00  0.00    +0.000 HD
ATOM     12  H   UNL     1       6.506   5.519  18.958  0.00  0.00    +0.000 HD
ATOM     13  H   UNL     1       5.416   6.683  19.487  0.00  0.00    +0.000 HD
ENDROOT
BRANCH   9  14
ATOM     14  C   UNL     1       2.742   6.415  19.347  0.00  0.00    +0.000 A 
ATOM     15  C   UNL     1       2.094   7.083  20.403  0.00  0.00    +0.000 A 
ATOM     16  C   UNL     1       1.476   8.328  20.227  0.00  0.00    +0.000 A 
ATOM     17  C   UNL     1       1.519   8.947  18.985  0.00  0.00    +0.000 A 
ATOM     18 BR   UNL     1       0.726  10.646  18.749  0.00  0.00    +0.000 Br
ATOM     19  C   UNL     1       2.155   8.325  17.918  0.00  0.00    +0.000 A 
ATOM     20  C   UNL     1       2.745   7.068  18.096  0.00  0.00    +0.000 A 
ENDBRANCH   9  14
TORSDOF 1
ENDMDL
MODEL 2
REMARK VINA RESULT:      -6.9      0.140      1.208
REMARK  Name = 
REMARK  2 active torsions:
REMARK  status: ('A' for Active; 'I' for Inactive)
REMARK    1  A    between atoms: C_1  and  C_2
REMARK    2  A    between atoms: N_9  and  C_10
REMARK                            x       y       z     vdW  Elec       q    Type
REMARK                         _______ _______ _______ _____ _____    ______ ____
ROOT
ATOM      1  C   UNL     1       1.506   3.868  18.567  0.00  0.00    +0.000 C 
ATOM      2  C   UNL     1       2.510   4.037  19.718  0.00  0.00    +0.000 C 
ATOM      3  N   UNL     1       3.123   2.722  19.884  0.00  0.00    +0.000 NA
ATOM      4  C   UNL     1       4.380   2.616  19.654  0.00  0.00    +0.000 C 
ATOM      5  N   UNL     1       4.948   1.389  19.750  0.00  0.00    +0.000 N 
ATOM      6  N   UNL     1       5.215   3.640  19.366  0.00  0.00    +0.000 NA
ATOM      7  C   UNL     1       4.723   4.837  19.299  0.00  0.00    +0.000 C 
ATOM      8  N   UNL     1       5.626   5.836  19.102  0.00  0.00    +0.000 N 
ATOM      9  N   UNL     1       3.407   5.172  19.479  0.00  0.00    +0.000 N 
ATOM     10  H   UNL     1       4.403   0.754  20.317  0.00  0.00    +0.000 HD
ATOM     11  H   UNL     1       5.931   1.430  19.974  0.00  0.00    +0.000 HD
ATOM     12  H   UNL     1       6.575   5.488  19.189  0.00  0.00    +0.000 HD
ATOM     13  H   UNL     1       5.465   6.647  19.686  0.00  0.00    +0.000 HD
ENDROOT
BRANCH   9  14
ATOM     14  C   UNL     1       2.808   6.447  19.305  0.00  0.00    +0.000 A 
ATOM     15  C   UNL     1       2.863   7.130  18.076  0.00  0.00    +0.000 A 
ATOM     16  C   UNL     1       2.259   8.381  17.894  0.00  0.00    +0.000 A 
ATOM     17  C   UNL     1       1.558   8.965  18.940  0.00  0.00    +0.000 A 
ATOM     18 BR   UNL     1       0.703  10.631  18.690  0.00  0.00    +0.000 Br
ATOM     19  C   UNL     1       1.473   8.319  20.167  0.00  0.00    +0.000 A 
ATOM     20  C   UNL     1       2.104   7.083  20.349  0.00  0.00    +0.000 A 
ENDBRANCH   9  14
TORSDOF 1
ENDMDL
MODEL 3
REMARK VINA RESULT:      -6.8      3.285      4.631
REMARK  Name = 
REMARK  2 active torsions:
REMARK  status: ('A' for Active; 'I' for Inactive)
REMARK    1  A    between atoms: C_1  and  C_2
REMARK    2  A    between atoms: N_9  and  C_10
REMARK                            x       y       z     vdW  Elec       q    Type
REMARK                         _______ _______ _______ _____ _____    ______ ____
ROOT
ATOM      1  C   UNL     1       1.832   4.775  18.377  0.00  0.00    +0.000 C 
ATOM      2  C   UNL     1       2.827   4.697  19.545  0.00  0.00    +0.000 C 
ATOM      3  N   UNL     1       2.019   4.352  20.711  0.00  0.00    +0.000 NA
ATOM      4  C   UNL     1       2.246   3.226  21.283  0.00  0.00    +0.000 C 
ATOM      5  N   UNL     1       1.463   2.870  22.331  0.00  0.00    +0.000 N 
ATOM      6  N   UNL     1       3.240   2.368  20.961  0.00  0.00    +0.000 NA
ATOM      7  C   UNL     1       4.035   2.682  19.987  0.00  0.00    +0.000 C 
ATOM      8  N   UNL     1       5.073   1.828  19.773  0.00  0.00    +0.000 N 
ATOM      9  N   UNL     1       3.956   3.818  19.225  0.00  0.00    +0.000 N 
ATOM     10  H   UNL     1       1.014   3.665  22.765  0.00  0.00    +0.000 HD
ATOM     11  H   UNL     1       1.926   2.238  22.967  0.00  0.00    +0.000 HD
ATOM     12  H   UNL     1       5.140   1.147  20.522  0.00  0.00    +0.000 HD
ATOM     13  H   UNL     1       5.955   2.296  19.607  0.00  0.00    +0.000 HD
ENDROOT
BRANCH   9  14
ATOM     14  C   UNL     1       4.732   4.148  18.083  0.00  0.00    +0.000 A 
ATOM     15  C   UNL     1       5.866   4.978  18.172  0.00  0.00    +0.000 A 
ATOM     16  C   UNL     1       6.645   5.292  17.052  0.00  0.00    +0.000 A 
ATOM     17  C   UNL     1       6.319   4.756  15.814  0.00  0.00    +0.000 A 
ATOM     18 BR   UNL     1       7.390   5.139  14.306  0.00  0.00    +0.000 Br
ATOM     19  C   UNL     1       5.212   3.925  15.685  0.00  0.00    +0.000 A 
ATOM     20  C   UNL     1       4.423   3.639  16.804  0.00  0.00    +0.000 A 
ENDBRANCH   9  14
TORSDOF 1
ENDMDL
MODEL 4
REMARK VINA RESULT:      -6.8      3.256      4.778
REMARK  Name = 
REMARK  2 active torsions:
REMARK  status: ('A' for Active; 'I' for Inactive)
REMARK    1  A    between atoms: C_1  and  C_2
REMARK    2  A    between atoms: N_9  and  C_10
REMARK                            x       y       z     vdW  Elec       q    Type
REMARK                         _______ _______ _______ _____ _____    ______ ____
ROOT
ATOM      1  C   UNL     1       2.092   4.986  18.504  0.00  0.00    +0.000 C 
ATOM      2  C   UNL     1       3.091   4.737  19.645  0.00  0.00    +0.000 C 
ATOM      3  N   UNL     1       2.267   4.437  20.813  0.00  0.00    +0.000 NA
ATOM      4  C   UNL     1       2.366   3.267  21.329  0.00  0.00    +0.000 C 
ATOM      5  N   UNL     1       1.565   2.959  22.378  0.00  0.00    +0.000 N 
ATOM      6  N   UNL     1       3.245   2.312  20.947  0.00  0.00    +0.000 NA
ATOM      7  C   UNL     1       4.056   2.574  19.971  0.00  0.00    +0.000 C 
ATOM      8  N   UNL     1       4.979   1.613  19.696  0.00  0.00    +0.000 N 
ATOM      9  N   UNL     1       4.100   3.745  19.262  0.00  0.00    +0.000 N 
ATOM     10  H   UNL     1       1.222   3.781  22.857  0.00  0.00    +0.000 HD
ATOM     11  H   UNL     1       1.959   2.247  22.975  0.00  0.00    +0.000 HD
ATOM     12  H   UNL     1       4.977   0.895  20.413  0.00  0.00    +0.000 HD
ATOM     13  H   UNL     1       5.908   1.980  19.532  0.00  0.00    +0.000 HD
ENDROOT
BRANCH   9  14
ATOM     14  C   UNL     1       4.891   4.033  18.118  0.00  0.00    +0.000 A 
ATOM     15  C   UNL     1       4.463   3.704  16.818  0.00  0.00    +0.000 A 
ATOM     16  C   UNL     1       5.232   4.001  15.686  0.00  0.00    +0.000 A 
ATOM     17  C   UNL     1       6.442   4.665  15.831  0.00  0.00    +0.000 A 
ATOM     18 BR   UNL     1       7.464   5.109  14.306  0.00  0.00    +0.000 Br
ATOM     19  C   UNL     1       6.897   5.015  17.096  0.00  0.00    +0.000 A 
ATOM     20  C   UNL     1       6.136   4.688  18.225  0.00  0.00    +0.000 A 
ENDBRANCH   9  14
TORSDOF 1
ENDMDL
MODEL 5
REMARK VINA RESULT:      -6.3      1.219      2.539
REMARK  Name = 
REMARK  2 active torsions:
REMARK  status: ('A' for Active; 'I' for Inactive)
REMARK    1  A    between atoms: C_1  and  C_2
REMARK    2  A    between atoms: N_9  and  C_10
REMARK                            x       y       z     vdW  Elec       q    Type
REMARK                         _______ _______ _______ _____ _____    ______ ____
ROOT
ATOM      1  C   UNL     1       5.109   5.172  19.289  0.00  0.00    +0.000 C 
ATOM      2  C   UNL     1       3.988   4.563  18.432  0.00  0.00    +0.000 C 
ATOM      3  N   UNL     1       4.395   3.180  18.199  0.00  0.00    +0.000 NA
ATOM      4  C   UNL     1       3.655   2.251  18.683  0.00  0.00    +0.000 C 
ATOM      5  N   UNL     1       4.053   0.966  18.522  0.00  0.00    +0.000 N 
ATOM      6  N   UNL     1       2.470   2.436  19.308  0.00  0.00    +0.000 NA
ATOM      7  C   UNL     1       2.031   3.647  19.454  0.00  0.00    +0.000 C 
ATOM      8  N   UNL     1       0.791   3.764  20.003  0.00  0.00    +0.000 N 
ATOM      9  N   UNL     1       2.673   4.784  19.041  0.00  0.00    +0.000 N 
ATOM     10  H   UNL     1       4.702   0.855  17.754  0.00  0.00    +0.000 HD
ATOM     11  H   UNL     1       3.283   0.314  18.531  0.00  0.00    +0.000 HD
ATOM     12  H   UNL     1       0.342   2.857  20.074  0.00  0.00    +0.000 HD
ATOM     13  H   UNL     1       0.204   4.442  19.533  0.00  0.00    +0.000 HD
ENDROOT
BRANCH   9  14
ATOM     14  C   UNL     1       2.286   6.129  19.278  0.00  0.00    +0.000 A 
ATOM     15  C   UNL     1       2.287   7.093  18.253  0.00  0.00    +0.000 A 
ATOM     16  C   UNL     1       1.889   8.417  18.478  0.00  0.00    +0.000 A 
ATOM     17  C   UNL     1       1.451   8.799  19.738  0.00  0.00    +0.000 A 
ATOM     18 BR   UNL     1       0.870  10.572  20.039  0.00  0.00    +0.000 Br
ATOM     19  C   UNL     1       1.426   7.876  20.776  0.00  0.00    +0.000 A 
ATOM     20  C   UNL     1       1.853   6.563  20.549  0.00  0.00    +0.000 A 
ENDBRANCH   9  14
TORSDOF 1
ENDMDL
MODEL 6
REMARK VINA RESULT:      -6.2      0.847      2.356
REMARK  Name = 
REMARK  2 active torsions:
REMARK  status: ('A' for Active; 'I' for Inactive)
REMARK    1  A    between atoms: C_1  and  C_2
REMARK    2  A    between atoms: N_9  and  C_10
REMARK                            x       y       z     vdW  Elec       q    Type
REMARK                         _______ _______ _______ _____ _____    ______ ____
ROOT
ATOM      1  C   UNL     1       5.607   5.599  19.341  0.00  0.00    +0.000 C 
ATOM      2  C   UNL     1       4.511   4.649  18.834  0.00  0.00    +0.000 C 
ATOM      3  N   UNL     1       5.062   3.308  19.004  0.00  0.00    +0.000 NA
ATOM      4  C   UNL     1       4.470   2.519  19.825  0.00  0.00    +0.000 C 
ATOM      5  N   UNL     1       5.006   1.292  20.034  0.00  0.00    +0.000 N 
ATOM      6  N   UNL     1       3.316   2.787  20.477  0.00  0.00    +0.000 NA
ATOM      7  C   UNL     1       2.748   3.935  20.281  0.00  0.00    +0.000 C 
ATOM      8  N   UNL     1       1.542   4.109  20.888  0.00  0.00    +0.000 N 
ATOM      9  N   UNL     1       3.223   4.934  19.472  0.00  0.00    +0.000 N 
ATOM     10  H   UNL     1       5.611   1.000  19.278  0.00  0.00    +0.000 HD
ATOM     11  H   UNL     1       4.320   0.610  20.324  0.00  0.00    +0.000 HD
ATOM     12  H   UNL     1       1.208   3.236  21.283  0.00  0.00    +0.000 HD
ATOM     13  H   UNL     1       0.850   4.545  20.292  0.00  0.00    +0.000 HD
ENDROOT
BRANCH   9  14
ATOM     14  C   UNL     1       2.696   6.242  19.315  0.00  0.00    +0.000 A 
ATOM     15  C   UNL     1       2.668   6.886  18.064  0.00  0.00    +0.000 A 
ATOM     16  C   UNL     1       2.133   8.170  17.901  0.00  0.00    +0.000 A 
ATOM     17  C   UNL     1       1.585   8.831  18.992  0.00  0.00    +0.000 A 
ATOM     18 BR   UNL     1       0.822  10.545  18.772  0.00  0.00    +0.000 Br
ATOM     19  C   UNL     1       1.586   8.227  20.243  0.00  0.00    +0.000 A 
ATOM     20  C   UNL     1       2.148   6.956  20.403  0.00  0.00    +0.000 A 
ENDBRANCH   9  14
TORSDOF 1
ENDMDL
MODEL 7
REMARK VINA RESULT:      -6.2      1.215      2.245
REMARK  Name = 
REMARK  2 active torsions:
REMARK  status: ('A' for Active; 'I' for Inactive)
REMARK    1  A    between atoms: C_1  and  C_2
REMARK    2  A    between atoms: N_9  and  C_10
REMARK                            x       y       z     vdW  Elec       q    Type
REMARK                         _______ _______ _______ _____ _____    ______ ____
ROOT
ATOM      1  C   UNL     1       5.076   5.197  19.258  0.00  0.00    +0.000 C 
ATOM      2  C   UNL     1       3.960   4.553  18.421  0.00  0.00    +0.000 C 
ATOM      3  N   UNL     1       4.393   3.175  18.205  0.00  0.00    +0.000 NA
ATOM      4  C   UNL     1       3.676   2.238  18.710  0.00  0.00    +0.000 C 
ATOM      5  N   UNL     1       4.099   0.959  18.564  0.00  0.00    +0.000 N 
ATOM      6  N   UNL     1       2.494   2.408  19.344  0.00  0.00    +0.000 NA
ATOM      7  C   UNL     1       2.032   3.612  19.476  0.00  0.00    +0.000 C 
ATOM      8  N   UNL     1       0.795   3.712  20.035  0.00  0.00    +0.000 N 
ATOM      9  N   UNL     1       2.646   4.756  19.040  0.00  0.00    +0.000 N 
ATOM     10  H   UNL     1       4.743   0.850  17.792  0.00  0.00    +0.000 HD
ATOM     11  H   UNL     1       3.342   0.292  18.590  0.00  0.00    +0.000 HD
ATOM     12  H   UNL     1       0.364   2.798  20.124  0.00  0.00    +0.000 HD
ATOM     13  H   UNL     1       0.190   4.371  19.561  0.00  0.00    +0.000 HD
ENDROOT
BRANCH   9  14
ATOM     14  C   UNL     1       2.234   6.096  19.260  0.00  0.00    +0.000 A 
ATOM     15  C   UNL     1       1.837   6.551  20.533  0.00  0.00    +0.000 A 
ATOM     16  C   UNL     1       1.446   7.876  20.759  0.00  0.00    +0.000 A 
ATOM     17  C   UNL     1       1.470   8.789  19.714  0.00  0.00    +0.000 A 
ATOM     18 BR   UNL     1       0.985  10.589  20.020  0.00  0.00    +0.000 Br
ATOM     19  C   UNL     1       1.863   8.383  18.444  0.00  0.00    +0.000 A 
ATOM     20  C   UNL     1       2.225   7.050  18.220  0.00  0.00    +0.000 A 
ENDBRANCH   9  14
TORSDOF 1
ENDMDL
MODEL 8
REMARK VINA RESULT:      -6.2      3.701      5.259
REMARK  Name = 
REMARK  2 active torsions:
REMARK  status: ('A' for Active; 'I' for Inactive)
REMARK    1  A    between atoms: C_1  and  C_2
REMARK    2  A    between atoms: N_9  and  C_10
REMARK                            x       y       z     vdW  Elec       q    Type
REMARK                         _______ _______ _______ _____ _____    ______ ____
ROOT
ATOM      1  C   UNL     1       4.557   6.649  15.693  0.00  0.00    +0.000 C 
ATOM      2  C   UNL     1       5.221   5.286  15.449  0.00  0.00    +0.000 C 
ATOM      3  N   UNL     1       6.195   5.521  14.387  0.00  0.00    +0.000 NA
ATOM      4  C   UNL     1       7.436   5.357  14.667  0.00  0.00    +0.000 C 
ATOM      5  N   UNL     1       8.351   5.628  13.705  0.00  0.00    +0.000 N 
ATOM      6  N   UNL     1       7.921   4.886  15.838  0.00  0.00    +0.000 NA
ATOM      7  C   UNL     1       7.080   4.579  16.775  0.00  0.00    +0.000 C 
ATOM      8  N   UNL     1       7.620   4.020  17.893  0.00  0.00    +0.000 N 
ATOM      9  N   UNL     1       5.718   4.704  16.700  0.00  0.00    +0.000 N 
ATOM     10  H   UNL     1       7.955   5.603  12.775  0.00  0.00    +0.000 HD
ATOM     11  H   UNL     1       9.207   5.106  13.822  0.00  0.00    +0.000 HD
ATOM     12  H   UNL     1       8.598   3.794  17.747  0.00  0.00    +0.000 HD
ATOM     13  H   UNL     1       7.096   3.227  18.241  0.00  0.00    +0.000 HD
ENDROOT
BRANCH   9  14
ATOM     14  C   UNL     1       4.772   4.488  17.735  0.00  0.00    +0.000 A 
ATOM     15  C   UNL     1       3.942   3.351  17.756  0.00  0.00    +0.000 A 
ATOM     16  C   UNL     1       3.019   3.125  18.785  0.00  0.00    +0.000 A 
ATOM     17  C   UNL     1       2.927   4.024  19.838  0.00  0.00    +0.000 A 
ATOM     18 BR   UNL     1       1.716   3.704  21.252  0.00  0.00    +0.000 Br
ATOM     19  C   UNL     1       3.734   5.155  19.860  0.00  0.00    +0.000 A 
ATOM     20  C   UNL     1       4.633   5.389  18.813  0.00  0.00    +0.000 A 
ENDBRANCH   9  14
TORSDOF 1
ENDMDL
MODEL 9
REMARK VINA RESULT:      -6.2      3.698      5.173
REMARK  Name = 
REMARK  2 active torsions:
REMARK  status: ('A' for Active; 'I' for Inactive)
REMARK    1  A    between atoms: C_1  and  C_2
REMARK    2  A    between atoms: N_9  and  C_10
REMARK                            x       y       z     vdW  Elec       q    Type
REMARK                         _______ _______ _______ _____ _____    ______ ____
ROOT
ATOM      1  C   UNL     1       4.610   6.703  15.573  0.00  0.00    +0.000 C 
ATOM      2  C   UNL     1       5.255   5.327  15.347  0.00  0.00    +0.000 C 
ATOM      3  N   UNL     1       6.264   5.544  14.314  0.00  0.00    +0.000 NA
ATOM      4  C   UNL     1       7.493   5.355  14.631  0.00  0.00    +0.000 C 
ATOM      5  N   UNL     1       8.441   5.608  13.697  0.00  0.00    +0.000 N 
ATOM      6  N   UNL     1       7.933   4.873  15.815  0.00  0.00    +0.000 NA
ATOM      7  C   UNL     1       7.059   4.582  16.727  0.00  0.00    +0.000 C 
ATOM      8  N   UNL     1       7.554   4.012  17.859  0.00  0.00    +0.000 N 
ATOM      9  N   UNL     1       5.703   4.735  16.611  0.00  0.00    +0.000 N 
ATOM     10  H   UNL     1       8.072   5.591  12.756  0.00  0.00    +0.000 HD
ATOM     11  H   UNL     1       9.283   5.069  13.838  0.00  0.00    +0.000 HD
ATOM     12  H   UNL     1       8.532   3.766  17.742  0.00  0.00    +0.000 HD
ATOM     13  H   UNL     1       7.005   3.229  18.191  0.00  0.00    +0.000 HD
ENDROOT
BRANCH   9  14
ATOM     14  C   UNL     1       4.722   4.536  17.618  0.00  0.00    +0.000 A 
ATOM     15  C   UNL     1       4.620   5.391  18.732  0.00  0.00    +0.000 A 
ATOM     16  C   UNL     1       3.643   5.210  19.720  0.00  0.00    +0.000 A 
ATOM     17  C   UNL     1       2.723   4.177  19.597  0.00  0.00    +0.000 A 
ATOM     18 BR   UNL     1       1.375   3.952  20.901  0.00  0.00    +0.000 Br
ATOM     19  C   UNL     1       2.785   3.316  18.508  0.00  0.00    +0.000 A 
ATOM     20  C   UNL     1       3.782   3.487  17.541  0.00  0.00    +0.000 A 
ENDBRANCH   9  14
TORSDOF 1
ENDMDL
