MODEL 1
REMARK VINA RESULT:      -7.3      0.000      0.000
REMARK  Name = 
REMARK  8 active torsions:
REMARK  status: ('A' for Active; 'I' for Inactive)
REMARK    1  A    between atoms: C_2  and  C_3
REMARK    2  A    between atoms: C_3  and  N_4
REMARK    3  A    between atoms: N_21  and  N_22
REMARK    4  A    between atoms: C_23  and  C_24
REMARK    5  A    between atoms: C_28  and  O_29
REMARK    6  A    between atoms: O_29  and  C_30
REMARK    7  A    between atoms: C_31  and  O_32
REMARK    8  A    between atoms: O_32  and  C_33
REMARK                            x       y       z     vdW  Elec       q    Type
REMARK                         _______ _______ _______ _____ _____    ______ ____
ROOT
ATOM      1  N   UNL     1      -3.781  11.022  18.236  0.00  0.00    +0.000 N 
ATOM      2  C   UNL     1      -3.100   9.962  17.647  0.00  0.00    +0.000 A 
ATOM      3  N   UNL     1      -1.842   9.691  17.786  0.00  0.00    +0.000 NA
ATOM      4  C   UNL     1      -1.169  10.576  18.574  0.00  0.00    +0.000 A 
ATOM      5  C   UNL     1      -1.712  11.681  19.199  0.00  0.00    +0.000 A 
ATOM      6  C   UNL     1      -3.130  11.930  19.080  0.00  0.00    +0.000 A 
ATOM      7  O   UNL     1      -3.706  12.829  19.684  0.00  0.00    +0.000 OA
ATOM      8  C   UNL     1      -0.663  12.372  19.822  0.00  0.00    +0.000 A 
ATOM      9  N   UNL     1      -0.656  13.547  20.502  0.00  0.00    +0.000 NA
ATOM     10  C   UNL     1       0.555  13.961  20.905  0.00  0.00    +0.000 A 
ATOM     11  C   UNL     1       0.642  15.146  21.625  0.00  0.00    +0.000 A 
ATOM     12  C   UNL     1       1.867  15.635  22.080  0.00  0.00    +0.000 A 
ATOM     13  C   UNL     1       3.031  14.936  21.795  0.00  0.00    +0.000 A 
ATOM     14  C   UNL     1       2.957  13.747  21.067  0.00  0.00    +0.000 A 
ATOM     15  C   UNL     1       1.743  13.235  20.630  0.00  0.00    +0.000 A 
ATOM     16  N   UNL     1       1.748  12.064  19.974  0.00  0.00    +0.000 NA
ATOM     17  C   UNL     1       0.512  11.656  19.596  0.00  0.00    +0.000 A 
ATOM     18  N   UNL     1       0.188  10.498  18.894  0.00  0.00    +0.000 N 
ENDROOT
BRANCH  18  19
ATOM     19  N   UNL     1       1.019   9.521  18.414  0.00  0.00    +0.000 NA
ATOM     20  C   UNL     1       1.389   8.566  19.220  0.00  0.00    +0.000 C 
BRANCH  20  21
ATOM     21  C   UNL     1       2.440   7.609  18.774  0.00  0.00    +0.000 A 
ATOM     22  C   UNL     1       3.152   7.991  17.627  0.00  0.00    +0.000 A 
ATOM     23  C   UNL     1       4.181   7.203  17.136  0.00  0.00    +0.000 A 
ATOM     24  C   UNL     1       4.508   6.021  17.791  0.00  0.00    +0.000 A 
ATOM     25  C   UNL     1       3.819   5.613  18.946  0.00  0.00    +0.000 A 
ATOM     26  C   UNL     1       2.759   6.410  19.454  0.00  0.00    +0.000 A 
BRANCH  25  27
ATOM     27  O   UNL     1       4.123   4.420  19.556  0.00  0.00    +0.000 OA
ATOM     28  C   UNL     1       4.225   3.266  18.727  0.00  0.00    +0.000 C 
ENDBRANCH  25  27
BRANCH  26  29
ATOM     29  O   UNL     1       1.982   6.133  20.555  0.00  0.00    +0.000 OA
ATOM     30  C   UNL     1       1.224   4.927  20.579  0.00  0.00    +0.000 C 
ENDBRANCH  26  29
ENDBRANCH  20  21
ENDBRANCH  18  19
BRANCH   1  31
ATOM     31  C   UNL     1      -5.227  11.105  18.099  0.00  0.00    +0.000 C 
BRANCH  31  33
ATOM     32  C   UNL     1      -6.658  12.951  17.159  0.00  0.00    +0.000 C 
ATOM     33  C   UNL     1      -5.604  12.125  17.064  0.00  0.00    +0.000 C 
ENDBRANCH  31  33
ENDBRANCH   1  31
TORSDOF 6
ENDMDL
MODEL 2
REMARK VINA RESULT:      -6.5      1.616      1.702
REMARK  Name = 
REMARK  8 active torsions:
REMARK  status: ('A' for Active; 'I' for Inactive)
REMARK    1  A    between atoms: C_2  and  C_3
REMARK    2  A    between atoms: C_3  and  N_4
REMARK    3  A    between atoms: N_21  and  N_22
REMARK    4  A    between atoms: C_23  and  C_24
REMARK    5  A    between atoms: C_28  and  O_29
REMARK    6  A    between atoms: O_29  and  C_30
REMARK    7  A    between atoms: C_31  and  O_32
REMARK    8  A    between atoms: O_32  and  C_33
REMARK                            x       y       z     vdW  Elec       q    Type
REMARK                         _______ _______ _______ _____ _____    ______ ____
ROOT
ATOM      1  N   UNL     1      -2.794  11.236  18.569  0.00  0.00    +0.000 N 
ATOM      2  C   UNL     1      -2.269  10.013  18.167  0.00  0.00    +0.000 A 
ATOM      3  N   UNL     1      -1.014   9.736  18.010  0.00  0.00    +0.000 NA
ATOM      4  C   UNL     1      -0.181  10.787  18.251  0.00  0.00    +0.000 A 
ATOM      5  C   UNL     1      -0.566  12.057  18.631  0.00  0.00    +0.000 A 
ATOM      6  C   UNL     1      -1.967  12.328  18.860  0.00  0.00    +0.000 A 
ATOM      7  O   UNL     1      -2.381  13.397  19.296  0.00  0.00    +0.000 OA
ATOM      8  C   UNL     1       0.587  12.853  18.674  0.00  0.00    +0.000 A 
ATOM      9  N   UNL     1       0.740  14.180  18.923  0.00  0.00    +0.000 NA
ATOM     10  C   UNL     1       1.995  14.636  18.805  0.00  0.00    +0.000 A 
ATOM     11  C   UNL     1       2.236  15.980  19.063  0.00  0.00    +0.000 A 
ATOM     12  C   UNL     1       3.517  16.525  18.965  0.00  0.00    +0.000 A 
ATOM     13  C   UNL     1       4.577  15.714  18.585  0.00  0.00    +0.000 A 
ATOM     14  C   UNL     1       4.348  14.363  18.317  0.00  0.00    +0.000 A 
ATOM     15  C   UNL     1       3.082  13.802  18.435  0.00  0.00    +0.000 A 
ATOM     16  N   UNL     1       2.949  12.487  18.204  0.00  0.00    +0.000 NA
ATOM     17  C   UNL     1       1.675  12.045  18.349  0.00  0.00    +0.000 A 
ATOM     18  N   UNL     1       1.213  10.744  18.168  0.00  0.00    +0.000 N 
ENDROOT
BRANCH  18  19
ATOM     19  N   UNL     1       1.910   9.626  17.795  0.00  0.00    +0.000 NA
ATOM     20  C   UNL     1       1.980   8.627  18.629  0.00  0.00    +0.000 C 
BRANCH  20  21
ATOM     21  C   UNL     1       2.890   7.489  18.321  0.00  0.00    +0.000 A 
ATOM     22  C   UNL     1       3.655   7.631  17.154  0.00  0.00    +0.000 A 
ATOM     23  C   UNL     1       4.567   6.656  16.781  0.00  0.00    +0.000 A 
ATOM     24  C   UNL     1       4.723   5.526  17.576  0.00  0.00    +0.000 A 
ATOM     25  C   UNL     1       3.976   5.357  18.755  0.00  0.00    +0.000 A 
ATOM     26  C   UNL     1       3.035   6.346  19.143  0.00  0.00    +0.000 A 
BRANCH  25  27
ATOM     27  O   UNL     1       4.108   4.214  19.506  0.00  0.00    +0.000 OA
ATOM     28  C   UNL     1       4.013   2.966  18.825  0.00  0.00    +0.000 C 
ENDBRANCH  25  27
BRANCH  26  29
ATOM     29  O   UNL     1       2.221   6.310  20.251  0.00  0.00    +0.000 OA
ATOM     30  C   UNL     1       1.383   5.176  20.456  0.00  0.00    +0.000 C 
ENDBRANCH  26  29
ENDBRANCH  20  21
ENDBRANCH  18  19
BRANCH   1  31
ATOM     31  C   UNL     1      -4.219  11.345  18.842  0.00  0.00    +0.000 C 
BRANCH  31  33
ATOM     32  C   UNL     1      -5.712  12.389  17.103  0.00  0.00    +0.000 C 
ATOM     33  C   UNL     1      -5.005  11.344  17.562  0.00  0.00    +0.000 C 
ENDBRANCH  31  33
ENDBRANCH   1  31
TORSDOF 6
ENDMDL
MODEL 3
REMARK VINA RESULT:      -6.5      3.479      9.607
REMARK  Name = 
REMARK  8 active torsions:
REMARK  status: ('A' for Active; 'I' for Inactive)
REMARK    1  A    between atoms: C_2  and  C_3
REMARK    2  A    between atoms: C_3  and  N_4
REMARK    3  A    between atoms: N_21  and  N_22
REMARK    4  A    between atoms: C_23  and  C_24
REMARK    5  A    between atoms: C_28  and  O_29
REMARK    6  A    between atoms: O_29  and  C_30
REMARK    7  A    between atoms: C_31  and  O_32
REMARK    8  A    between atoms: O_32  and  C_33
REMARK                            x       y       z     vdW  Elec       q    Type
REMARK                         _______ _______ _______ _____ _____    ______ ____
ROOT
ATOM      1  N   UNL     1       5.860   5.172  14.854  0.00  0.00    +0.000 N 
ATOM      2  C   UNL     1       5.504   6.516  14.828  0.00  0.00    +0.000 A 
ATOM      3  N   UNL     1       4.813   7.140  15.728  0.00  0.00    +0.000 NA
ATOM      4  C   UNL     1       4.405   6.349  16.760  0.00  0.00    +0.000 A 
ATOM      5  C   UNL     1       4.665   5.000  16.900  0.00  0.00    +0.000 A 
ATOM      6  C   UNL     1       5.489   4.337  15.916  0.00  0.00    +0.000 A 
ATOM      7  O   UNL     1       5.849   3.169  16.020  0.00  0.00    +0.000 OA
ATOM      8  C   UNL     1       3.982   4.555  18.040  0.00  0.00    +0.000 A 
ATOM      9  N   UNL     1       3.857   3.310  18.569  0.00  0.00    +0.000 NA
ATOM     10  C   UNL     1       3.054   3.229  19.641  0.00  0.00    +0.000 A 
ATOM     11  C   UNL     1       2.890   1.991  20.251  0.00  0.00    +0.000 A 
ATOM     12  C   UNL     1       2.076   1.831  21.372  0.00  0.00    +0.000 A 
ATOM     13  C   UNL     1       1.396   2.927  21.884  0.00  0.00    +0.000 A 
ATOM     14  C   UNL     1       1.547   4.175  21.277  0.00  0.00    +0.000 A 
ATOM     15  C   UNL     1       2.375   4.354  20.176  0.00  0.00    +0.000 A 
ATOM     16  N   UNL     1       2.504   5.592  19.675  0.00  0.00    +0.000 NA
ATOM     17  C   UNL     1       3.335   5.653  18.606  0.00  0.00    +0.000 A 
ATOM     18  N   UNL     1       3.664   6.783  17.862  0.00  0.00    +0.000 N 
ENDROOT
BRANCH  18  19
ATOM     19  N   UNL     1       3.228   8.072  18.015  0.00  0.00    +0.000 NA
ATOM     20  C   UNL     1       2.235   8.302  18.825  0.00  0.00    +0.000 C 
BRANCH  20  21
ATOM     21  C   UNL     1       1.625   9.661  18.856  0.00  0.00    +0.000 A 
ATOM     22  C   UNL     1       2.218  10.604  18.003  0.00  0.00    +0.000 A 
ATOM     23  C   UNL     1       1.716  11.893  17.914  0.00  0.00    +0.000 A 
ATOM     24  C   UNL     1       0.612  12.251  18.680  0.00  0.00    +0.000 A 
ATOM     25  C   UNL     1      -0.008  11.328  19.539  0.00  0.00    +0.000 A 
ATOM     26  C   UNL     1       0.501  10.007  19.643  0.00  0.00    +0.000 A 
BRANCH  25  27
ATOM     27  O   UNL     1      -1.069  11.709  20.324  0.00  0.00    +0.000 OA
ATOM     28  C   UNL     1      -2.185  12.312  19.674  0.00  0.00    +0.000 C 
ENDBRANCH  25  27
BRANCH  26  29
ATOM     29  O   UNL     1       0.017   9.005  20.452  0.00  0.00    +0.000 OA
ATOM     30  C   UNL     1       0.493   8.908  21.791  0.00  0.00    +0.000 C 
ENDBRANCH  26  29
ENDBRANCH  20  21
ENDBRANCH  18  19
BRANCH   1  31
ATOM     31  C   UNL     1       6.765   4.655  13.839  0.00  0.00    +0.000 C 
BRANCH  31  33
ATOM     32  C   UNL     1       6.611   3.040  11.913  0.00  0.00    +0.000 C 
ATOM     33  C   UNL     1       6.025   3.787  12.863  0.00  0.00    +0.000 C 
ENDBRANCH  31  33
ENDBRANCH   1  31
TORSDOF 6
ENDMDL
MODEL 4
REMARK VINA RESULT:      -6.4      3.058      3.852
REMARK  Name = 
REMARK  8 active torsions:
REMARK  status: ('A' for Active; 'I' for Inactive)
REMARK    1  A    between atoms: C_2  and  C_3
REMARK    2  A    between atoms: C_3  and  N_4
REMARK    3  A    between atoms: N_21  and  N_22
REMARK    4  A    between atoms: C_23  and  C_24
REMARK    5  A    between atoms: C_28  and  O_29
REMARK    6  A    between atoms: O_29  and  C_30
REMARK    7  A    between atoms: C_31  and  O_32
REMARK    8  A    between atoms: O_32  and  C_33
REMARK                            x       y       z     vdW  Elec       q    Type
REMARK                         _______ _______ _______ _____ _____    ______ ____
ROOT
ATOM      1  N   UNL     1      -2.642  13.090  23.207  0.00  0.00    +0.000 N 
ATOM      2  C   UNL     1      -2.108  11.817  23.037  0.00  0.00    +0.000 A 
ATOM      3  N   UNL     1      -1.084  11.511  22.306  0.00  0.00    +0.000 NA
ATOM      4  C   UNL     1      -0.536  12.571  21.648  0.00  0.00    +0.000 A 
ATOM      5  C   UNL     1      -0.978  13.877  21.706  0.00  0.00    +0.000 A 
ATOM      6  C   UNL     1      -2.084  14.208  22.575  0.00  0.00    +0.000 A 
ATOM      7  O   UNL     1      -2.471  15.357  22.761  0.00  0.00    +0.000 OA
ATOM      8  C   UNL     1      -0.204  14.625  20.807  0.00  0.00    +0.000 A 
ATOM      9  N   UNL     1      -0.284  15.931  20.443  0.00  0.00    +0.000 NA
ATOM     10  C   UNL     1       0.578  16.304  19.485  0.00  0.00    +0.000 A 
ATOM     11  C   UNL     1       0.572  17.630  19.071  0.00  0.00    +0.000 A 
ATOM     12  C   UNL     1       1.443  18.092  18.083  0.00  0.00    +0.000 A 
ATOM     13  C   UNL     1       2.326  17.205  17.483  0.00  0.00    +0.000 A 
ATOM     14  C   UNL     1       2.338  15.869  17.885  0.00  0.00    +0.000 A 
ATOM     15  C   UNL     1       1.494  15.401  18.885  0.00  0.00    +0.000 A 
ATOM     16  N   UNL     1       1.595  14.114  19.248  0.00  0.00    +0.000 NA
ATOM     17  C   UNL     1       0.729  13.765  20.231  0.00  0.00    +0.000 A 
ATOM     18  N   UNL     1       0.581  12.508  20.813  0.00  0.00    +0.000 N 
ENDROOT
BRANCH  18  19
ATOM     19  N   UNL     1       1.246  11.345  20.530  0.00  0.00    +0.000 NA
ATOM     20  C   UNL     1       0.876  10.652  19.492  0.00  0.00    +0.000 C 
BRANCH  20  21
ATOM     21  C   UNL     1       1.454   9.295  19.282  0.00  0.00    +0.000 A 
ATOM     22  C   UNL     1       2.043   9.081  18.026  0.00  0.00    +0.000 A 
ATOM     23  C   UNL     1       2.649   7.872  17.725  0.00  0.00    +0.000 A 
ATOM     24  C   UNL     1       2.673   6.862  18.681  0.00  0.00    +0.000 A 
ATOM     25  C   UNL     1       2.099   7.047  19.950  0.00  0.00    +0.000 A 
ATOM     26  C   UNL     1       1.470   8.279  20.268  0.00  0.00    +0.000 A 
BRANCH  25  27
ATOM     27  O   UNL     1       2.089   6.025  20.868  0.00  0.00    +0.000 OA
ATOM     28  C   UNL     1       1.486   4.796  20.477  0.00  0.00    +0.000 C 
ENDBRANCH  25  27
BRANCH  26  29
ATOM     29  O   UNL     1       0.848   8.600  21.453  0.00  0.00    +0.000 OA
ATOM     30  C   UNL     1      -0.505   8.201  21.653  0.00  0.00    +0.000 C 
ENDBRANCH  26  29
ENDBRANCH  20  21
ENDBRANCH  18  19
BRANCH   1  31
ATOM     31  C   UNL     1      -3.705  13.292  24.179  0.00  0.00    +0.000 C 
BRANCH  31  33
ATOM     32  C   UNL     1      -6.168  12.767  24.236  0.00  0.00    +0.000 C 
ATOM     33  C   UNL     1      -5.049  13.054  23.552  0.00  0.00    +0.000 C 
ENDBRANCH  31  33
ENDBRANCH   1  31
TORSDOF 6
ENDMDL
MODEL 5
REMARK VINA RESULT:      -6.4      2.703      5.507
REMARK  Name = 
REMARK  8 active torsions:
REMARK  status: ('A' for Active; 'I' for Inactive)
REMARK    1  A    between atoms: C_2  and  C_3
REMARK    2  A    between atoms: C_3  and  N_4
REMARK    3  A    between atoms: N_21  and  N_22
REMARK    4  A    between atoms: C_23  and  C_24
REMARK    5  A    between atoms: C_28  and  O_29
REMARK    6  A    between atoms: O_29  and  C_30
REMARK    7  A    between atoms: C_31  and  O_32
REMARK    8  A    between atoms: O_32  and  C_33
REMARK                            x       y       z     vdW  Elec       q    Type
REMARK                         _______ _______ _______ _____ _____    ______ ____
ROOT
ATOM      1  N   UNL     1       3.106  15.664  18.501  0.00  0.00    +0.000 N 
ATOM      2  C   UNL     1       3.539  14.377  18.200  0.00  0.00    +0.000 A 
ATOM      3  N   UNL     1       2.831  13.295  18.281  0.00  0.00    +0.000 NA
ATOM      4  C   UNL     1       1.562  13.497  18.733  0.00  0.00    +0.000 A 
ATOM      5  C   UNL     1       1.011  14.711  19.090  0.00  0.00    +0.000 A 
ATOM      6  C   UNL     1       1.798  15.913  18.934  0.00  0.00    +0.000 A 
ATOM      7  O   UNL     1       1.350  17.038  19.132  0.00  0.00    +0.000 OA
ATOM      8  C   UNL     1      -0.274  14.461  19.592  0.00  0.00    +0.000 A 
ATOM      9  N   UNL     1      -1.193  15.301  20.135  0.00  0.00    +0.000 NA
ATOM     10  C   UNL     1      -2.305  14.705  20.590  0.00  0.00    +0.000 A 
ATOM     11  C   UNL     1      -3.301  15.500  21.142  0.00  0.00    +0.000 A 
ATOM     12  C   UNL     1      -4.487  14.951  21.631  0.00  0.00    +0.000 A 
ATOM     13  C   UNL     1      -4.673  13.576  21.585  0.00  0.00    +0.000 A 
ATOM     14  C   UNL     1      -3.677  12.766  21.039  0.00  0.00    +0.000 A 
ATOM     15  C   UNL     1      -2.503  13.301  20.525  0.00  0.00    +0.000 A 
ATOM     16  N   UNL     1      -1.612  12.462  19.976  0.00  0.00    +0.000 NA
ATOM     17  C   UNL     1      -0.506  13.089  19.504  0.00  0.00    +0.000 A 
ATOM     18  N   UNL     1       0.598  12.499  18.894  0.00  0.00    +0.000 N 
ENDROOT
BRANCH  18  19
ATOM     19  N   UNL     1       0.837  11.174  18.641  0.00  0.00    +0.000 NA
ATOM     20  C   UNL     1       1.094  10.384  19.645  0.00  0.00    +0.000 C 
BRANCH  20  21
ATOM     21  C   UNL     1       1.544   8.991  19.372  0.00  0.00    +0.000 A 
ATOM     22  C   UNL     1       2.006   8.753  18.069  0.00  0.00    +0.000 A 
ATOM     23  C   UNL     1       2.488   7.506  17.704  0.00  0.00    +0.000 A 
ATOM     24  C   UNL     1       2.512   6.481  18.643  0.00  0.00    +0.000 A 
ATOM     25  C   UNL     1       2.062   6.688  19.959  0.00  0.00    +0.000 A 
ATOM     26  C   UNL     1       1.562   7.960  20.342  0.00  0.00    +0.000 A 
BRANCH  25  27
ATOM     27  O   UNL     1       2.050   5.654  20.863  0.00  0.00    +0.000 OA
ATOM     28  C   UNL     1       1.266   4.509  20.541  0.00  0.00    +0.000 C 
ENDBRANCH  25  27
BRANCH  26  29
ATOM     29  O   UNL     1       1.069   8.307  21.579  0.00  0.00    +0.000 OA
ATOM     30  C   UNL     1      -0.340   8.295  21.789  0.00  0.00    +0.000 C 
ENDBRANCH  26  29
ENDBRANCH  20  21
ENDBRANCH  18  19
BRANCH   1  31
ATOM     31  C   UNL     1       3.977  16.793  18.216  0.00  0.00    +0.000 C 
BRANCH  31  33
ATOM     32  C   UNL     1       5.275  16.788  20.375  0.00  0.00    +0.000 C 
ATOM     33  C   UNL     1       5.233  16.713  19.035  0.00  0.00    +0.000 C 
ENDBRANCH  31  33
ENDBRANCH   1  31
TORSDOF 6
ENDMDL
MODEL 6
REMARK VINA RESULT:      -6.4      3.552      9.617
REMARK  Name = 
REMARK  8 active torsions:
REMARK  status: ('A' for Active; 'I' for Inactive)
REMARK    1  A    between atoms: C_2  and  C_3
REMARK    2  A    between atoms: C_3  and  N_4
REMARK    3  A    between atoms: N_21  and  N_22
REMARK    4  A    between atoms: C_23  and  C_24
REMARK    5  A    between atoms: C_28  and  O_29
REMARK    6  A    between atoms: O_29  and  C_30
REMARK    7  A    between atoms: C_31  and  O_32
REMARK    8  A    between atoms: O_32  and  C_33
REMARK                            x       y       z     vdW  Elec       q    Type
REMARK                         _______ _______ _______ _____ _____    ______ ____
ROOT
ATOM      1  N   UNL     1       6.150   5.588  15.403  0.00  0.00    +0.000 N 
ATOM      2  C   UNL     1       5.426   6.758  15.200  0.00  0.00    +0.000 A 
ATOM      3  N   UNL     1       4.458   7.195  15.941  0.00  0.00    +0.000 NA
ATOM      4  C   UNL     1       4.149   6.378  16.986  0.00  0.00    +0.000 A 
ATOM      5  C   UNL     1       4.765   5.181  17.290  0.00  0.00    +0.000 A 
ATOM      6  C   UNL     1       5.883   4.742  16.487  0.00  0.00    +0.000 A 
ATOM      7  O   UNL     1       6.548   3.745  16.750  0.00  0.00    +0.000 OA
ATOM      8  C   UNL     1       4.079   4.616  18.374  0.00  0.00    +0.000 A 
ATOM      9  N   UNL     1       4.244   3.423  19.003  0.00  0.00    +0.000 NA
ATOM     10  C   UNL     1       3.350   3.165  19.969  0.00  0.00    +0.000 A 
ATOM     11  C   UNL     1       3.463   1.972  20.673  0.00  0.00    +0.000 A 
ATOM     12  C   UNL     1       2.573   1.639  21.693  0.00  0.00    +0.000 A 
ATOM     13  C   UNL     1       1.535   2.506  22.006  0.00  0.00    +0.000 A 
ATOM     14  C   UNL     1       1.406   3.704  21.302  0.00  0.00    +0.000 A 
ATOM     15  C   UNL     1       2.301   4.062  20.301  0.00  0.00    +0.000 A 
ATOM     16  N   UNL     1       2.137   5.250  19.700  0.00  0.00    +0.000 NA
ATOM     17  C   UNL     1       3.065   5.498  18.743  0.00  0.00    +0.000 A 
ATOM     18  N   UNL     1       3.158   6.630  17.938  0.00  0.00    +0.000 N 
ENDROOT
BRANCH  18  19
ATOM     19  N   UNL     1       2.348   7.734  17.907  0.00  0.00    +0.000 NA
ATOM     20  C   UNL     1       2.060   8.328  19.030  0.00  0.00    +0.000 C 
BRANCH  20  21
ATOM     21  C   UNL     1       1.032   9.405  19.037  0.00  0.00    +0.000 A 
ATOM     22  C   UNL     1       0.346   9.588  17.827  0.00  0.00    +0.000 A 
ATOM     23  C   UNL     1      -0.660  10.534  17.719  0.00  0.00    +0.000 A 
ATOM     24  C   UNL     1      -0.992  11.309  18.824  0.00  0.00    +0.000 A 
ATOM     25  C   UNL     1      -0.329  11.146  20.053  0.00  0.00    +0.000 A 
ATOM     26  C   UNL     1       0.708  10.184  20.173  0.00  0.00    +0.000 A 
BRANCH  25  27
ATOM     27  O   UNL     1      -0.635  11.950  21.124  0.00  0.00    +0.000 OA
ATOM     28  C   UNL     1      -1.959  12.471  21.197  0.00  0.00    +0.000 C 
ENDBRANCH  25  27
BRANCH  26  29
ATOM     29  O   UNL     1       1.459   9.927  21.297  0.00  0.00    +0.000 OA
ATOM     30  C   UNL     1       0.858   9.228  22.384  0.00  0.00    +0.000 C 
ENDBRANCH  26  29
ENDBRANCH  20  21
ENDBRANCH  18  19
BRANCH   1  31
ATOM     31  C   UNL     1       7.306   5.311  14.565  0.00  0.00    +0.000 C 
BRANCH  31  33
ATOM     32  C   UNL     1       6.119   3.631  13.112  0.00  0.00    +0.000 C 
ATOM     33  C   UNL     1       6.880   4.730  13.248  0.00  0.00    +0.000 C 
ENDBRANCH  31  33
ENDBRANCH   1  31
TORSDOF 6
ENDMDL
MODEL 7
REMARK VINA RESULT:      -6.4      4.262      8.484
REMARK  Name = 
REMARK  8 active torsions:
REMARK  status: ('A' for Active; 'I' for Inactive)
REMARK    1  A    between atoms: C_2  and  C_3
REMARK    2  A    between atoms: C_3  and  N_4
REMARK    3  A    between atoms: N_21  and  N_22
REMARK    4  A    between atoms: C_23  and  C_24
REMARK    5  A    between atoms: C_28  and  O_29
REMARK    6  A    between atoms: O_29  and  C_30
REMARK    7  A    between atoms: C_31  and  O_32
REMARK    8  A    between atoms: O_32  and  C_33
REMARK                            x       y       z     vdW  Elec       q    Type
REMARK                         _______ _______ _______ _____ _____    ______ ____
ROOT
ATOM      1  N   UNL     1       0.481  10.494  21.980  0.00  0.00    +0.000 N 
ATOM      2  C   UNL     1       1.090  11.500  21.239  0.00  0.00    +0.000 A 
ATOM      3  N   UNL     1       0.636  12.700  21.061  0.00  0.00    +0.000 NA
ATOM      4  C   UNL     1      -0.566  12.930  21.660  0.00  0.00    +0.000 A 
ATOM      5  C   UNL     1      -1.291  12.019  22.401  0.00  0.00    +0.000 A 
ATOM      6  C   UNL     1      -0.737  10.706  22.639  0.00  0.00    +0.000 A 
ATOM      7  O   UNL     1      -1.268   9.875  23.368  0.00  0.00    +0.000 OA
ATOM      8  C   UNL     1      -2.507  12.627  22.747  0.00  0.00    +0.000 A 
ATOM      9  N   UNL     1      -3.587  12.135  23.407  0.00  0.00    +0.000 NA
ATOM     10  C   UNL     1      -4.626  12.979  23.497  0.00  0.00    +0.000 A 
ATOM     11  C   UNL     1      -5.763  12.557  24.176  0.00  0.00    +0.000 A 
ATOM     12  C   UNL     1      -6.879  13.381  24.315  0.00  0.00    +0.000 A 
ATOM     13  C   UNL     1      -6.868  14.648  23.748  0.00  0.00    +0.000 A 
ATOM     14  C   UNL     1      -5.735  15.082  23.059  0.00  0.00    +0.000 A 
ATOM     15  C   UNL     1      -4.606  14.282  22.935  0.00  0.00    +0.000 A 
ATOM     16  N   UNL     1      -3.539  14.786  22.296  0.00  0.00    +0.000 NA
ATOM     17  C   UNL     1      -2.495  13.923  22.235  0.00  0.00    +0.000 A 
ATOM     18  N   UNL     1      -1.259  14.143  21.633  0.00  0.00    +0.000 N 
ENDROOT
BRANCH  18  19
ATOM     19  N   UNL     1      -0.813  15.249  20.960  0.00  0.00    +0.000 NA
ATOM     20  C   UNL     1      -1.039  15.334  19.680  0.00  0.00    +0.000 C 
BRANCH  20  21
ATOM     21  C   UNL     1      -0.397  16.429  18.902  0.00  0.00    +0.000 A 
ATOM     22  C   UNL     1      -1.254  17.468  18.508  0.00  0.00    +0.000 A 
ATOM     23  C   UNL     1      -0.767  18.563  17.812  0.00  0.00    +0.000 A 
ATOM     24  C   UNL     1       0.587  18.629  17.502  0.00  0.00    +0.000 A 
ATOM     25  C   UNL     1       1.473  17.609  17.888  0.00  0.00    +0.000 A 
ATOM     26  C   UNL     1       0.984  16.480  18.596  0.00  0.00    +0.000 A 
BRANCH  25  27
ATOM     27  O   UNL     1       2.800  17.665  17.535  0.00  0.00    +0.000 OA
ATOM     28  C   UNL     1       3.271  16.707  16.592  0.00  0.00    +0.000 C 
ENDBRANCH  25  27
BRANCH  26  29
ATOM     29  O   UNL     1       1.720  15.397  19.019  0.00  0.00    +0.000 OA
ATOM     30  C   UNL     1       2.611  15.555  20.119  0.00  0.00    +0.000 C 
ENDBRANCH  26  29
ENDBRANCH  20  21
ENDBRANCH  18  19
BRANCH   1  31
ATOM     31  C   UNL     1       1.192   9.245  22.206  0.00  0.00    +0.000 C 
BRANCH  31  33
ATOM     32  C   UNL     1       1.825   7.774  20.263  0.00  0.00    +0.000 C 
ATOM     33  C   UNL     1       0.903   8.265  21.107  0.00  0.00    +0.000 C 
ENDBRANCH  31  33
ENDBRANCH   1  31
TORSDOF 6
ENDMDL
MODEL 8
REMARK VINA RESULT:      -6.2      2.947      8.887
REMARK  Name = 
REMARK  8 active torsions:
REMARK  status: ('A' for Active; 'I' for Inactive)
REMARK    1  A    between atoms: C_2  and  C_3
REMARK    2  A    between atoms: C_3  and  N_4
REMARK    3  A    between atoms: N_21  and  N_22
REMARK    4  A    between atoms: C_23  and  C_24
REMARK    5  A    between atoms: C_28  and  O_29
REMARK    6  A    between atoms: O_29  and  C_30
REMARK    7  A    between atoms: C_31  and  O_32
REMARK    8  A    between atoms: O_32  and  C_33
REMARK                            x       y       z     vdW  Elec       q    Type
REMARK                         _______ _______ _______ _____ _____    ______ ____
ROOT
ATOM      1  N   UNL     1       0.687  10.652  18.771  0.00  0.00    +0.000 N 
ATOM      2  C   UNL     1       1.108  11.291  19.933  0.00  0.00    +0.000 A 
ATOM      3  N   UNL     1       0.354  11.939  20.763  0.00  0.00    +0.000 NA
ATOM      4  C   UNL     1      -0.958  11.986  20.400  0.00  0.00    +0.000 A 
ATOM      5  C   UNL     1      -1.506  11.419  19.267  0.00  0.00    +0.000 A 
ATOM      6  C   UNL     1      -0.659  10.649  18.385  0.00  0.00    +0.000 A 
ATOM      7  O   UNL     1      -1.086  10.031  17.415  0.00  0.00    +0.000 OA
ATOM      8  C   UNL     1      -2.858  11.786  19.223  0.00  0.00    +0.000 A 
ATOM      9  N   UNL     1      -3.812  11.547  18.286  0.00  0.00    +0.000 NA
ATOM     10  C   UNL     1      -5.000  12.121  18.529  0.00  0.00    +0.000 A 
ATOM     11  C   UNL     1      -6.034  11.906  17.625  0.00  0.00    +0.000 A 
ATOM     12  C   UNL     1      -7.298  12.466  17.815  0.00  0.00    +0.000 A 
ATOM     13  C   UNL     1      -7.529  13.271  18.922  0.00  0.00    +0.000 A 
ATOM     14  C   UNL     1      -6.497  13.499  19.834  0.00  0.00    +0.000 A 
ATOM     15  C   UNL     1      -5.242  12.928  19.671  0.00  0.00    +0.000 A 
ATOM     16  N   UNL     1      -4.314  13.158  20.613  0.00  0.00    +0.000 NA
ATOM     17  C   UNL     1      -3.129  12.552  20.356  0.00  0.00    +0.000 A 
ATOM     18  N   UNL     1      -1.973  12.607  21.131  0.00  0.00    +0.000 N 
ENDROOT
BRANCH  18  19
ATOM     19  N   UNL     1      -1.753  13.280  22.303  0.00  0.00    +0.000 NA
ATOM     20  C   UNL     1      -1.641  14.577  22.265  0.00  0.00    +0.000 C 
BRANCH  20  21
ATOM     21  C   UNL     1      -1.211  15.303  23.492  0.00  0.00    +0.000 A 
ATOM     22  C   UNL     1      -1.866  14.925  24.674  0.00  0.00    +0.000 A 
ATOM     23  C   UNL     1      -1.526  15.501  25.888  0.00  0.00    +0.000 A 
ATOM     24  C   UNL     1      -0.525  16.464  25.931  0.00  0.00    +0.000 A 
ATOM     25  C   UNL     1       0.155  16.861  24.767  0.00  0.00    +0.000 A 
ATOM     26  C   UNL     1      -0.189  16.282  23.517  0.00  0.00    +0.000 A 
BRANCH  25  27
ATOM     27  O   UNL     1       1.110  17.846  24.818  0.00  0.00    +0.000 OA
ATOM     28  C   UNL     1       2.342  17.536  25.463  0.00  0.00    +0.000 C 
ENDBRANCH  25  27
BRANCH  26  29
ATOM     29  O   UNL     1       0.368  16.582  22.295  0.00  0.00    +0.000 OA
ATOM     30  C   UNL     1       1.642  16.037  21.964  0.00  0.00    +0.000 C 
ENDBRANCH  26  29
ENDBRANCH  20  21
ENDBRANCH  18  19
BRANCH   1  31
ATOM     31  C   UNL     1       1.634   9.841  18.022  0.00  0.00    +0.000 C 
BRANCH  31  33
ATOM     32  C   UNL     1       2.622   7.533  18.217  0.00  0.00    +0.000 C 
ATOM     33  C   UNL     1       1.875   8.532  18.715  0.00  0.00    +0.000 C 
ENDBRANCH  31  33
ENDBRANCH   1  31
TORSDOF 6
ENDMDL
MODEL 9
REMARK VINA RESULT:      -6.2      3.135      8.076
REMARK  Name = 
REMARK  8 active torsions:
REMARK  status: ('A' for Active; 'I' for Inactive)
REMARK    1  A    between atoms: C_2  and  C_3
REMARK    2  A    between atoms: C_3  and  N_4
REMARK    3  A    between atoms: N_21  and  N_22
REMARK    4  A    between atoms: C_23  and  C_24
REMARK    5  A    between atoms: C_28  and  O_29
REMARK    6  A    between atoms: O_29  and  C_30
REMARK    7  A    between atoms: C_31  and  O_32
REMARK    8  A    between atoms: O_32  and  C_33
REMARK                            x       y       z     vdW  Elec       q    Type
REMARK                         _______ _______ _______ _____ _____    ______ ____
ROOT
ATOM      1  N   UNL     1       1.369  10.233  18.539  0.00  0.00    +0.000 N 
ATOM      2  C   UNL     1       0.182   9.679  19.008  0.00  0.00    +0.000 A 
ATOM      3  N   UNL     1      -0.805  10.327  19.540  0.00  0.00    +0.000 NA
ATOM      4  C   UNL     1      -0.592  11.668  19.648  0.00  0.00    +0.000 A 
ATOM      5  C   UNL     1       0.543  12.344  19.249  0.00  0.00    +0.000 A 
ATOM      6  C   UNL     1       1.607  11.611  18.600  0.00  0.00    +0.000 A 
ATOM      7  O   UNL     1       2.601  12.151  18.126  0.00  0.00    +0.000 OA
ATOM      8  C   UNL     1       0.393  13.685  19.630  0.00  0.00    +0.000 A 
ATOM      9  N   UNL     1       1.247  14.736  19.531  0.00  0.00    +0.000 NA
ATOM     10  C   UNL     1       0.803  15.879  20.075  0.00  0.00    +0.000 A 
ATOM     11  C   UNL     1       1.613  17.006  19.997  0.00  0.00    +0.000 A 
ATOM     12  C   UNL     1       1.215  18.229  20.535  0.00  0.00    +0.000 A 
ATOM     13  C   UNL     1      -0.009  18.326  21.181  0.00  0.00    +0.000 A 
ATOM     14  C   UNL     1      -0.829  17.200  21.272  0.00  0.00    +0.000 A 
ATOM     15  C   UNL     1      -0.457  15.982  20.718  0.00  0.00    +0.000 A 
ATOM     16  N   UNL     1      -1.318  14.957  20.808  0.00  0.00    +0.000 NA
ATOM     17  C   UNL     1      -0.857  13.819  20.233  0.00  0.00    +0.000 A 
ATOM     18  N   UNL     1      -1.505  12.587  20.170  0.00  0.00    +0.000 N 
ENDROOT
BRANCH  18  19
ATOM     19  N   UNL     1      -2.728  12.231  20.673  0.00  0.00    +0.000 NA
ATOM     20  C   UNL     1      -3.785  12.860  20.246  0.00  0.00    +0.000 C 
BRANCH  20  21
ATOM     21  C   UNL     1      -5.092  12.621  20.919  0.00  0.00    +0.000 A 
ATOM     22  C   UNL     1      -6.042  11.925  20.156  0.00  0.00    +0.000 A 
ATOM     23  C   UNL     1      -7.283  11.609  20.686  0.00  0.00    +0.000 A 
ATOM     24  C   UNL     1      -7.585  11.986  21.990  0.00  0.00    +0.000 A 
ATOM     25  C   UNL     1      -6.654  12.678  22.782  0.00  0.00    +0.000 A 
ATOM     26  C   UNL     1      -5.382  13.013  22.247  0.00  0.00    +0.000 A 
BRANCH  25  27
ATOM     27  O   UNL     1      -6.984  13.085  24.052  0.00  0.00    +0.000 OA
ATOM     28  C   UNL     1      -7.917  14.154  24.179  0.00  0.00    +0.000 C 
ENDBRANCH  25  27
BRANCH  26  29
ATOM     29  O   UNL     1      -4.380  13.703  22.890  0.00  0.00    +0.000 OA
ATOM     30  C   UNL     1      -3.674  13.067  23.951  0.00  0.00    +0.000 C 
ENDBRANCH  26  29
ENDBRANCH  20  21
ENDBRANCH  18  19
BRANCH   1  31
ATOM     31  C   UNL     1       2.318   9.388  17.832  0.00  0.00    +0.000 C 
BRANCH  31  33
ATOM     32  C   UNL     1       3.079   6.993  18.002  0.00  0.00    +0.000 C 
ATOM     33  C   UNL     1       2.183   7.958  18.269  0.00  0.00    +0.000 C 
ENDBRANCH  31  33
ENDBRANCH   1  31
TORSDOF 6
ENDMDL
