MODEL 1
REMARK VINA RESULT:      -7.4      0.000      0.000
REMARK  Name = 
REMARK  2 active torsions:
REMARK  status: ('A' for Active; 'I' for Inactive)
REMARK    1  A    between atoms: C_7  and  C_8
REMARK    2  A    between atoms: C_13  and  O_14
REMARK                            x       y       z     vdW  Elec       q    Type
REMARK                         _______ _______ _______ _____ _____    ______ ____
ROOT
ATOM      1  O   UNL     1       7.788   4.847  15.619  0.00  0.00    +0.000 OA
ATOM      2  C   UNL     1       6.785   4.631  16.277  0.00  0.00    +0.000 C 
ATOM      3  N   UNL     1       6.737   4.475  17.622  0.00  0.00    +0.000 N 
ATOM      4  C   UNL     1       5.544   4.142  18.191  0.00  0.00    +0.000 C 
ATOM      5  O   UNL     1       5.425   3.870  19.376  0.00  0.00    +0.000 OA
ATOM      6  C   UNL     1       4.475   4.126  17.149  0.00  0.00    +0.000 C 
ATOM      7  C   UNL     1       3.163   3.921  17.325  0.00  0.00    +0.000 C 
ATOM      8  S   UNL     1       5.181   4.444  15.599  0.00  0.00    +0.000 S 
ATOM      9  H   UNL     1       7.576   4.507  18.175  0.00  0.00    +0.000 HD
ENDROOT
BRANCH   7  10
ATOM     10  C   UNL     1       2.556   3.703  18.639  0.00  0.00    +0.000 A 
ATOM     11  C   UNL     1       2.074   4.798  19.365  0.00  0.00    +0.000 A 
ATOM     12  C   UNL     1       1.386   4.597  20.562  0.00  0.00    +0.000 A 
ATOM     13  C   UNL     1       1.185   3.304  21.045  0.00  0.00    +0.000 A 
ATOM     14  C   UNL     1       1.685   2.207  20.343  0.00  0.00    +0.000 A 
ATOM     15  C   UNL     1       2.368   2.409  19.144  0.00  0.00    +0.000 A 
BRANCH  15  16
ATOM     16  O   UNL     1       2.846   1.340  18.435  0.00  0.00    +0.000 OA
ATOM     17  H   UNL     1       3.550   1.654  17.845  0.00  0.00    +0.000 HD
ENDBRANCH  15  16
ENDBRANCH   7  10
TORSDOF 2
ENDMDL
MODEL 2
REMARK VINA RESULT:      -7.3      1.253      1.300
REMARK  Name = 
REMARK  2 active torsions:
REMARK  status: ('A' for Active; 'I' for Inactive)
REMARK    1  A    between atoms: C_7  and  C_8
REMARK    2  A    between atoms: C_13  and  O_14
REMARK                            x       y       z     vdW  Elec       q    Type
REMARK                         _______ _______ _______ _____ _____    ______ ____
ROOT
ATOM      1  O   UNL     1       7.458   5.965  15.545  0.00  0.00    +0.000 OA
ATOM      2  C   UNL     1       6.602   5.476  16.261  0.00  0.00    +0.000 C 
ATOM      3  N   UNL     1       6.220   5.943  17.474  0.00  0.00    +0.000 N 
ATOM      4  C   UNL     1       5.312   5.220  18.188  0.00  0.00    +0.000 C 
ATOM      5  O   UNL     1       4.994   5.498  19.334  0.00  0.00    +0.000 OA
ATOM      6  C   UNL     1       4.839   4.061  17.375  0.00  0.00    +0.000 C 
ATOM      7  C   UNL     1       3.895   3.167  17.696  0.00  0.00    +0.000 C 
ATOM      8  S   UNL     1       5.698   4.027  15.870  0.00  0.00    +0.000 S 
ATOM      9  H   UNL     1       6.666   6.748  17.880  0.00  0.00    +0.000 HD
ENDROOT
BRANCH   7  10
ATOM     10  C   UNL     1       3.131   3.222  18.944  0.00  0.00    +0.000 A 
ATOM     11  C   UNL     1       1.872   3.832  18.953  0.00  0.00    +0.000 A 
ATOM     12  C   UNL     1       1.080   3.788  20.101  0.00  0.00    +0.000 A 
ATOM     13  C   UNL     1       1.546   3.143  21.247  0.00  0.00    +0.000 A 
ATOM     14  C   UNL     1       2.811   2.555  21.257  0.00  0.00    +0.000 A 
ATOM     15  C   UNL     1       3.598   2.596  20.107  0.00  0.00    +0.000 A 
BRANCH  15  16
ATOM     16  O   UNL     1       4.833   2.004  20.097  0.00  0.00    +0.000 OA
ATOM     17  H   UNL     1       5.090   1.817  21.014  0.00  0.00    +0.000 HD
ENDBRANCH  15  16
ENDBRANCH   7  10
TORSDOF 2
ENDMDL
MODEL 3
REMARK VINA RESULT:      -7.3      1.105      1.876
REMARK  Name = 
REMARK  2 active torsions:
REMARK  status: ('A' for Active; 'I' for Inactive)
REMARK    1  A    between atoms: C_7  and  C_8
REMARK    2  A    between atoms: C_13  and  O_14
REMARK                            x       y       z     vdW  Elec       q    Type
REMARK                         _______ _______ _______ _____ _____    ______ ____
ROOT
ATOM      1  O   UNL     1       7.890   4.763  16.020  0.00  0.00    +0.000 OA
ATOM      2  C   UNL     1       6.832   4.667  16.618  0.00  0.00    +0.000 C 
ATOM      3  N   UNL     1       6.650   4.062  17.816  0.00  0.00    +0.000 N 
ATOM      4  C   UNL     1       5.381   3.960  18.302  0.00  0.00    +0.000 C 
ATOM      5  O   UNL     1       5.105   3.334  19.313  0.00  0.00    +0.000 OA
ATOM      6  C   UNL     1       4.435   4.675  17.395  0.00  0.00    +0.000 C 
ATOM      7  C   UNL     1       3.120   4.864  17.568  0.00  0.00    +0.000 C 
ATOM      8  S   UNL     1       5.303   5.278  16.022  0.00  0.00    +0.000 S 
ATOM      9  H   UNL     1       7.416   3.614  18.289  0.00  0.00    +0.000 HD
ENDROOT
BRANCH   7  10
ATOM     10  C   UNL     1       2.393   4.400  18.751  0.00  0.00    +0.000 A 
ATOM     11  C   UNL     1       1.715   3.177  18.706  0.00  0.00    +0.000 A 
ATOM     12  C   UNL     1       1.119   2.664  19.859  0.00  0.00    +0.000 A 
ATOM     13  C   UNL     1       1.189   3.373  21.058  0.00  0.00    +0.000 A 
ATOM     14  C   UNL     1       1.840   4.606  21.107  0.00  0.00    +0.000 A 
ATOM     15  C   UNL     1       2.439   5.114  19.956  0.00  0.00    +0.000 A 
BRANCH  15  16
ATOM     16  O   UNL     1       3.099   6.314  19.995  0.00  0.00    +0.000 OA
ATOM     17  H   UNL     1       2.566   6.940  20.511  0.00  0.00    +0.000 HD
ENDBRANCH  15  16
ENDBRANCH   7  10
TORSDOF 2
ENDMDL
MODEL 4
REMARK VINA RESULT:      -7.1      1.395      1.423
REMARK  Name = 
REMARK  2 active torsions:
REMARK  status: ('A' for Active; 'I' for Inactive)
REMARK    1  A    between atoms: C_7  and  C_8
REMARK    2  A    between atoms: C_13  and  O_14
REMARK                            x       y       z     vdW  Elec       q    Type
REMARK                         _______ _______ _______ _____ _____    ______ ____
ROOT
ATOM      1  O   UNL     1       7.749   6.733  16.592  0.00  0.00    +0.000 OA
ATOM      2  C   UNL     1       6.740   6.257  17.082  0.00  0.00    +0.000 C 
ATOM      3  N   UNL     1       6.698   5.271  18.011  0.00  0.00    +0.000 N 
ATOM      4  C   UNL     1       5.480   4.787  18.385  0.00  0.00    +0.000 C 
ATOM      5  O   UNL     1       5.346   3.826  19.126  0.00  0.00    +0.000 OA
ATOM      6  C   UNL     1       4.400   5.574  17.720  0.00  0.00    +0.000 C 
ATOM      7  C   UNL     1       3.077   5.454  17.891  0.00  0.00    +0.000 C 
ATOM      8  S   UNL     1       5.112   6.740  16.655  0.00  0.00    +0.000 S 
ATOM      9  H   UNL     1       7.544   4.840  18.344  0.00  0.00    +0.000 HD
ENDROOT
BRANCH   7  10
ATOM     10  C   UNL     1       2.473   4.505  18.829  0.00  0.00    +0.000 A 
ATOM     11  C   UNL     1       2.279   4.884  20.162  0.00  0.00    +0.000 A 
ATOM     12  C   UNL     1       1.597   4.039  21.038  0.00  0.00    +0.000 A 
ATOM     13  C   UNL     1       1.115   2.808  20.591  0.00  0.00    +0.000 A 
ATOM     14  C   UNL     1       1.328   2.409  19.270  0.00  0.00    +0.000 A 
ATOM     15  C   UNL     1       2.004   3.258  18.395  0.00  0.00    +0.000 A 
BRANCH  15  16
ATOM     16  O   UNL     1       2.201   2.887  17.091  0.00  0.00    +0.000 OA
ATOM     17  H   UNL     1       2.969   3.372  16.748  0.00  0.00    +0.000 HD
ENDBRANCH  15  16
ENDBRANCH   7  10
TORSDOF 2
ENDMDL
MODEL 5
REMARK VINA RESULT:      -7.1      1.515      1.606
REMARK  Name = 
REMARK  2 active torsions:
REMARK  status: ('A' for Active; 'I' for Inactive)
REMARK    1  A    between atoms: C_7  and  C_8
REMARK    2  A    between atoms: C_13  and  O_14
REMARK                            x       y       z     vdW  Elec       q    Type
REMARK                         _______ _______ _______ _____ _____    ______ ____
ROOT
ATOM      1  O   UNL     1       7.302   5.268  15.013  0.00  0.00    +0.000 OA
ATOM      2  C   UNL     1       6.387   5.122  15.804  0.00  0.00    +0.000 C 
ATOM      3  N   UNL     1       6.137   4.006  16.532  0.00  0.00    +0.000 N 
ATOM      4  C   UNL     1       5.012   3.975  17.301  0.00  0.00    +0.000 C 
ATOM      5  O   UNL     1       4.644   2.976  17.900  0.00  0.00    +0.000 OA
ATOM      6  C   UNL     1       4.326   5.299  17.244  0.00  0.00    +0.000 C 
ATOM      7  C   UNL     1       3.237   5.686  17.921  0.00  0.00    +0.000 C 
ATOM      8  S   UNL     1       5.172   6.337  16.144  0.00  0.00    +0.000 S 
ATOM      9  H   UNL     1       6.711   3.187  16.432  0.00  0.00    +0.000 HD
ENDROOT
BRANCH   7  10
ATOM     10  C   UNL     1       2.549   4.830  18.889  0.00  0.00    +0.000 A 
ATOM     11  C   UNL     1       2.910   4.891  20.240  0.00  0.00    +0.000 A 
ATOM     12  C   UNL     1       2.186   4.172  21.192  0.00  0.00    +0.000 A 
ATOM     13  C   UNL     1       1.106   3.382  20.799  0.00  0.00    +0.000 A 
ATOM     14  C   UNL     1       0.755   3.292  19.451  0.00  0.00    +0.000 A 
ATOM     15  C   UNL     1       1.477   4.016  18.503  0.00  0.00    +0.000 A 
BRANCH  15  16
ATOM     16  O   UNL     1       1.130   3.953  17.179  0.00  0.00    +0.000 OA
ATOM     17  H   UNL     1       0.638   4.759  16.953  0.00  0.00    +0.000 HD
ENDBRANCH  15  16
ENDBRANCH   7  10
TORSDOF 2
ENDMDL
MODEL 6
REMARK VINA RESULT:      -7.1      1.448      1.701
REMARK  Name = 
REMARK  2 active torsions:
REMARK  status: ('A' for Active; 'I' for Inactive)
REMARK    1  A    between atoms: C_7  and  C_8
REMARK    2  A    between atoms: C_13  and  O_14
REMARK                            x       y       z     vdW  Elec       q    Type
REMARK                         _______ _______ _______ _____ _____    ______ ____
ROOT
ATOM      1  O   UNL     1       7.435   6.200  15.991  0.00  0.00    +0.000 OA
ATOM      2  C   UNL     1       6.544   5.635  16.601  0.00  0.00    +0.000 C 
ATOM      3  N   UNL     1       5.973   6.066  17.752  0.00  0.00    +0.000 N 
ATOM      4  C   UNL     1       5.052   5.263  18.356  0.00  0.00    +0.000 C 
ATOM      5  O   UNL     1       4.569   5.511  19.449  0.00  0.00    +0.000 OA
ATOM      6  C   UNL     1       4.790   4.066  17.503  0.00  0.00    +0.000 C 
ATOM      7  C   UNL     1       3.899   3.089  17.715  0.00  0.00    +0.000 C 
ATOM      8  S   UNL     1       5.831   4.110  16.118  0.00  0.00    +0.000 S 
ATOM      9  H   UNL     1       6.290   6.908  18.200  0.00  0.00    +0.000 HD
ENDROOT
BRANCH   7  10
ATOM     10  C   UNL     1       2.983   3.075  18.857  0.00  0.00    +0.000 A 
ATOM     11  C   UNL     1       3.428   2.583  20.089  0.00  0.00    +0.000 A 
ATOM     12  C   UNL     1       2.610   2.672  21.216  0.00  0.00    +0.000 A 
ATOM     13  C   UNL     1       1.341   3.244  21.116  0.00  0.00    +0.000 A 
ATOM     14  C   UNL     1       0.877   3.711  19.886  0.00  0.00    +0.000 A 
ATOM     15  C   UNL     1       1.699   3.626  18.763  0.00  0.00    +0.000 A 
BRANCH  15  16
ATOM     16  O   UNL     1       1.264   4.101  17.554  0.00  0.00    +0.000 OA
ATOM     17  H   UNL     1       0.305   4.248  17.610  0.00  0.00    +0.000 HD
ENDBRANCH  15  16
ENDBRANCH   7  10
TORSDOF 2
ENDMDL
MODEL 7
REMARK VINA RESULT:      -6.9      1.023      1.023
REMARK  Name = 
REMARK  2 active torsions:
REMARK  status: ('A' for Active; 'I' for Inactive)
REMARK    1  A    between atoms: C_7  and  C_8
REMARK    2  A    between atoms: C_13  and  O_14
REMARK                            x       y       z     vdW  Elec       q    Type
REMARK                         _______ _______ _______ _____ _____    ______ ____
ROOT
ATOM      1  O   UNL     1       7.916   5.251  14.634  0.00  0.00    +0.000 OA
ATOM      2  C   UNL     1       7.056   5.003  15.461  0.00  0.00    +0.000 C 
ATOM      3  N   UNL     1       7.214   5.040  16.806  0.00  0.00    +0.000 N 
ATOM      4  C   UNL     1       6.173   4.641  17.590  0.00  0.00    +0.000 C 
ATOM      5  O   UNL     1       6.259   4.531  18.803  0.00  0.00    +0.000 OA
ATOM      6  C   UNL     1       4.988   4.334  16.736  0.00  0.00    +0.000 C 
ATOM      7  C   UNL     1       3.758   3.987  17.137  0.00  0.00    +0.000 C 
ATOM      8  S   UNL     1       5.422   4.512  15.067  0.00  0.00    +0.000 S 
ATOM      9  H   UNL     1       8.106   5.262  17.214  0.00  0.00    +0.000 HD
ENDROOT
BRANCH   7  10
ATOM     10  C   UNL     1       3.374   3.885  18.546  0.00  0.00    +0.000 A 
ATOM     11  C   UNL     1       2.798   4.989  19.184  0.00  0.00    +0.000 A 
ATOM     12  C   UNL     1       2.317   4.873  20.488  0.00  0.00    +0.000 A 
ATOM     13  C   UNL     1       2.418   3.657  21.165  0.00  0.00    +0.000 A 
ATOM     14  C   UNL     1       3.016   2.557  20.548  0.00  0.00    +0.000 A 
ATOM     15  C   UNL     1       3.490   2.675  19.243  0.00  0.00    +0.000 A 
BRANCH  15  16
ATOM     16  O   UNL     1       4.060   1.597  18.618  0.00  0.00    +0.000 OA
ATOM     17  H   UNL     1       3.682   0.788  18.998  0.00  0.00    +0.000 HD
ENDBRANCH  15  16
ENDBRANCH   7  10
TORSDOF 2
ENDMDL
MODEL 8
REMARK VINA RESULT:      -6.9      2.757      5.563
REMARK  Name = 
REMARK  2 active torsions:
REMARK  status: ('A' for Active; 'I' for Inactive)
REMARK    1  A    between atoms: C_7  and  C_8
REMARK    2  A    between atoms: C_13  and  O_14
REMARK                            x       y       z     vdW  Elec       q    Type
REMARK                         _______ _______ _______ _____ _____    ______ ____
ROOT
ATOM      1  O   UNL     1       1.232   2.689  22.341  0.00  0.00    +0.000 OA
ATOM      2  C   UNL     1       2.015   3.062  21.485  0.00  0.00    +0.000 C 
ATOM      3  N   UNL     1       2.976   2.303  20.904  0.00  0.00    +0.000 N 
ATOM      4  C   UNL     1       3.832   2.904  20.029  0.00  0.00    +0.000 C 
ATOM      5  O   UNL     1       4.796   2.333  19.545  0.00  0.00    +0.000 OA
ATOM      6  C   UNL     1       3.424   4.324  19.819  0.00  0.00    +0.000 C 
ATOM      7  C   UNL     1       3.965   5.216  18.979  0.00  0.00    +0.000 C 
ATOM      8  S   UNL     1       2.074   4.690  20.843  0.00  0.00    +0.000 S 
ATOM      9  H   UNL     1       3.117   1.348  21.183  0.00  0.00    +0.000 HD
ENDROOT
BRANCH   7  10
ATOM     10  C   UNL     1       5.071   4.896  18.076  0.00  0.00    +0.000 A 
ATOM     11  C   UNL     1       4.798   4.551  16.747  0.00  0.00    +0.000 A 
ATOM     12  C   UNL     1       5.843   4.361  15.843  0.00  0.00    +0.000 A 
ATOM     13  C   UNL     1       7.166   4.503  16.263  0.00  0.00    +0.000 A 
ATOM     14  C   UNL     1       7.451   4.819  17.592  0.00  0.00    +0.000 A 
ATOM     15  C   UNL     1       6.404   5.015  18.492  0.00  0.00    +0.000 A 
BRANCH  15  16
ATOM     16  O   UNL     1       6.669   5.346  19.795  0.00  0.00    +0.000 OA
ATOM     17  H   UNL     1       5.993   5.976  20.094  0.00  0.00    +0.000 HD
ENDBRANCH  15  16
ENDBRANCH   7  10
TORSDOF 2
ENDMDL
MODEL 9
REMARK VINA RESULT:      -6.9      1.634      1.918
REMARK  Name = 
REMARK  2 active torsions:
REMARK  status: ('A' for Active; 'I' for Inactive)
REMARK    1  A    between atoms: C_7  and  C_8
REMARK    2  A    between atoms: C_13  and  O_14
REMARK                            x       y       z     vdW  Elec       q    Type
REMARK                         _______ _______ _______ _____ _____    ______ ____
ROOT
ATOM      1  O   UNL     1       7.592   5.238  14.771  0.00  0.00    +0.000 OA
ATOM      2  C   UNL     1       6.835   5.039  15.704  0.00  0.00    +0.000 C 
ATOM      3  N   UNL     1       5.628   4.427  15.630  0.00  0.00    +0.000 N 
ATOM      4  C   UNL     1       4.862   4.370  16.757  0.00  0.00    +0.000 C 
ATOM      5  O   UNL     1       3.719   3.943  16.762  0.00  0.00    +0.000 OA
ATOM      6  C   UNL     1       5.620   4.938  17.911  0.00  0.00    +0.000 C 
ATOM      7  C   UNL     1       5.240   4.989  19.194  0.00  0.00    +0.000 C 
ATOM      8  S   UNL     1       7.148   5.539  17.354  0.00  0.00    +0.000 S 
ATOM      9  H   UNL     1       5.264   4.111  14.748  0.00  0.00    +0.000 HD
ENDROOT
BRANCH   7  10
ATOM     10  C   UNL     1       3.974   4.436  19.676  0.00  0.00    +0.000 A 
ATOM     11  C   UNL     1       2.860   5.275  19.801  0.00  0.00    +0.000 A 
ATOM     12  C   UNL     1       1.617   4.742  20.144  0.00  0.00    +0.000 A 
ATOM     13  C   UNL     1       1.481   3.373  20.373  0.00  0.00    +0.000 A 
ATOM     14  C   UNL     1       2.591   2.532  20.279  0.00  0.00    +0.000 A 
ATOM     15  C   UNL     1       3.831   3.066  19.930  0.00  0.00    +0.000 A 
BRANCH  15  16
ATOM     16  O   UNL     1       4.924   2.248  19.813  0.00  0.00    +0.000 OA
ATOM     17  H   UNL     1       4.624   1.377  19.507  0.00  0.00    +0.000 HD
ENDBRANCH  15  16
ENDBRANCH   7  10
TORSDOF 2
ENDMDL
