MODEL 1
REMARK VINA RESULT:      -8.0      0.000      0.000
REMARK  Name = 
REMARK  5 active torsions:
REMARK  status: ('A' for Active; 'I' for Inactive)
REMARK    1  A    between atoms: C_1  and  C_2
REMARK    2  A    between atoms: C_5  and  N_6
REMARK    3  A    between atoms: C_9  and  C_10
REMARK    4  A    between atoms: C_10  and  S_11
REMARK    5  A    between atoms: S_11  and  C_12
REMARK                            x       y       z     vdW  Elec       q    Type
REMARK                         _______ _______ _______ _____ _____    ______ ____
ROOT
ATOM      1  N   UNL     1       2.760   6.003  19.541  0.00  0.00    +0.000 N 
ATOM      2  C   UNL     1       3.378   5.242  18.603  0.00  0.00    +0.000 A 
ATOM      3  N   UNL     1       3.895   5.655  17.469  0.00  0.00    +0.000 NA
ATOM      4  C   UNL     1       4.426   4.615  16.725  0.00  0.00    +0.000 A 
ATOM      5  C   UNL     1       4.241   3.372  17.294  0.00  0.00    +0.000 A 
ATOM      6  S   UNL     1       3.494   3.532  18.831  0.00  0.00    +0.000 S 
ATOM      7  H   UNL     1       2.396   5.518  20.350  0.00  0.00    +0.000 HD
ENDROOT
BRANCH   1  12
ATOM      8  C   UNL     1       0.243  11.111  18.799  0.00  0.00    +0.000 C 
ATOM      9  C   UNL     1       0.944   9.803  19.012  0.00  0.00    +0.000 A 
ATOM     10  C   UNL     1       0.969   9.180  20.262  0.00  0.00    +0.000 A 
ATOM     11  C   UNL     1       1.606   7.942  20.426  0.00  0.00    +0.000 A 
ATOM     12  C   UNL     1       2.223   7.293  19.346  0.00  0.00    +0.000 A 
ATOM     13  C   UNL     1       2.223   7.953  18.111  0.00  0.00    +0.000 A 
ATOM     14  C   UNL     1       1.587   9.185  17.940  0.00  0.00    +0.000 A 
ENDBRANCH   1  12
BRANCH   4  15
ATOM     15  C   UNL     1       5.094   4.940  15.422  0.00  0.00    +0.000 C 
BRANCH  15  16
ATOM     16  S   UNL     1       6.851   4.493  15.494  0.00  0.00    +0.000 S 
BRANCH  16  17
ATOM     17  C   UNL     1       7.339   5.261  16.974  0.00  0.00    +0.000 A 
ATOM     18  N   UNL     1       7.441   6.592  17.039  0.00  0.00    +0.000 NA
ATOM     19  N   UNL     1       7.812   6.766  18.315  0.00  0.00    +0.000 N 
ATOM     20  C   UNL     1       7.928   5.572  18.965  0.00  0.00    +0.000 A 
ATOM     21  N   UNL     1       8.295   5.486  20.254  0.00  0.00    +0.000 N 
ATOM     22  N   UNL     1       7.628   4.599  18.140  0.00  0.00    +0.000 NA
ATOM     23  H   UNL     1       7.955   7.701  18.673  0.00  0.00    +0.000 HD
ATOM     24  H   UNL     1       8.810   6.227  20.716  0.00  0.00    +0.000 HD
ATOM     25  H   UNL     1       8.525   4.560  20.599  0.00  0.00    +0.000 HD
ENDBRANCH  16  17
ENDBRANCH  15  16
ENDBRANCH   4  15
TORSDOF 4
ENDMDL
MODEL 2
REMARK VINA RESULT:      -7.8      0.207      1.066
REMARK  Name = 
REMARK  5 active torsions:
REMARK  status: ('A' for Active; 'I' for Inactive)
REMARK    1  A    between atoms: C_1  and  C_2
REMARK    2  A    between atoms: C_5  and  N_6
REMARK    3  A    between atoms: C_9  and  C_10
REMARK    4  A    between atoms: C_10  and  S_11
REMARK    5  A    between atoms: S_11  and  C_12
REMARK                            x       y       z     vdW  Elec       q    Type
REMARK                         _______ _______ _______ _____ _____    ______ ____
ROOT
ATOM      1  N   UNL     1       2.818   5.812  19.592  0.00  0.00    +0.000 N 
ATOM      2  C   UNL     1       3.436   5.074  18.637  0.00  0.00    +0.000 A 
ATOM      3  N   UNL     1       3.910   5.506  17.491  0.00  0.00    +0.000 NA
ATOM      4  C   UNL     1       4.456   4.487  16.730  0.00  0.00    +0.000 A 
ATOM      5  C   UNL     1       4.327   3.237  17.300  0.00  0.00    +0.000 A 
ATOM      6  S   UNL     1       3.615   3.368  18.856  0.00  0.00    +0.000 S 
ATOM      7  H   UNL     1       2.490   5.313  20.408  0.00  0.00    +0.000 HD
ENDROOT
BRANCH   1  12
ATOM      8  C   UNL     1       0.771  11.118  18.802  0.00  0.00    +0.000 C 
ATOM      9  C   UNL     1       1.258   9.713  18.991  0.00  0.00    +0.000 A 
ATOM     10  C   UNL     1       1.757   8.961  17.925  0.00  0.00    +0.000 A 
ATOM     11  C   UNL     1       2.234   7.660  18.136  0.00  0.00    +0.000 A 
ATOM     12  C   UNL     1       2.233   7.084  19.415  0.00  0.00    +0.000 A 
ATOM     13  C   UNL     1       1.690   7.837  20.463  0.00  0.00    +0.000 A 
ATOM     14  C   UNL     1       1.217   9.136  20.260  0.00  0.00    +0.000 A 
ENDBRANCH   1  12
BRANCH   4  15
ATOM     15  C   UNL     1       5.080   4.837  15.412  0.00  0.00    +0.000 C 
BRANCH  15  16
ATOM     16  S   UNL     1       6.859   4.482  15.450  0.00  0.00    +0.000 S 
BRANCH  16  17
ATOM     17  C   UNL     1       7.331   5.263  16.928  0.00  0.00    +0.000 A 
ATOM     18  N   UNL     1       7.423   6.595  16.986  0.00  0.00    +0.000 NA
ATOM     19  N   UNL     1       7.784   6.780  18.263  0.00  0.00    +0.000 N 
ATOM     20  C   UNL     1       7.904   5.591  18.921  0.00  0.00    +0.000 A 
ATOM     21  N   UNL     1       8.263   5.516  20.213  0.00  0.00    +0.000 N 
ATOM     22  N   UNL     1       7.616   4.611  18.100  0.00  0.00    +0.000 NA
ATOM     23  H   UNL     1       7.918   7.719  18.615  0.00  0.00    +0.000 HD
ATOM     24  H   UNL     1       8.769   6.264  20.674  0.00  0.00    +0.000 HD
ATOM     25  H   UNL     1       8.497   4.594  20.565  0.00  0.00    +0.000 HD
ENDBRANCH  16  17
ENDBRANCH  15  16
ENDBRANCH   4  15
TORSDOF 4
ENDMDL
MODEL 3
REMARK VINA RESULT:      -7.7      1.764      2.588
REMARK  Name = 
REMARK  5 active torsions:
REMARK  status: ('A' for Active; 'I' for Inactive)
REMARK    1  A    between atoms: C_1  and  C_2
REMARK    2  A    between atoms: C_5  and  N_6
REMARK    3  A    between atoms: C_9  and  C_10
REMARK    4  A    between atoms: C_10  and  S_11
REMARK    5  A    between atoms: S_11  and  C_12
REMARK                            x       y       z     vdW  Elec       q    Type
REMARK                         _______ _______ _______ _____ _____    ______ ____
ROOT
ATOM      1  N   UNL     1       2.383   5.889  19.426  0.00  0.00    +0.000 N 
ATOM      2  C   UNL     1       3.607   5.321  19.292  0.00  0.00    +0.000 A 
ATOM      3  N   UNL     1       4.768   5.932  19.337  0.00  0.00    +0.000 NA
ATOM      4  C   UNL     1       5.827   5.063  19.135  0.00  0.00    +0.000 A 
ATOM      5  C   UNL     1       5.440   3.767  18.863  0.00  0.00    +0.000 A 
ATOM      6  S   UNL     1       3.733   3.625  18.979  0.00  0.00    +0.000 S 
ATOM      7  H   UNL     1       1.586   5.274  19.340  0.00  0.00    +0.000 HD
ENDROOT
BRANCH   1  12
ATOM      8  C   UNL     1       0.790  11.376  18.852  0.00  0.00    +0.000 C 
ATOM      9  C   UNL     1       1.253   9.961  19.022  0.00  0.00    +0.000 A 
ATOM     10  C   UNL     1       1.159   9.302  20.250  0.00  0.00    +0.000 A 
ATOM     11  C   UNL     1       1.572   7.968  20.373  0.00  0.00    +0.000 A 
ATOM     12  C   UNL     1       2.078   7.259  19.274  0.00  0.00    +0.000 A 
ATOM     13  C   UNL     1       2.204   7.949  18.062  0.00  0.00    +0.000 A 
ATOM     14  C   UNL     1       1.791   9.277  17.932  0.00  0.00    +0.000 A 
ENDBRANCH   1  12
BRANCH   4  15
ATOM     15  C   UNL     1       7.222   5.611  19.204  0.00  0.00    +0.000 C 
BRANCH  15  16
ATOM     16  S   UNL     1       7.468   6.856  17.907  0.00  0.00    +0.000 S 
BRANCH  16  17
ATOM     17  C   UNL     1       6.788   6.049  16.526  0.00  0.00    +0.000 A 
ATOM     18  N   UNL     1       5.705   6.548  15.922  0.00  0.00    +0.000 NA
ATOM     19  N   UNL     1       5.526   5.665  14.930  0.00  0.00    +0.000 N 
ATOM     20  C   UNL     1       6.472   4.683  14.964  0.00  0.00    +0.000 A 
ATOM     21  N   UNL     1       6.500   3.678  14.074  0.00  0.00    +0.000 N 
ATOM     22  N   UNL     1       7.290   4.905  15.964  0.00  0.00    +0.000 NA
ATOM     23  H   UNL     1       4.767   5.794  14.275  0.00  0.00    +0.000 HD
ATOM     24  H   UNL     1       5.676   3.400  13.552  0.00  0.00    +0.000 HD
ATOM     25  H   UNL     1       7.124   2.905  14.282  0.00  0.00    +0.000 HD
ENDBRANCH  16  17
ENDBRANCH  15  16
ENDBRANCH   4  15
TORSDOF 4
ENDMDL
MODEL 4
REMARK VINA RESULT:      -7.6      0.613      1.083
REMARK  Name = 
REMARK  5 active torsions:
REMARK  status: ('A' for Active; 'I' for Inactive)
REMARK    1  A    between atoms: C_1  and  C_2
REMARK    2  A    between atoms: C_5  and  N_6
REMARK    3  A    between atoms: C_9  and  C_10
REMARK    4  A    between atoms: C_10  and  S_11
REMARK    5  A    between atoms: S_11  and  C_12
REMARK                            x       y       z     vdW  Elec       q    Type
REMARK                         _______ _______ _______ _____ _____    ______ ____
ROOT
ATOM      1  N   UNL     1       2.737   6.175  19.962  0.00  0.00    +0.000 N 
ATOM      2  C   UNL     1       3.323   5.322  19.086  0.00  0.00    +0.000 A 
ATOM      3  N   UNL     1       3.781   5.613  17.890  0.00  0.00    +0.000 NA
ATOM      4  C   UNL     1       4.294   4.503  17.240  0.00  0.00    +0.000 A 
ATOM      5  C   UNL     1       4.155   3.328  17.951  0.00  0.00    +0.000 A 
ATOM      6  S   UNL     1       3.477   3.649  19.494  0.00  0.00    +0.000 S 
ATOM      7  H   UNL     1       2.417   5.779  20.836  0.00  0.00    +0.000 HD
ENDROOT
BRANCH   1  12
ATOM      8  C   UNL     1       0.104  11.132  18.749  0.00  0.00    +0.000 C 
ATOM      9  C   UNL     1       0.834   9.867  19.086  0.00  0.00    +0.000 A 
ATOM     10  C   UNL     1       0.824   9.336  20.378  0.00  0.00    +0.000 A 
ATOM     11  C   UNL     1       1.490   8.134  20.657  0.00  0.00    +0.000 A 
ATOM     12  C   UNL     1       2.171   7.430  19.653  0.00  0.00    +0.000 A 
ATOM     13  C   UNL     1       2.204   7.999  18.374  0.00  0.00    +0.000 A 
ATOM     14  C   UNL     1       1.540   9.194  18.088  0.00  0.00    +0.000 A 
ENDBRANCH   1  12
BRANCH   4  15
ATOM     15  C   UNL     1       4.897   4.689  15.880  0.00  0.00    +0.000 C 
BRANCH  15  16
ATOM     16  S   UNL     1       6.631   4.156  15.888  0.00  0.00    +0.000 S 
BRANCH  16  17
ATOM     17  C   UNL     1       7.265   5.076  17.219  0.00  0.00    +0.000 A 
ATOM     18  N   UNL     1       7.521   4.480  18.387  0.00  0.00    +0.000 NA
ATOM     19  N   UNL     1       7.997   5.504  19.108  0.00  0.00    +0.000 N 
ATOM     20  C   UNL     1       8.009   6.659  18.380  0.00  0.00    +0.000 A 
ATOM     21  N   UNL     1       8.438   7.825  18.888  0.00  0.00    +0.000 N 
ATOM     22  N   UNL     1       7.556   6.415  17.175  0.00  0.00    +0.000 NA
ATOM     23  H   UNL     1       8.298   5.350  20.061  0.00  0.00    +0.000 HD
ATOM     24  H   UNL     1       8.462   8.000  19.887  0.00  0.00    +0.000 HD
ATOM     25  H   UNL     1       8.245   8.657  18.338  0.00  0.00    +0.000 HD
ENDBRANCH  16  17
ENDBRANCH  15  16
ENDBRANCH   4  15
TORSDOF 4
ENDMDL
MODEL 5
REMARK VINA RESULT:      -7.6      2.070      2.862
REMARK  Name = 
REMARK  5 active torsions:
REMARK  status: ('A' for Active; 'I' for Inactive)
REMARK    1  A    between atoms: C_1  and  C_2
REMARK    2  A    between atoms: C_5  and  N_6
REMARK    3  A    between atoms: C_9  and  C_10
REMARK    4  A    between atoms: C_10  and  S_11
REMARK    5  A    between atoms: S_11  and  C_12
REMARK                            x       y       z     vdW  Elec       q    Type
REMARK                         _______ _______ _______ _____ _____    ______ ____
ROOT
ATOM      1  N   UNL     1       2.070   6.104  20.973  0.00  0.00    +0.000 N 
ATOM      2  C   UNL     1       2.609   5.034  20.335  0.00  0.00    +0.000 A 
ATOM      3  N   UNL     1       3.272   5.045  19.202  0.00  0.00    +0.000 NA
ATOM      4  C   UNL     1       3.663   3.776  18.810  0.00  0.00    +0.000 A 
ATOM      5  C   UNL     1       3.218   2.774  19.648  0.00  0.00    +0.000 A 
ATOM      6  S   UNL     1       2.402   3.451  20.997  0.00  0.00    +0.000 S 
ATOM      7  H   UNL     1       1.567   5.915  21.829  0.00  0.00    +0.000 HD
ENDROOT
BRANCH   1  12
ATOM      8  C   UNL     1       0.565  11.126  18.630  0.00  0.00    +0.000 C 
ATOM      9  C   UNL     1       1.000   9.840  19.266  0.00  0.00    +0.000 A 
ATOM     10  C   UNL     1       0.655   9.519  20.581  0.00  0.00    +0.000 A 
ATOM     11  C   UNL     1       1.049   8.296  21.140  0.00  0.00    +0.000 A 
ATOM     12  C   UNL     1       1.787   7.361  20.398  0.00  0.00    +0.000 A 
ATOM     13  C   UNL     1       2.159   7.719  19.097  0.00  0.00    +0.000 A 
ATOM     14  C   UNL     1       1.766   8.935  18.533  0.00  0.00    +0.000 A 
ENDBRANCH   1  12
BRANCH   4  15
ATOM     15  C   UNL     1       4.471   3.635  17.555  0.00  0.00    +0.000 C 
BRANCH  15  16
ATOM     16  S   UNL     1       5.990   4.620  17.677  0.00  0.00    +0.000 S 
BRANCH  16  17
ATOM     17  C   UNL     1       6.484   4.694  16.013  0.00  0.00    +0.000 A 
ATOM     18  N   UNL     1       7.406   5.579  15.624  0.00  0.00    +0.000 NA
ATOM     19  N   UNL     1       7.505   5.300  14.317  0.00  0.00    +0.000 N 
ATOM     20  C   UNL     1       6.660   4.290  13.961  0.00  0.00    +0.000 A 
ATOM     21  N   UNL     1       6.574   3.834  12.701  0.00  0.00    +0.000 N 
ATOM     22  N   UNL     1       6.004   3.881  15.019  0.00  0.00    +0.000 NA
ATOM     23  H   UNL     1       8.159   5.815  13.742  0.00  0.00    +0.000 HD
ATOM     24  H   UNL     1       6.858   4.396  11.905  0.00  0.00    +0.000 HD
ATOM     25  H   UNL     1       5.799   3.210  12.496  0.00  0.00    +0.000 HD
ENDBRANCH  16  17
ENDBRANCH  15  16
ENDBRANCH   4  15
TORSDOF 4
ENDMDL
MODEL 6
REMARK VINA RESULT:      -7.5      1.596      2.030
REMARK  Name = 
REMARK  5 active torsions:
REMARK  status: ('A' for Active; 'I' for Inactive)
REMARK    1  A    between atoms: C_1  and  C_2
REMARK    2  A    between atoms: C_5  and  N_6
REMARK    3  A    between atoms: C_9  and  C_10
REMARK    4  A    between atoms: C_10  and  S_11
REMARK    5  A    between atoms: S_11  and  C_12
REMARK                            x       y       z     vdW  Elec       q    Type
REMARK                         _______ _______ _______ _____ _____    ______ ____
ROOT
ATOM      1  N   UNL     1       2.282   5.890  20.460  0.00  0.00    +0.000 N 
ATOM      2  C   UNL     1       3.183   5.024  19.931  0.00  0.00    +0.000 A 
ATOM      3  N   UNL     1       4.188   5.319  19.139  0.00  0.00    +0.000 NA
ATOM      4  C   UNL     1       4.900   4.196  18.754  0.00  0.00    +0.000 A 
ATOM      5  C   UNL     1       4.368   3.012  19.222  0.00  0.00    +0.000 A 
ATOM      6  S   UNL     1       3.029   3.331  20.248  0.00  0.00    +0.000 S 
ATOM      7  H   UNL     1       1.552   5.490  21.033  0.00  0.00    +0.000 HD
ENDROOT
BRANCH   1  12
ATOM      8  C   UNL     1       0.811  11.118  18.595  0.00  0.00    +0.000 C 
ATOM      9  C   UNL     1       1.240   9.775  19.104  0.00  0.00    +0.000 A 
ATOM     10  C   UNL     1       0.998   9.378  20.421  0.00  0.00    +0.000 A 
ATOM     11  C   UNL     1       1.383   8.104  20.861  0.00  0.00    +0.000 A 
ATOM     12  C   UNL     1       2.008   7.194  19.996  0.00  0.00    +0.000 A 
ATOM     13  C   UNL     1       2.280   7.625  18.692  0.00  0.00    +0.000 A 
ATOM     14  C   UNL     1       1.895   8.891  18.246  0.00  0.00    +0.000 A 
ENDBRANCH   1  12
BRANCH   4  15
ATOM     15  C   UNL     1       6.107   4.381  17.883  0.00  0.00    +0.000 C 
BRANCH  15  16
ATOM     16  S   UNL     1       5.916   5.869  16.861  0.00  0.00    +0.000 S 
BRANCH  16  17
ATOM     17  C   UNL     1       7.054   6.946  17.612  0.00  0.00    +0.000 A 
ATOM     18  N   UNL     1       7.821   6.520  18.619  0.00  0.00    +0.000 NA
ATOM     19  N   UNL     1       8.542   7.617  18.886  0.00  0.00    +0.000 N 
ATOM     20  C   UNL     1       8.197   8.649  18.062  0.00  0.00    +0.000 A 
ATOM     21  N   UNL     1       8.777   9.857  18.140  0.00  0.00    +0.000 N 
ATOM     22  N   UNL     1       7.259   8.249  17.238  0.00  0.00    +0.000 NA
ATOM     23  H   UNL     1       9.242   7.592  19.615  0.00  0.00    +0.000 HD
ATOM     24  H   UNL     1       9.241  10.177  18.983  0.00  0.00    +0.000 HD
ATOM     25  H   UNL     1       8.337  10.606  17.614  0.00  0.00    +0.000 HD
ENDBRANCH  16  17
ENDBRANCH  15  16
ENDBRANCH   4  15
TORSDOF 4
ENDMDL
MODEL 7
REMARK VINA RESULT:      -7.4      0.800      1.467
REMARK  Name = 
REMARK  5 active torsions:
REMARK  status: ('A' for Active; 'I' for Inactive)
REMARK    1  A    between atoms: C_1  and  C_2
REMARK    2  A    between atoms: C_5  and  N_6
REMARK    3  A    between atoms: C_9  and  C_10
REMARK    4  A    between atoms: C_10  and  S_11
REMARK    5  A    between atoms: S_11  and  C_12
REMARK                            x       y       z     vdW  Elec       q    Type
REMARK                         _______ _______ _______ _____ _____    ______ ____
ROOT
ATOM      1  N   UNL     1       2.649   6.015  20.111  0.00  0.00    +0.000 N 
ATOM      2  C   UNL     1       3.163   5.127  19.223  0.00  0.00    +0.000 A 
ATOM      3  N   UNL     1       3.545   5.375  17.992  0.00  0.00    +0.000 NA
ATOM      4  C   UNL     1       3.997   4.239  17.343  0.00  0.00    +0.000 A 
ATOM      5  C   UNL     1       3.889   3.088  18.096  0.00  0.00    +0.000 A 
ATOM      6  S   UNL     1       3.319   3.464  19.671  0.00  0.00    +0.000 S 
ATOM      7  H   UNL     1       2.382   5.649  21.015  0.00  0.00    +0.000 HD
ENDROOT
BRANCH   1  12
ATOM      8  C   UNL     1       0.679  11.255  18.833  0.00  0.00    +0.000 C 
ATOM      9  C   UNL     1       1.149   9.866  19.142  0.00  0.00    +0.000 A 
ATOM     10  C   UNL     1       1.825   9.092  18.195  0.00  0.00    +0.000 A 
ATOM     11  C   UNL     1       2.280   7.808  18.522  0.00  0.00    +0.000 A 
ATOM     12  C   UNL     1       2.081   7.269  19.802  0.00  0.00    +0.000 A 
ATOM     13  C   UNL     1       1.366   8.043  20.724  0.00  0.00    +0.000 A 
ATOM     14  C   UNL     1       0.912   9.325  20.406  0.00  0.00    +0.000 A 
ENDBRANCH   1  12
BRANCH   4  15
ATOM     15  C   UNL     1       4.511   4.376  15.941  0.00  0.00    +0.000 C 
BRANCH  15  16
ATOM     16  S   UNL     1       5.674   5.765  15.836  0.00  0.00    +0.000 S 
BRANCH  16  17
ATOM     17  C   UNL     1       6.821   5.344  17.071  0.00  0.00    +0.000 A 
ATOM     18  N   UNL     1       7.722   4.382  16.853  0.00  0.00    +0.000 NA
ATOM     19  N   UNL     1       8.399   4.387  18.009  0.00  0.00    +0.000 N 
ATOM     20  C   UNL     1       7.899   5.318  18.872  0.00  0.00    +0.000 A 
ATOM     21  N   UNL     1       8.408   5.509  20.100  0.00  0.00    +0.000 N 
ATOM     22  N   UNL     1       6.901   5.945  18.301  0.00  0.00    +0.000 NA
ATOM     23  H   UNL     1       9.178   3.755  18.137  0.00  0.00    +0.000 HD
ATOM     24  H   UNL     1       8.944   4.791  20.576  0.00  0.00    +0.000 HD
ATOM     25  H   UNL     1       7.866   6.091  20.730  0.00  0.00    +0.000 HD
ENDBRANCH  16  17
ENDBRANCH  15  16
ENDBRANCH   4  15
TORSDOF 4
ENDMDL
MODEL 8
REMARK VINA RESULT:      -7.4      2.511      5.892
REMARK  Name = 
REMARK  5 active torsions:
REMARK  status: ('A' for Active; 'I' for Inactive)
REMARK    1  A    between atoms: C_1  and  C_2
REMARK    2  A    between atoms: C_5  and  N_6
REMARK    3  A    between atoms: C_9  and  C_10
REMARK    4  A    between atoms: C_10  and  S_11
REMARK    5  A    between atoms: S_11  and  C_12
REMARK                            x       y       z     vdW  Elec       q    Type
REMARK                         _______ _______ _______ _____ _____    ______ ____
ROOT
ATOM      1  N   UNL     1       5.200   3.519  17.223  0.00  0.00    +0.000 N 
ATOM      2  C   UNL     1       4.079   3.235  17.932  0.00  0.00    +0.000 A 
ATOM      3  N   UNL     1       3.296   4.093  18.544  0.00  0.00    +0.000 NA
ATOM      4  C   UNL     1       2.249   3.471  19.203  0.00  0.00    +0.000 A 
ATOM      5  C   UNL     1       2.289   2.093  19.134  0.00  0.00    +0.000 A 
ATOM      6  S   UNL     1       3.591   1.589  18.136  0.00  0.00    +0.000 S 
ATOM      7  H   UNL     1       5.702   2.732  16.835  0.00  0.00    +0.000 HD
ENDROOT
BRANCH   1  12
ATOM      8  C   UNL     1       8.119   8.425  17.848  0.00  0.00    +0.000 C 
ATOM      9  C   UNL     1       7.398   7.125  17.654  0.00  0.00    +0.000 A 
ATOM     10  C   UNL     1       7.691   6.001  18.430  0.00  0.00    +0.000 A 
ATOM     11  C   UNL     1       6.980   4.807  18.248  0.00  0.00    +0.000 A 
ATOM     12  C   UNL     1       5.954   4.710  17.296  0.00  0.00    +0.000 A 
ATOM     13  C   UNL     1       5.703   5.834  16.500  0.00  0.00    +0.000 A 
ATOM     14  C   UNL     1       6.406   7.028  16.679  0.00  0.00    +0.000 A 
ENDBRANCH   1  12
BRANCH   4  15
ATOM     15  C   UNL     1       1.243   4.328  19.911  0.00  0.00    +0.000 C 
BRANCH  15  16
ATOM     16  S   UNL     1       2.083   5.464  21.049  0.00  0.00    +0.000 S 
BRANCH  16  17
ATOM     17  C   UNL     1       1.846   6.988  20.247  0.00  0.00    +0.000 A 
ATOM     18  N   UNL     1       1.211   7.985  20.871  0.00  0.00    +0.000 NA
ATOM     19  N   UNL     1       1.258   8.949  19.942  0.00  0.00    +0.000 N 
ATOM     20  C   UNL     1       1.893   8.520  18.813  0.00  0.00    +0.000 A 
ATOM     21  N   UNL     1       2.060   9.306  17.738  0.00  0.00    +0.000 N 
ATOM     22  N   UNL     1       2.283   7.280  18.981  0.00  0.00    +0.000 NA
ATOM     23  H   UNL     1       0.858   9.857  20.141  0.00  0.00    +0.000 HD
ATOM     24  H   UNL     1       1.467  10.111  17.563  0.00  0.00    +0.000 HD
ATOM     25  H   UNL     1       2.381   8.851  16.889  0.00  0.00    +0.000 HD
ENDBRANCH  16  17
ENDBRANCH  15  16
ENDBRANCH   4  15
TORSDOF 4
ENDMDL
MODEL 9
REMARK VINA RESULT:      -7.4      1.355      1.615
REMARK  Name = 
REMARK  5 active torsions:
REMARK  status: ('A' for Active; 'I' for Inactive)
REMARK    1  A    between atoms: C_1  and  C_2
REMARK    2  A    between atoms: C_5  and  N_6
REMARK    3  A    between atoms: C_9  and  C_10
REMARK    4  A    between atoms: C_10  and  S_11
REMARK    5  A    between atoms: S_11  and  C_12
REMARK                            x       y       z     vdW  Elec       q    Type
REMARK                         _______ _______ _______ _____ _____    ______ ____
ROOT
ATOM      1  N   UNL     1       2.372   6.196  20.392  0.00  0.00    +0.000 N 
ATOM      2  C   UNL     1       3.134   5.330  19.680  0.00  0.00    +0.000 A 
ATOM      3  N   UNL     1       3.922   5.620  18.670  0.00  0.00    +0.000 NA
ATOM      4  C   UNL     1       4.538   4.497  18.145  0.00  0.00    +0.000 A 
ATOM      5  C   UNL     1       4.146   3.317  18.742  0.00  0.00    +0.000 A 
ATOM      6  S   UNL     1       3.081   3.641  20.049  0.00  0.00    +0.000 S 
ATOM      7  H   UNL     1       1.801   5.800  21.127  0.00  0.00    +0.000 HD
ENDROOT
BRANCH   1  12
ATOM      8  C   UNL     1       0.430  11.354  18.778  0.00  0.00    +0.000 C 
ATOM      9  C   UNL     1       0.981  10.032  19.220  0.00  0.00    +0.000 A 
ATOM     10  C   UNL     1       0.835   9.578  20.533  0.00  0.00    +0.000 A 
ATOM     11  C   UNL     1       1.333   8.324  20.911  0.00  0.00    +0.000 A 
ATOM     12  C   UNL     1       1.980   7.490  19.987  0.00  0.00    +0.000 A 
ATOM     13  C   UNL     1       2.154   7.980  18.687  0.00  0.00    +0.000 A 
ATOM     14  C   UNL     1       1.656   9.227  18.303  0.00  0.00    +0.000 A 
ENDBRANCH   1  12
BRANCH   4  15
ATOM     15  C   UNL     1       5.505   4.679  17.014  0.00  0.00    +0.000 C 
BRANCH  15  16
ATOM     16  S   UNL     1       7.209   4.658  17.639  0.00  0.00    +0.000 S 
BRANCH  16  17
ATOM     17  C   UNL     1       7.558   6.358  17.732  0.00  0.00    +0.000 A 
ATOM     18  N   UNL     1       7.079   7.194  16.806  0.00  0.00    +0.000 NA
ATOM     19  N   UNL     1       7.550   8.370  17.244  0.00  0.00    +0.000 N 
ATOM     20  C   UNL     1       8.284   8.216  18.383  0.00  0.00    +0.000 A 
ATOM     21  N   UNL     1       8.866   9.252  19.010  0.00  0.00    +0.000 N 
ATOM     22  N   UNL     1       8.301   6.950  18.720  0.00  0.00    +0.000 NA
ATOM     23  H   UNL     1       7.329   9.218  16.739  0.00  0.00    +0.000 HD
ATOM     24  H   UNL     1       9.078  10.120  18.530  0.00  0.00    +0.000 HD
ATOM     25  H   UNL     1       9.533   9.023  19.741  0.00  0.00    +0.000 HD
ENDBRANCH  16  17
ENDBRANCH  15  16
ENDBRANCH   4  15
TORSDOF 4
ENDMDL
