MODEL 1
REMARK VINA RESULT:      -7.9      0.000      0.000
REMARK  Name = 
REMARK  12 active torsions:
REMARK  status: ('A' for Active; 'I' for Inactive)
REMARK    1  A    between atoms: C_1  and  C_2
REMARK    2  A    between atoms: C_2  and  C_4
REMARK    3  A    between atoms: C_5  and  O_6
REMARK    4  A    between atoms: C_8  and  O_9
REMARK    5  A    between atoms: C_8  and  N_10
REMARK    6  A    between atoms: N_10  and  C_11
REMARK    7  A    between atoms: C_13  and  N_14
REMARK    8  A    between atoms: C_15  and  C_17
REMARK    9  A    between atoms: C_17  and  O_19
REMARK   10  A    between atoms: C_21  and  N_22
REMARK   11  A    between atoms: C_23  and  C_25
REMARK   12  A    between atoms: C_25  and  O_27
REMARK                            x       y       z     vdW  Elec       q    Type
REMARK                         _______ _______ _______ _____ _____    ______ ____
ROOT
ATOM      1  C   UNL     1       0.772   9.745  19.668  0.00  0.00    +0.000 A 
ATOM      2  C   UNL     1       0.099   9.910  18.453  0.00  0.00    +0.000 A 
ATOM      3  C   UNL     1      -0.976  10.781  18.316  0.00  0.00    +0.000 A 
ATOM      4  C   UNL     1      -1.408  11.503  19.428  0.00  0.00    +0.000 A 
ATOM      5  C   UNL     1      -0.781  11.350  20.669  0.00  0.00    +0.000 A 
ATOM      6  C   UNL     1       0.314  10.475  20.778  0.00  0.00    +0.000 A 
ENDROOT
BRANCH   3   7
ATOM      7  N   UNL     1      -1.634  10.989  17.089  0.00  0.00    +0.000 N 
ATOM      8  C   UNL     1      -2.681  10.248  16.586  0.00  0.00    +0.000 C 
ATOM      9  O   UNL     1      -3.322   9.332  17.092  0.00  0.00    +0.000 OA
ATOM     10  H   UNL     1      -1.326  11.767  16.508  0.00  0.00    +0.000 HD
BRANCH   8  11
ATOM     11  C   UNL     1      -3.127  10.676  15.184  0.00  0.00    +0.000 C 
ATOM     12  O   UNL     1      -2.931  10.000  14.192  0.00  0.00    +0.000 OA
BRANCH  11  13
ATOM     13  O   UNL     1      -3.744  11.870  15.234  0.00  0.00    +0.000 OA
ATOM     14  H   UNL     1      -3.151  12.504  15.709  0.00  0.00    +0.000 HD
ENDBRANCH  11  13
ENDBRANCH   8  11
ENDBRANCH   3   7
BRANCH   5  15
ATOM     15  N   UNL     1      -1.201  12.050  21.820  0.00  0.00    +0.000 N 
ATOM     16  C   UNL     1      -0.898  13.358  22.146  0.00  0.00    +0.000 C 
ATOM     17  O   UNL     1      -0.222  14.188  21.543  0.00  0.00    +0.000 OA
ATOM     18  H   UNL     1      -1.804  11.562  22.481  0.00  0.00    +0.000 HD
BRANCH  16  19
ATOM     19  C   UNL     1      -1.523  13.836  23.462  0.00  0.00    +0.000 C 
ATOM     20  O   UNL     1      -2.635  13.496  23.826  0.00  0.00    +0.000 OA
BRANCH  19  21
ATOM     21  O   UNL     1      -0.683  14.662  24.115  0.00  0.00    +0.000 OA
ATOM     22  H   UNL     1      -0.815  15.579  23.771  0.00  0.00    +0.000 HD
ENDBRANCH  19  21
ENDBRANCH  16  19
ENDBRANCH   5  15
BRANCH   1  23
ATOM     23  N   UNL     1       1.939   8.954  19.773  0.00  0.00    +0.000 N 
ATOM     24  H   UNL     1       2.816   9.473  19.700  0.00  0.00    +0.000 HD
BRANCH  23  28
ATOM     25  C   UNL     1       3.012   4.225  19.099  0.00  0.00    +0.000 C 
ATOM     26  C   UNL     1       2.642   5.222  19.921  0.00  0.00    +0.000 C 
ATOM     27  C   UNL     1       2.599   6.607  19.478  0.00  0.00    +0.000 C 
ATOM     28  C   UNL     1       2.059   7.635  20.191  0.00  0.00    +0.000 C 
ATOM     29  C   UNL     1       3.145   6.900  18.132  0.00  0.00    +0.000 C 
ATOM     30  O   UNL     1       3.265   8.045  17.703  0.00  0.00    +0.000 OA
ATOM     31  O   UNL     1       3.494   5.857  17.353  0.00  0.00    +0.000 OA
ATOM     32  C   UNL     1       3.415   4.567  17.733  0.00  0.00    +0.000 C 
ATOM     33  O   UNL     1       3.704   3.687  16.929  0.00  0.00    +0.000 OA
BRANCH  25  35
ATOM     34  C   UNL     1       1.855   1.880  19.229  0.00  0.00    +0.000 C 
ATOM     35  C   UNL     1       2.968   2.816  19.618  0.00  0.00    +0.000 C 
ATOM     36  O   UNL     1       3.870   2.418  20.366  0.00  0.00    +0.000 OA
ENDBRANCH  25  35
BRANCH  26  37
ATOM     37  O   UNL     1       2.262   5.022  21.245  0.00  0.00    +0.000 OA
ATOM     38  H   UNL     1       2.257   4.053  21.442  0.00  0.00    +0.000 HD
ENDBRANCH  26  37
BRANCH  28  39
ATOM     39  O   UNL     1       1.486   7.386  21.432  0.00  0.00    +0.000 OA
ATOM     40  H   UNL     1       2.152   7.563  22.124  0.00  0.00    +0.000 HD
ENDBRANCH  28  39
ENDBRANCH  23  28
ENDBRANCH   1  23
TORSDOF 11
ENDMDL
MODEL 2
REMARK VINA RESULT:      -7.7      1.332      5.505
REMARK  Name = 
REMARK  12 active torsions:
REMARK  status: ('A' for Active; 'I' for Inactive)
REMARK    1  A    between atoms: C_1  and  C_2
REMARK    2  A    between atoms: C_2  and  C_4
REMARK    3  A    between atoms: C_5  and  O_6
REMARK    4  A    between atoms: C_8  and  O_9
REMARK    5  A    between atoms: C_8  and  N_10
REMARK    6  A    between atoms: N_10  and  C_11
REMARK    7  A    between atoms: C_13  and  N_14
REMARK    8  A    between atoms: C_15  and  C_17
REMARK    9  A    between atoms: C_17  and  O_19
REMARK   10  A    between atoms: C_21  and  N_22
REMARK   11  A    between atoms: C_23  and  C_25
REMARK   12  A    between atoms: C_25  and  O_27
REMARK                            x       y       z     vdW  Elec       q    Type
REMARK                         _______ _______ _______ _____ _____    ______ ____
ROOT
ATOM      1  C   UNL     1       0.841   9.485  19.388  0.00  0.00    +0.000 A 
ATOM      2  C   UNL     1       0.672  10.470  20.367  0.00  0.00    +0.000 A 
ATOM      3  C   UNL     1      -0.248  11.504  20.224  0.00  0.00    +0.000 A 
ATOM      4  C   UNL     1      -1.017  11.570  19.063  0.00  0.00    +0.000 A 
ATOM      5  C   UNL     1      -0.862  10.621  18.047  0.00  0.00    +0.000 A 
ATOM      6  C   UNL     1       0.064   9.576  18.221  0.00  0.00    +0.000 A 
ENDROOT
BRANCH   3   7
ATOM      7  N   UNL     1      -0.461  12.476  21.220  0.00  0.00    +0.000 N 
ATOM      8  C   UNL     1      -1.027  12.268  22.458  0.00  0.00    +0.000 C 
ATOM      9  O   UNL     1      -1.386  11.230  23.005  0.00  0.00    +0.000 OA
ATOM     10  H   UNL     1      -0.162  13.431  21.026  0.00  0.00    +0.000 HD
BRANCH   8  11
ATOM     11  C   UNL     1      -1.195  13.547  23.286  0.00  0.00    +0.000 C 
ATOM     12  O   UNL     1      -2.169  13.762  23.983  0.00  0.00    +0.000 OA
BRANCH  11  13
ATOM     13  O   UNL     1      -0.133  14.354  23.120  0.00  0.00    +0.000 OA
ATOM     14  H   UNL     1       0.588  14.043  23.723  0.00  0.00    +0.000 HD
ENDBRANCH  11  13
ENDBRANCH   8  11
ENDBRANCH   3   7
BRANCH   5  15
ATOM     15  N   UNL     1      -1.607  10.665  16.849  0.00  0.00    +0.000 N 
ATOM     16  C   UNL     1      -2.841  10.084  16.625  0.00  0.00    +0.000 C 
ATOM     17  O   UNL     1      -3.551   9.420  17.375  0.00  0.00    +0.000 OA
ATOM     18  H   UNL     1      -1.221  11.190  16.065  0.00  0.00    +0.000 HD
BRANCH  16  19
ATOM     19  C   UNL     1      -3.402  10.328  15.219  0.00  0.00    +0.000 C 
ATOM     20  O   UNL     1      -2.739  10.173  14.209  0.00  0.00    +0.000 OA
BRANCH  19  21
ATOM     21  O   UNL     1      -4.685  10.732  15.282  0.00  0.00    +0.000 OA
ATOM     22  H   UNL     1      -5.043  10.500  16.172  0.00  0.00    +0.000 HD
ENDBRANCH  19  21
ENDBRANCH  16  19
ENDBRANCH   5  15
BRANCH   1  23
ATOM     23  N   UNL     1       1.687   8.371  19.591  0.00  0.00    +0.000 N 
ATOM     24  H   UNL     1       1.468   7.813  20.420  0.00  0.00    +0.000 HD
BRANCH  23  28
ATOM     25  C   UNL     1       4.761   4.847  18.142  0.00  0.00    +0.000 C 
ATOM     26  C   UNL     1       4.141   6.015  17.898  0.00  0.00    +0.000 C 
ATOM     27  C   UNL     1       3.129   6.549  18.797  0.00  0.00    +0.000 C 
ATOM     28  C   UNL     1       2.601   7.803  18.714  0.00  0.00    +0.000 C 
ATOM     29  C   UNL     1       2.682   5.673  19.905  0.00  0.00    +0.000 C 
ATOM     30  O   UNL     1       1.754   5.975  20.652  0.00  0.00    +0.000 OA
ATOM     31  O   UNL     1       3.346   4.517  20.101  0.00  0.00    +0.000 OA
ATOM     32  C   UNL     1       4.366   4.088  19.332  0.00  0.00    +0.000 C 
ATOM     33  O   UNL     1       4.942   3.047  19.627  0.00  0.00    +0.000 OA
BRANCH  25  35
ATOM     34  C   UNL     1       7.293   4.581  17.536  0.00  0.00    +0.000 C 
ATOM     35  C   UNL     1       5.838   4.397  17.197  0.00  0.00    +0.000 C 
ATOM     36  O   UNL     1       5.521   3.856  16.130  0.00  0.00    +0.000 OA
ENDBRANCH  25  35
BRANCH  26  37
ATOM     37  O   UNL     1       4.415   6.811  16.789  0.00  0.00    +0.000 OA
ATOM     38  H   UNL     1       4.233   7.757  17.012  0.00  0.00    +0.000 HD
ENDBRANCH  26  37
BRANCH  28  39
ATOM     39  O   UNL     1       3.041   8.672  17.723  0.00  0.00    +0.000 OA
ATOM     40  H   UNL     1       3.907   9.037  17.991  0.00  0.00    +0.000 HD
ENDBRANCH  28  39
ENDBRANCH  23  28
ENDBRANCH   1  23
TORSDOF 11
ENDMDL
MODEL 3
REMARK VINA RESULT:      -7.7      0.892      1.162
REMARK  Name = 
REMARK  12 active torsions:
REMARK  status: ('A' for Active; 'I' for Inactive)
REMARK    1  A    between atoms: C_1  and  C_2
REMARK    2  A    between atoms: C_2  and  C_4
REMARK    3  A    between atoms: C_5  and  O_6
REMARK    4  A    between atoms: C_8  and  O_9
REMARK    5  A    between atoms: C_8  and  N_10
REMARK    6  A    between atoms: N_10  and  C_11
REMARK    7  A    between atoms: C_13  and  N_14
REMARK    8  A    between atoms: C_15  and  C_17
REMARK    9  A    between atoms: C_17  and  O_19
REMARK   10  A    between atoms: C_21  and  N_22
REMARK   11  A    between atoms: C_23  and  C_25
REMARK   12  A    between atoms: C_25  and  O_27
REMARK                            x       y       z     vdW  Elec       q    Type
REMARK                         _______ _______ _______ _____ _____    ______ ____
ROOT
ATOM      1  C   UNL     1       0.854   9.672  19.428  0.00  0.00    +0.000 A 
ATOM      2  C   UNL     1       0.143   9.656  18.223  0.00  0.00    +0.000 A 
ATOM      3  C   UNL     1      -0.934  10.505  17.988  0.00  0.00    +0.000 A 
ATOM      4  C   UNL     1      -1.328  11.390  18.990  0.00  0.00    +0.000 A 
ATOM      5  C   UNL     1      -0.663  11.422  20.221  0.00  0.00    +0.000 A 
ATOM      6  C   UNL     1       0.433  10.565  20.428  0.00  0.00    +0.000 A 
ENDROOT
BRANCH   3   7
ATOM      7  N   UNL     1      -1.629  10.530  16.764  0.00  0.00    +0.000 N 
ATOM      8  C   UNL     1      -2.927  10.121  16.553  0.00  0.00    +0.000 C 
ATOM      9  O   UNL     1      -3.780   9.738  17.348  0.00  0.00    +0.000 OA
ATOM     10  H   UNL     1      -1.143  10.894  15.946  0.00  0.00    +0.000 HD
BRANCH   8  11
ATOM     11  C   UNL     1      -3.372  10.198  15.089  0.00  0.00    +0.000 C 
ATOM     12  O   UNL     1      -2.599  10.090  14.155  0.00  0.00    +0.000 OA
BRANCH  11  13
ATOM     13  O   UNL     1      -4.700  10.395  15.013  0.00  0.00    +0.000 OA
ATOM     14  H   UNL     1      -5.135   9.828  15.698  0.00  0.00    +0.000 HD
ENDBRANCH  11  13
ENDBRANCH   8  11
ENDBRANCH   3   7
BRANCH   5  15
ATOM     15  N   UNL     1      -1.045  12.290  21.265  0.00  0.00    +0.000 N 
ATOM     16  C   UNL     1      -1.111  11.981  22.611  0.00  0.00    +0.000 C 
ATOM     17  O   UNL     1      -0.867  10.928  23.194  0.00  0.00    +0.000 OA
ATOM     18  H   UNL     1      -1.283  13.252  21.024  0.00  0.00    +0.000 HD
BRANCH  16  19
ATOM     19  C   UNL     1      -1.546  13.152  23.501  0.00  0.00    +0.000 C 
ATOM     20  O   UNL     1      -0.773  14.014  23.880  0.00  0.00    +0.000 OA
BRANCH  19  21
ATOM     21  O   UNL     1      -2.859  13.070  23.787  0.00  0.00    +0.000 OA
ATOM     22  H   UNL     1      -3.344  13.721  23.225  0.00  0.00    +0.000 HD
ENDBRANCH  19  21
ENDBRANCH  16  19
ENDBRANCH   5  15
BRANCH   1  23
ATOM     23  N   UNL     1       2.021   8.896  19.615  0.00  0.00    +0.000 N 
ATOM     24  H   UNL     1       2.897   9.419  19.553  0.00  0.00    +0.000 HD
BRANCH  23  28
ATOM     25  C   UNL     1       3.112   4.143  19.193  0.00  0.00    +0.000 C 
ATOM     26  C   UNL     1       2.724   5.177  19.958  0.00  0.00    +0.000 C 
ATOM     27  C   UNL     1       2.689   6.540  19.448  0.00  0.00    +0.000 C 
ATOM     28  C   UNL     1       2.134   7.600  20.099  0.00  0.00    +0.000 C 
ATOM     29  C   UNL     1       3.263   6.769  18.101  0.00  0.00    +0.000 C 
ATOM     30  O   UNL     1       3.392   7.892  17.620  0.00  0.00    +0.000 OA
ATOM     31  O   UNL     1       3.630   5.690  17.380  0.00  0.00    +0.000 OA
ATOM     32  C   UNL     1       3.544   4.419  17.820  0.00  0.00    +0.000 C 
ATOM     33  O   UNL     1       3.851   3.502  17.067  0.00  0.00    +0.000 OA
BRANCH  25  35
ATOM     34  C   UNL     1       4.315   2.056  20.218  0.00  0.00    +0.000 C 
ATOM     35  C   UNL     1       3.059   2.761  19.778  0.00  0.00    +0.000 C 
ATOM     36  O   UNL     1       1.964   2.199  19.909  0.00  0.00    +0.000 OA
ENDBRANCH  25  35
BRANCH  26  37
ATOM     37  O   UNL     1       2.316   5.041  21.282  0.00  0.00    +0.000 OA
ATOM     38  H   UNL     1       3.026   4.586  21.799  0.00  0.00    +0.000 HD
ENDBRANCH  26  37
BRANCH  28  39
ATOM     39  O   UNL     1       1.534   7.410  21.338  0.00  0.00    +0.000 OA
ATOM     40  H   UNL     1       1.602   6.464  21.575  0.00  0.00    +0.000 HD
ENDBRANCH  28  39
ENDBRANCH  23  28
ENDBRANCH   1  23
TORSDOF 11
ENDMDL
MODEL 4
REMARK VINA RESULT:      -7.7      0.969      4.988
REMARK  Name = 
REMARK  12 active torsions:
REMARK  status: ('A' for Active; 'I' for Inactive)
REMARK    1  A    between atoms: C_1  and  C_2
REMARK    2  A    between atoms: C_2  and  C_4
REMARK    3  A    between atoms: C_5  and  O_6
REMARK    4  A    between atoms: C_8  and  O_9
REMARK    5  A    between atoms: C_8  and  N_10
REMARK    6  A    between atoms: N_10  and  C_11
REMARK    7  A    between atoms: C_13  and  N_14
REMARK    8  A    between atoms: C_15  and  C_17
REMARK    9  A    between atoms: C_17  and  O_19
REMARK   10  A    between atoms: C_21  and  N_22
REMARK   11  A    between atoms: C_23  and  C_25
REMARK   12  A    between atoms: C_25  and  O_27
REMARK                            x       y       z     vdW  Elec       q    Type
REMARK                         _______ _______ _______ _____ _____    ______ ____
ROOT
ATOM      1  C   UNL     1       0.714   9.801  19.431  0.00  0.00    +0.000 A 
ATOM      2  C   UNL     1       0.093  10.583  20.410  0.00  0.00    +0.000 A 
ATOM      3  C   UNL     1      -1.122  11.223  20.186  0.00  0.00    +0.000 A 
ATOM      4  C   UNL     1      -1.735  11.092  18.940  0.00  0.00    +0.000 A 
ATOM      5  C   UNL     1      -1.137  10.341  17.923  0.00  0.00    +0.000 A 
ATOM      6  C   UNL     1       0.084   9.692  18.179  0.00  0.00    +0.000 A 
ENDROOT
BRANCH   3   7
ATOM      7  N   UNL     1      -1.780  11.976  21.177  0.00  0.00    +0.000 N 
ATOM      8  C   UNL     1      -1.856  11.673  22.518  0.00  0.00    +0.000 C 
ATOM      9  O   UNL     1      -1.327  10.772  23.161  0.00  0.00    +0.000 OA
ATOM     10  H   UNL     1      -2.241  12.839  20.892  0.00  0.00    +0.000 HD
BRANCH   8  11
ATOM     11  C   UNL     1      -2.715  12.651  23.327  0.00  0.00    +0.000 C 
ATOM     12  O   UNL     1      -2.498  13.847  23.366  0.00  0.00    +0.000 OA
BRANCH  11  13
ATOM     13  O   UNL     1      -3.703  11.992  23.958  0.00  0.00    +0.000 OA
ATOM     14  H   UNL     1      -4.552  12.470  23.784  0.00  0.00    +0.000 HD
ENDBRANCH  11  13
ENDBRANCH   8  11
ENDBRANCH   3   7
BRANCH   5  15
ATOM     15  N   UNL     1      -1.717  10.203  16.644  0.00  0.00    +0.000 N 
ATOM     16  C   UNL     1      -3.052  10.359  16.324  0.00  0.00    +0.000 C 
ATOM     17  O   UNL     1      -4.010  10.642  17.039  0.00  0.00    +0.000 OA
ATOM     18  H   UNL     1      -1.102   9.982  15.861  0.00  0.00    +0.000 HD
BRANCH  16  19
ATOM     19  C   UNL     1      -3.367  10.158  14.836  0.00  0.00    +0.000 C 
ATOM     20  O   UNL     1      -2.499  10.039  13.989  0.00  0.00    +0.000 OA
BRANCH  19  21
ATOM     21  O   UNL     1      -4.697  10.144  14.629  0.00  0.00    +0.000 OA
ATOM     22  H   UNL     1      -4.994   9.204  14.556  0.00  0.00    +0.000 HD
ENDBRANCH  19  21
ENDBRANCH  16  19
ENDBRANCH   5  15
BRANCH   1  23
ATOM     23  N   UNL     1       1.883   9.056  19.703  0.00  0.00    +0.000 N 
ATOM     24  H   UNL     1       2.742   9.608  19.748  0.00  0.00    +0.000 HD
BRANCH  23  28
ATOM     25  C   UNL     1       2.948   4.312  19.129  0.00  0.00    +0.000 C 
ATOM     26  C   UNL     1       2.572   5.325  19.928  0.00  0.00    +0.000 C 
ATOM     27  C   UNL     1       2.539   6.702  19.459  0.00  0.00    +0.000 C 
ATOM     28  C   UNL     1       1.994   7.744  20.146  0.00  0.00    +0.000 C 
ATOM     29  C   UNL     1       3.104   6.969  18.115  0.00  0.00    +0.000 C 
ATOM     30  O   UNL     1       3.234   8.106  17.668  0.00  0.00    +0.000 OA
ATOM     31  O   UNL     1       3.459   5.911  17.360  0.00  0.00    +0.000 OA
ATOM     32  C   UNL     1       3.371   4.628  17.762  0.00  0.00    +0.000 C 
ATOM     33  O   UNL     1       3.667   3.733  16.978  0.00  0.00    +0.000 OA
BRANCH  25  35
ATOM     34  C   UNL     1       1.793   1.968  19.270  0.00  0.00    +0.000 C 
ATOM     35  C   UNL     1       2.894   2.913  19.672  0.00  0.00    +0.000 C 
ATOM     36  O   UNL     1       3.774   2.531  20.453  0.00  0.00    +0.000 OA
ENDBRANCH  25  35
BRANCH  26  37
ATOM     37  O   UNL     1       2.173   5.150  21.251  0.00  0.00    +0.000 OA
ATOM     38  H   UNL     1       2.746   5.699  21.841  0.00  0.00    +0.000 HD
ENDBRANCH  26  37
BRANCH  28  39
ATOM     39  O   UNL     1       1.403   7.520  21.384  0.00  0.00    +0.000 OA
ATOM     40  H   UNL     1       0.434   7.608  21.288  0.00  0.00    +0.000 HD
ENDBRANCH  28  39
ENDBRANCH  23  28
ENDBRANCH   1  23
TORSDOF 11
ENDMDL
MODEL 5
REMARK VINA RESULT:      -7.6      3.351     10.026
REMARK  Name = 
REMARK  12 active torsions:
REMARK  status: ('A' for Active; 'I' for Inactive)
REMARK    1  A    between atoms: C_1  and  C_2
REMARK    2  A    between atoms: C_2  and  C_4
REMARK    3  A    between atoms: C_5  and  O_6
REMARK    4  A    between atoms: C_8  and  O_9
REMARK    5  A    between atoms: C_8  and  N_10
REMARK    6  A    between atoms: N_10  and  C_11
REMARK    7  A    between atoms: C_13  and  N_14
REMARK    8  A    between atoms: C_15  and  C_17
REMARK    9  A    between atoms: C_17  and  O_19
REMARK   10  A    between atoms: C_21  and  N_22
REMARK   11  A    between atoms: C_23  and  C_25
REMARK   12  A    between atoms: C_25  and  O_27
REMARK                            x       y       z     vdW  Elec       q    Type
REMARK                         _______ _______ _______ _____ _____    ______ ____
ROOT
ATOM      1  C   UNL     1       3.910   6.479  17.725  0.00  0.00    +0.000 A 
ATOM      2  C   UNL     1       4.059   5.414  18.619  0.00  0.00    +0.000 A 
ATOM      3  C   UNL     1       5.034   4.436  18.448  0.00  0.00    +0.000 A 
ATOM      4  C   UNL     1       5.879   4.510  17.342  0.00  0.00    +0.000 A 
ATOM      5  C   UNL     1       5.748   5.543  16.408  0.00  0.00    +0.000 A 
ATOM      6  C   UNL     1       4.766   6.529  16.612  0.00  0.00    +0.000 A 
ENDROOT
BRANCH   3   7
ATOM      7  N   UNL     1       5.224   3.384  19.364  0.00  0.00    +0.000 N 
ATOM      8  C   UNL     1       4.409   2.286  19.529  0.00  0.00    +0.000 C 
ATOM      9  O   UNL     1       3.420   1.927  18.897  0.00  0.00    +0.000 OA
ATOM     10  H   UNL     1       6.047   3.416  19.964  0.00  0.00    +0.000 HD
BRANCH   8  11
ATOM     11  C   UNL     1       4.843   1.356  20.667  0.00  0.00    +0.000 C 
ATOM     12  O   UNL     1       5.673   0.478  20.524  0.00  0.00    +0.000 OA
BRANCH  11  13
ATOM     13  O   UNL     1       4.182   1.661  21.797  0.00  0.00    +0.000 OA
ATOM     14  H   UNL     1       4.467   2.563  22.087  0.00  0.00    +0.000 HD
ENDBRANCH  11  13
ENDBRANCH   8  11
ENDBRANCH   3   7
BRANCH   5  15
ATOM     15  N   UNL     1       6.572   5.641  15.266  0.00  0.00    +0.000 N 
ATOM     16  C   UNL     1       6.694   4.705  14.256  0.00  0.00    +0.000 C 
ATOM     17  O   UNL     1       6.143   3.616  14.115  0.00  0.00    +0.000 OA
ATOM     18  H   UNL     1       7.127   6.487  15.149  0.00  0.00    +0.000 HD
BRANCH  16  19
ATOM     19  C   UNL     1       7.662   5.113  13.139  0.00  0.00    +0.000 C 
ATOM     20  O   UNL     1       7.532   4.741  11.986  0.00  0.00    +0.000 OA
BRANCH  19  21
ATOM     21  O   UNL     1       8.637   5.907  13.621  0.00  0.00    +0.000 OA
ATOM     22  H   UNL     1       8.581   6.783  13.168  0.00  0.00    +0.000 HD
ENDBRANCH  19  21
ENDBRANCH  16  19
ENDBRANCH   5  15
BRANCH   1  23
ATOM     23  N   UNL     1       3.002   7.535  17.969  0.00  0.00    +0.000 N 
ATOM     24  H   UNL     1       2.728   8.065  17.139  0.00  0.00    +0.000 HD
BRANCH  23  28
ATOM     25  C   UNL     1       0.438  10.443  20.959  0.00  0.00    +0.000 C 
ATOM     26  C   UNL     1       0.900   9.219  20.651  0.00  0.00    +0.000 C 
ATOM     27  C   UNL     1       1.606   8.955  19.406  0.00  0.00    +0.000 C 
ATOM     28  C   UNL     1       2.262   7.797  19.115  0.00  0.00    +0.000 C 
ATOM     29  C   UNL     1       1.645  10.051  18.409  0.00  0.00    +0.000 C 
ATOM     30  O   UNL     1       2.111   9.903  17.282  0.00  0.00    +0.000 OA
ATOM     31  O   UNL     1       1.169  11.257  18.780  0.00  0.00    +0.000 OA
ATOM     32  C   UNL     1       0.626  11.520  19.984  0.00  0.00    +0.000 C 
ATOM     33  O   UNL     1       0.273  12.665  20.244  0.00  0.00    +0.000 OA
BRANCH  25  35
ATOM     34  C   UNL     1      -1.493  11.445  22.415  0.00  0.00    +0.000 C 
ATOM     35  C   UNL     1      -0.224  10.644  22.291  0.00  0.00    +0.000 C 
ATOM     36  O   UNL     1       0.277  10.131  23.301  0.00  0.00    +0.000 OA
ENDBRANCH  25  35
BRANCH  26  37
ATOM     37  O   UNL     1       0.760   8.114  21.486  0.00  0.00    +0.000 OA
ATOM     38  H   UNL     1       0.761   8.414  22.429  0.00  0.00    +0.000 HD
ENDBRANCH  26  37
BRANCH  28  39
ATOM     39  O   UNL     1       2.296   6.771  20.050  0.00  0.00    +0.000 OA
ATOM     40  H   UNL     1       1.463   6.787  20.561  0.00  0.00    +0.000 HD
ENDBRANCH  28  39
ENDBRANCH  23  28
ENDBRANCH   1  23
TORSDOF 11
ENDMDL
MODEL 6
REMARK VINA RESULT:      -7.6      3.008      9.119
REMARK  Name = 
REMARK  12 active torsions:
REMARK  status: ('A' for Active; 'I' for Inactive)
REMARK    1  A    between atoms: C_1  and  C_2
REMARK    2  A    between atoms: C_2  and  C_4
REMARK    3  A    between atoms: C_5  and  O_6
REMARK    4  A    between atoms: C_8  and  O_9
REMARK    5  A    between atoms: C_8  and  N_10
REMARK    6  A    between atoms: N_10  and  C_11
REMARK    7  A    between atoms: C_13  and  N_14
REMARK    8  A    between atoms: C_15  and  C_17
REMARK    9  A    between atoms: C_17  and  O_19
REMARK   10  A    between atoms: C_21  and  N_22
REMARK   11  A    between atoms: C_23  and  C_25
REMARK   12  A    between atoms: C_25  and  O_27
REMARK                            x       y       z     vdW  Elec       q    Type
REMARK                         _______ _______ _______ _____ _____    ______ ____
ROOT
ATOM      1  C   UNL     1       2.332   7.618  18.474  0.00  0.00    +0.000 A 
ATOM      2  C   UNL     1       3.380   7.491  17.556  0.00  0.00    +0.000 A 
ATOM      3  C   UNL     1       4.248   6.403  17.570  0.00  0.00    +0.000 A 
ATOM      4  C   UNL     1       4.077   5.414  18.539  0.00  0.00    +0.000 A 
ATOM      5  C   UNL     1       3.058   5.514  19.492  0.00  0.00    +0.000 A 
ATOM      6  C   UNL     1       2.184   6.615  19.447  0.00  0.00    +0.000 A 
ENDROOT
BRANCH   3   7
ATOM      7  N   UNL     1       5.279   6.240  16.626  0.00  0.00    +0.000 N 
ATOM      8  C   UNL     1       5.500   5.132  15.839  0.00  0.00    +0.000 C 
ATOM      9  O   UNL     1       4.840   4.105  15.708  0.00  0.00    +0.000 OA
ATOM     10  H   UNL     1       5.929   7.013  16.491  0.00  0.00    +0.000 HD
BRANCH   8  11
ATOM     11  C   UNL     1       6.756   5.229  14.967  0.00  0.00    +0.000 C 
ATOM     12  O   UNL     1       6.859   4.676  13.889  0.00  0.00    +0.000 OA
BRANCH  11  13
ATOM     13  O   UNL     1       7.684   5.995  15.569  0.00  0.00    +0.000 OA
ATOM     14  H   UNL     1       8.149   6.522  14.872  0.00  0.00    +0.000 HD
ENDBRANCH  11  13
ENDBRANCH   8  11
ENDBRANCH   3   7
BRANCH   5  15
ATOM     15  N   UNL     1       2.866   4.544  20.498  0.00  0.00    +0.000 N 
ATOM     16  C   UNL     1       1.775   3.706  20.637  0.00  0.00    +0.000 C 
ATOM     17  O   UNL     1       0.759   3.609  19.954  0.00  0.00    +0.000 OA
ATOM     18  H   UNL     1       3.603   4.421  21.191  0.00  0.00    +0.000 HD
BRANCH  16  19
ATOM     19  C   UNL     1       1.872   2.745  21.829  0.00  0.00    +0.000 C 
ATOM     20  O   UNL     1       0.912   2.453  22.520  0.00  0.00    +0.000 OA
BRANCH  19  21
ATOM     21  O   UNL     1       3.135   2.303  21.982  0.00  0.00    +0.000 OA
ATOM     22  H   UNL     1       3.369   1.744  21.202  0.00  0.00    +0.000 HD
ENDBRANCH  19  21
ENDBRANCH  16  19
ENDBRANCH   5  15
BRANCH   1  23
ATOM     23  N   UNL     1       1.381   8.659  18.378  0.00  0.00    +0.000 N 
ATOM     24  H   UNL     1       0.420   8.382  18.588  0.00  0.00    +0.000 HD
BRANCH  23  28
ATOM     25  C   UNL     1       0.730  13.312  19.755  0.00  0.00    +0.000 C 
ATOM     26  C   UNL     1       1.346  12.414  18.968  0.00  0.00    +0.000 C 
ATOM     27  C   UNL     1       1.161  10.981  19.146  0.00  0.00    +0.000 C 
ATOM     28  C   UNL     1       1.598  10.027  18.277  0.00  0.00    +0.000 C 
ATOM     29  C   UNL     1       0.401  10.544  20.341  0.00  0.00    +0.000 C 
ATOM     30  O   UNL     1       0.283   9.362  20.653  0.00  0.00    +0.000 OA
ATOM     31  O   UNL     1      -0.198  11.493  21.088  0.00  0.00    +0.000 OA
ATOM     32  C   UNL     1      -0.119  12.815  20.841  0.00  0.00    +0.000 C 
ATOM     33  O   UNL     1      -0.746  13.595  21.549  0.00  0.00    +0.000 OA
BRANCH  25  35
ATOM     34  C   UNL     1      -0.158  15.583  18.804  0.00  0.00    +0.000 C 
ATOM     35  C   UNL     1       0.925  14.772  19.464  0.00  0.00    +0.000 C 
ATOM     36  O   UNL     1       1.989  15.317  19.783  0.00  0.00    +0.000 OA
ENDBRANCH  25  35
BRANCH  26  37
ATOM     37  O   UNL     1       2.193  12.765  17.920  0.00  0.00    +0.000 OA
ATOM     38  H   UNL     1       2.652  13.613  18.141  0.00  0.00    +0.000 HD
ENDBRANCH  26  37
BRANCH  28  39
ATOM     39  O   UNL     1       2.262  10.405  17.117  0.00  0.00    +0.000 OA
ATOM     40  H   UNL     1       2.285  11.381  17.074  0.00  0.00    +0.000 HD
ENDBRANCH  28  39
ENDBRANCH  23  28
ENDBRANCH   1  23
TORSDOF 11
ENDMDL
MODEL 7
REMARK VINA RESULT:      -7.6      0.587      4.969
REMARK  Name = 
REMARK  12 active torsions:
REMARK  status: ('A' for Active; 'I' for Inactive)
REMARK    1  A    between atoms: C_1  and  C_2
REMARK    2  A    between atoms: C_2  and  C_4
REMARK    3  A    between atoms: C_5  and  O_6
REMARK    4  A    between atoms: C_8  and  O_9
REMARK    5  A    between atoms: C_8  and  N_10
REMARK    6  A    between atoms: N_10  and  C_11
REMARK    7  A    between atoms: C_13  and  N_14
REMARK    8  A    between atoms: C_15  and  C_17
REMARK    9  A    between atoms: C_17  and  O_19
REMARK   10  A    between atoms: C_21  and  N_22
REMARK   11  A    between atoms: C_23  and  C_25
REMARK   12  A    between atoms: C_25  and  O_27
REMARK                            x       y       z     vdW  Elec       q    Type
REMARK                         _______ _______ _______ _____ _____    ______ ____
ROOT
ATOM      1  C   UNL     1       0.958   9.735  19.431  0.00  0.00    +0.000 A 
ATOM      2  C   UNL     1       0.534  10.393  20.590  0.00  0.00    +0.000 A 
ATOM      3  C   UNL     1      -0.630  11.154  20.625  0.00  0.00    +0.000 A 
ATOM      4  C   UNL     1      -1.392  11.278  19.464  0.00  0.00    +0.000 A 
ATOM      5  C   UNL     1      -0.992  10.659  18.275  0.00  0.00    +0.000 A 
ATOM      6  C   UNL     1       0.180   9.882  18.270  0.00  0.00    +0.000 A 
ENDROOT
BRANCH   3   7
ATOM      7  N   UNL     1      -1.092  11.785  21.796  0.00  0.00    +0.000 N 
ATOM      8  C   UNL     1      -1.245  13.140  21.989  0.00  0.00    +0.000 C 
ATOM      9  O   UNL     1      -1.110  14.075  21.206  0.00  0.00    +0.000 OA
ATOM     10  H   UNL     1      -1.353  11.195  22.585  0.00  0.00    +0.000 HD
BRANCH   8  11
ATOM     11  C   UNL     1      -1.691  13.519  23.405  0.00  0.00    +0.000 C 
ATOM     12  O   UNL     1      -2.724  13.116  23.904  0.00  0.00    +0.000 OA
BRANCH  11  13
ATOM     13  O   UNL     1      -0.787  14.335  23.976  0.00  0.00    +0.000 OA
ATOM     14  H   UNL     1      -0.269  13.809  24.635  0.00  0.00    +0.000 HD
ENDBRANCH  11  13
ENDBRANCH   8  11
ENDBRANCH   3   7
BRANCH   5  15
ATOM     15  N   UNL     1      -1.726  10.778  17.076  0.00  0.00    +0.000 N 
ATOM     16  C   UNL     1      -2.880  10.092  16.745  0.00  0.00    +0.000 C 
ATOM     17  O   UNL     1      -3.514   9.255  17.383  0.00  0.00    +0.000 OA
ATOM     18  H   UNL     1      -1.397  11.444  16.378  0.00  0.00    +0.000 HD
BRANCH  16  19
ATOM     19  C   UNL     1      -3.452  10.457  15.370  0.00  0.00    +0.000 C 
ATOM     20  O   UNL     1      -3.809   9.619  14.561  0.00  0.00    +0.000 OA
BRANCH  19  21
ATOM     21  O   UNL     1      -3.486  11.794  15.208  0.00  0.00    +0.000 OA
ATOM     22  H   UNL     1      -2.582  12.103  14.958  0.00  0.00    +0.000 HD
ENDBRANCH  19  21
ENDBRANCH  16  19
ENDBRANCH   5  15
BRANCH   1  23
ATOM     23  N   UNL     1       2.071   8.865  19.433  0.00  0.00    +0.000 N 
ATOM     24  H   UNL     1       2.956   9.301  19.166  0.00  0.00    +0.000 HD
BRANCH  23  28
ATOM     25  C   UNL     1       3.160   4.097  19.207  0.00  0.00    +0.000 C 
ATOM     26  C   UNL     1       2.762   5.160  19.926  0.00  0.00    +0.000 C 
ATOM     27  C   UNL     1       2.738   6.502  19.364  0.00  0.00    +0.000 C 
ATOM     28  C   UNL     1       2.174   7.587  19.967  0.00  0.00    +0.000 C 
ATOM     29  C   UNL     1       3.333   6.680  18.019  0.00  0.00    +0.000 C 
ATOM     30  O   UNL     1       3.471   7.784  17.498  0.00  0.00    +0.000 OA
ATOM     31  O   UNL     1       3.708   5.574  17.345  0.00  0.00    +0.000 OA
ATOM     32  C   UNL     1       3.613   4.321  17.831  0.00  0.00    +0.000 C 
ATOM     33  O   UNL     1       3.930   3.376  17.117  0.00  0.00    +0.000 OA
BRANCH  25  35
ATOM     34  C   UNL     1       4.344   2.040  20.310  0.00  0.00    +0.000 C 
ATOM     35  C   UNL     1       3.095   2.738  19.842  0.00  0.00    +0.000 C 
ATOM     36  O   UNL     1       1.995   2.190  19.992  0.00  0.00    +0.000 OA
ENDBRANCH  25  35
BRANCH  26  37
ATOM     37  O   UNL     1       2.333   5.074  21.248  0.00  0.00    +0.000 OA
ATOM     38  H   UNL     1       1.372   4.842  21.266  0.00  0.00    +0.000 HD
ENDBRANCH  26  37
BRANCH  28  39
ATOM     39  O   UNL     1       1.556   7.444  21.202  0.00  0.00    +0.000 OA
ATOM     40  H   UNL     1       1.433   8.331  21.594  0.00  0.00    +0.000 HD
ENDBRANCH  28  39
ENDBRANCH  23  28
ENDBRANCH   1  23
TORSDOF 11
ENDMDL
MODEL 8
REMARK VINA RESULT:      -7.6      3.102      9.185
REMARK  Name = 
REMARK  12 active torsions:
REMARK  status: ('A' for Active; 'I' for Inactive)
REMARK    1  A    between atoms: C_1  and  C_2
REMARK    2  A    between atoms: C_2  and  C_4
REMARK    3  A    between atoms: C_5  and  O_6
REMARK    4  A    between atoms: C_8  and  O_9
REMARK    5  A    between atoms: C_8  and  N_10
REMARK    6  A    between atoms: N_10  and  C_11
REMARK    7  A    between atoms: C_13  and  N_14
REMARK    8  A    between atoms: C_15  and  C_17
REMARK    9  A    between atoms: C_17  and  O_19
REMARK   10  A    between atoms: C_21  and  N_22
REMARK   11  A    between atoms: C_23  and  C_25
REMARK   12  A    between atoms: C_25  and  O_27
REMARK                            x       y       z     vdW  Elec       q    Type
REMARK                         _______ _______ _______ _____ _____    ______ ____
ROOT
ATOM      1  C   UNL     1       2.424   7.662  18.545  0.00  0.00    +0.000 A 
ATOM      2  C   UNL     1       3.420   7.506  17.574  0.00  0.00    +0.000 A 
ATOM      3  C   UNL     1       4.241   6.384  17.532  0.00  0.00    +0.000 A 
ATOM      4  C   UNL     1       4.078   5.390  18.496  0.00  0.00    +0.000 A 
ATOM      5  C   UNL     1       3.113   5.517  19.500  0.00  0.00    +0.000 A 
ATOM      6  C   UNL     1       2.284   6.653  19.512  0.00  0.00    +0.000 A 
ENDROOT
BRANCH   3   7
ATOM      7  N   UNL     1       5.217   6.193  16.535  0.00  0.00    +0.000 N 
ATOM      8  C   UNL     1       5.477   5.021  15.860  0.00  0.00    +0.000 C 
ATOM      9  O   UNL     1       4.900   3.938  15.893  0.00  0.00    +0.000 OA
ATOM     10  H   UNL     1       5.788   6.993  16.267  0.00  0.00    +0.000 HD
BRANCH   8  11
ATOM     11  C   UNL     1       6.659   5.113  14.889  0.00  0.00    +0.000 C 
ATOM     12  O   UNL     1       7.656   5.772  15.120  0.00  0.00    +0.000 OA
BRANCH  11  13
ATOM     13  O   UNL     1       6.419   4.378  13.789  0.00  0.00    +0.000 OA
ATOM     14  H   UNL     1       5.511   3.992  13.868  0.00  0.00    +0.000 HD
ENDBRANCH  11  13
ENDBRANCH   8  11
ENDBRANCH   3   7
BRANCH   5  15
ATOM     15  N   UNL     1       2.932   4.541  20.503  0.00  0.00    +0.000 N 
ATOM     16  C   UNL     1       1.938   3.582  20.549  0.00  0.00    +0.000 C 
ATOM     17  O   UNL     1       1.018   3.357  19.767  0.00  0.00    +0.000 OA
ATOM     18  H   UNL     1       3.602   4.515  21.271  0.00  0.00    +0.000 HD
BRANCH  16  19
ATOM     19  C   UNL     1       2.022   2.651  21.765  0.00  0.00    +0.000 C 
ATOM     20  O   UNL     1       3.065   2.141  22.134  0.00  0.00    +0.000 OA
BRANCH  19  21
ATOM     21  O   UNL     1       0.809   2.492  22.327  0.00  0.00    +0.000 OA
ATOM     22  H   UNL     1       0.801   1.636  22.821  0.00  0.00    +0.000 HD
ENDBRANCH  19  21
ENDBRANCH  16  19
ENDBRANCH   5  15
BRANCH   1  23
ATOM     23  N   UNL     1       1.513   8.742  18.510  0.00  0.00    +0.000 N 
ATOM     24  H   UNL     1       0.564   8.512  18.813  0.00  0.00    +0.000 HD
BRANCH  23  28
ATOM     25  C   UNL     1       1.322  13.431  19.904  0.00  0.00    +0.000 C 
ATOM     26  C   UNL     1       1.757  12.497  19.041  0.00  0.00    +0.000 C 
ATOM     27  C   UNL     1       1.534  11.077  19.268  0.00  0.00    +0.000 C 
ATOM     28  C   UNL     1       1.777  10.097  18.354  0.00  0.00    +0.000 C 
ATOM     29  C   UNL     1       0.958  10.687  20.577  0.00  0.00    +0.000 C 
ATOM     30  O   UNL     1       0.835   9.514  20.921  0.00  0.00    +0.000 OA
ATOM     31  O   UNL     1       0.535  11.670  21.397  0.00  0.00    +0.000 OA
ATOM     32  C   UNL     1       0.638  12.985  21.121  0.00  0.00    +0.000 C 
ATOM     33  O   UNL     1       0.172  13.800  21.909  0.00  0.00    +0.000 OA
BRANCH  25  35
ATOM     34  C   UNL     1       2.499  15.725  20.354  0.00  0.00    +0.000 C 
ATOM     35  C   UNL     1       1.538  14.877  19.564  0.00  0.00    +0.000 C 
ATOM     36  O   UNL     1       0.923  15.375  18.611  0.00  0.00    +0.000 OA
ENDBRANCH  25  35
BRANCH  26  37
ATOM     37  O   UNL     1       2.438  12.799  17.865  0.00  0.00    +0.000 OA
ATOM     38  H   UNL     1       3.097  13.515  18.043  0.00  0.00    +0.000 HD
ENDBRANCH  26  37
BRANCH  28  39
ATOM     39  O   UNL     1       2.262  10.432  17.096  0.00  0.00    +0.000 OA
ATOM     40  H   UNL     1       3.013  11.048  17.206  0.00  0.00    +0.000 HD
ENDBRANCH  28  39
ENDBRANCH  23  28
ENDBRANCH   1  23
TORSDOF 11
ENDMDL
MODEL 9
REMARK VINA RESULT:      -7.5      1.603      5.537
REMARK  Name = 
REMARK  12 active torsions:
REMARK  status: ('A' for Active; 'I' for Inactive)
REMARK    1  A    between atoms: C_1  and  C_2
REMARK    2  A    between atoms: C_2  and  C_4
REMARK    3  A    between atoms: C_5  and  O_6
REMARK    4  A    between atoms: C_8  and  O_9
REMARK    5  A    between atoms: C_8  and  N_10
REMARK    6  A    between atoms: N_10  and  C_11
REMARK    7  A    between atoms: C_13  and  N_14
REMARK    8  A    between atoms: C_15  and  C_17
REMARK    9  A    between atoms: C_17  and  O_19
REMARK   10  A    between atoms: C_21  and  N_22
REMARK   11  A    between atoms: C_23  and  C_25
REMARK   12  A    between atoms: C_25  and  O_27
REMARK                            x       y       z     vdW  Elec       q    Type
REMARK                         _______ _______ _______ _____ _____    ______ ____
ROOT
ATOM      1  C   UNL     1       0.915   9.606  19.270  0.00  0.00    +0.000 A 
ATOM      2  C   UNL     1       1.055  10.642  20.199  0.00  0.00    +0.000 A 
ATOM      3  C   UNL     1       0.268  11.789  20.152  0.00  0.00    +0.000 A 
ATOM      4  C   UNL     1      -0.680  11.917  19.138  0.00  0.00    +0.000 A 
ATOM      5  C   UNL     1      -0.836  10.917  18.172  0.00  0.00    +0.000 A 
ATOM      6  C   UNL     1      -0.040   9.761  18.250  0.00  0.00    +0.000 A 
ENDROOT
BRANCH   3   7
ATOM      7  N   UNL     1       0.368  12.819  21.106  0.00  0.00    +0.000 N 
ATOM      8  C   UNL     1       1.113  13.972  20.990  0.00  0.00    +0.000 C 
ATOM      9  O   UNL     1       1.766  14.405  20.046  0.00  0.00    +0.000 OA
ATOM     10  H   UNL     1      -0.165  12.723  21.969  0.00  0.00    +0.000 HD
BRANCH   8  11
ATOM     11  C   UNL     1       1.079  14.861  22.237  0.00  0.00    +0.000 C 
ATOM     12  O   UNL     1       1.975  15.631  22.527  0.00  0.00    +0.000 OA
BRANCH  11  13
ATOM     13  O   UNL     1      -0.058  14.656  22.926  0.00  0.00    +0.000 OA
ATOM     14  H   UNL     1      -0.151  13.684  23.087  0.00  0.00    +0.000 HD
ENDBRANCH  11  13
ENDBRANCH   8  11
ENDBRANCH   3   7
BRANCH   5  15
ATOM     15  N   UNL     1      -1.771  11.021  17.120  0.00  0.00    +0.000 N 
ATOM     16  C   UNL     1      -2.938  10.293  16.981  0.00  0.00    +0.000 C 
ATOM     17  O   UNL     1      -3.419   9.423  17.703  0.00  0.00    +0.000 OA
ATOM     18  H   UNL     1      -1.594  11.708  16.389  0.00  0.00    +0.000 HD
BRANCH  16  19
ATOM     19  C   UNL     1      -3.754  10.651  15.733  0.00  0.00    +0.000 C 
ATOM     20  O   UNL     1      -3.342  10.469  14.602  0.00  0.00    +0.000 OA
BRANCH  19  21
ATOM     21  O   UNL     1      -4.943  11.182  16.078  0.00  0.00    +0.000 OA
ATOM     22  H   UNL     1      -4.820  12.150  16.233  0.00  0.00    +0.000 HD
ENDBRANCH  19  21
ENDBRANCH  16  19
ENDBRANCH   5  15
BRANCH   1  23
ATOM     23  N   UNL     1       1.628   8.392  19.394  0.00  0.00    +0.000 N 
ATOM     24  H   UNL     1       1.298   7.775  20.139  0.00  0.00    +0.000 HD
BRANCH  23  28
ATOM     25  C   UNL     1       4.793   4.932  17.986  0.00  0.00    +0.000 C 
ATOM     26  C   UNL     1       4.124   6.067  17.718  0.00  0.00    +0.000 C 
ATOM     27  C   UNL     1       3.116   6.597  18.624  0.00  0.00    +0.000 C 
ATOM     28  C   UNL     1       2.541   7.827  18.513  0.00  0.00    +0.000 C 
ATOM     29  C   UNL     1       2.730   5.745  19.774  0.00  0.00    +0.000 C 
ATOM     30  O   UNL     1       1.811   6.039  20.534  0.00  0.00    +0.000 OA
ATOM     31  O   UNL     1       3.442   4.621  19.992  0.00  0.00    +0.000 OA
ATOM     32  C   UNL     1       4.457   4.203  19.211  0.00  0.00    +0.000 C 
ATOM     33  O   UNL     1       5.079   3.194  19.527  0.00  0.00    +0.000 OA
BRANCH  25  35
ATOM     34  C   UNL     1       7.320   4.680  17.352  0.00  0.00    +0.000 C 
ATOM     35  C   UNL     1       5.862   4.488  17.029  0.00  0.00    +0.000 C 
ATOM     36  O   UNL     1       5.536   3.946  15.965  0.00  0.00    +0.000 OA
ENDBRANCH  25  35
BRANCH  26  37
ATOM     37  O   UNL     1       4.341   6.833  16.576  0.00  0.00    +0.000 OA
ATOM     38  H   UNL     1       3.869   7.698  16.667  0.00  0.00    +0.000 HD
ENDBRANCH  26  37
BRANCH  28  39
ATOM     39  O   UNL     1       2.922   8.675  17.481  0.00  0.00    +0.000 OA
ATOM     40  H   UNL     1       3.338   8.141  16.776  0.00  0.00    +0.000 HD
ENDBRANCH  28  39
ENDBRANCH  23  28
ENDBRANCH   1  23
TORSDOF 11
ENDMDL
