MODEL 1
REMARK VINA RESULT:      -8.6      0.000      0.000
REMARK  Name = 
REMARK  6 active torsions:
REMARK  status: ('A' for Active; 'I' for Inactive)
REMARK    1  A    between atoms: C_1  and  C_2
REMARK    2  A    between atoms: C_12  and  C_13
REMARK    3  A    between atoms: C_12  and  C_14
REMARK    4  A    between atoms: C_18  and  C_19
REMARK    5  A    between atoms: C_23  and  C_24
REMARK    6  A    between atoms: C_24  and  C_25
REMARK                            x       y       z     vdW  Elec       q    Type
REMARK                         _______ _______ _______ _____ _____    ______ ____
ROOT
ATOM      1  C   UNL     1       1.040   8.374  21.629  0.00  0.00    +0.000 C 
ATOM      2  C   UNL     1       1.472   8.336  20.207  0.00  0.00    +0.000 A 
ATOM      3  N   UNL     1       2.432   7.394  19.868  0.00  0.00    +0.000 NA
ATOM      4  C   UNL     1       2.717   7.475  18.593  0.00  0.00    +0.000 A 
ATOM      5  N   UNL     1       3.626   6.615  18.033  0.00  0.00    +0.000 N 
ATOM      6  C   UNL     1       4.201   6.715  16.800  0.00  0.00    +0.000 C 
ATOM      7  O   UNL     1       4.094   7.687  16.055  0.00  0.00    +0.000 OA
ATOM      8  N   UNL     1       4.987   5.634  16.425  0.00  0.00    +0.000 N 
ATOM      9  C   UNL     1       5.749   5.703  15.187  0.00  0.00    +0.000 C 
ATOM     10  C   UNL     1       5.870   4.266  14.737  0.00  0.00    +0.000 C 
ATOM     11  C   UNL     1       5.973   3.485  16.041  0.00  0.00    +0.000 C 
ATOM     12  C   UNL     1       5.171   4.311  17.086  0.00  0.00    +0.000 C 
ATOM     13  C   UNL     1       3.859   3.586  17.403  0.00  0.00    +0.000 C 
ATOM     14  S   UNL     1       1.841   8.631  17.713  0.00  0.00    +0.000 S 
ATOM     15  C   UNL     1       1.016   9.125  19.147  0.00  0.00    +0.000 A 
ATOM     16  H   UNL     1       4.024   5.994  18.718  0.00  0.00    +0.000 HD
ENDROOT
BRANCH  15  17
ATOM     17  C   UNL     1       0.027  10.216  19.123  0.00  0.00    +0.000 A 
ATOM     18  C   UNL     1       0.286  11.422  19.772  0.00  0.00    +0.000 A 
ATOM     19  C   UNL     1      -0.684  12.405  19.774  0.00  0.00    +0.000 A 
ATOM     20  N   UNL     1      -1.872  12.285  19.151  0.00  0.00    +0.000 NA
ATOM     21  C   UNL     1      -2.137  11.131  18.491  0.00  0.00    +0.000 A 
ATOM     22  C   UNL     1      -1.207  10.084  18.472  0.00  0.00    +0.000 A 
BRANCH  21  23
ATOM     23  C   UNL     1      -3.463  11.022  17.769  0.00  0.00    +0.000 C 
ATOM     24  C   UNL     1      -4.620  10.342  18.509  0.00  0.00    +0.000 C 
ATOM     25  C   UNL     1      -4.649  11.823  18.318  0.00  0.00    +0.000 C 
BRANCH  23  26
ATOM     26  C   UNL     1      -3.347  10.804  16.281  0.00  0.00    +0.000 C 
ATOM     27  F   UNL     1      -4.437  11.226  15.597  0.00  0.00    +0.000 F 
ATOM     28  F   UNL     1      -2.270  11.444  15.765  0.00  0.00    +0.000 F 
ATOM     29  F   UNL     1      -3.198   9.483  16.003  0.00  0.00    +0.000 F 
ENDBRANCH  23  26
ENDBRANCH  21  23
ENDBRANCH  15  17
BRANCH  12  30
ATOM     30  C   UNL     1       6.053   4.443  18.356  0.00  0.00    +0.000 C 
ATOM     31  N   UNL     1       7.404   4.367  18.161  0.00  0.00    +0.000 N 
ATOM     32  O   UNL     1       5.601   4.475  19.496  0.00  0.00    +0.000 OA
ATOM     33  H   UNL     1       8.002   4.469  18.970  0.00  0.00    +0.000 HD
ATOM     34  H   UNL     1       7.806   4.527  17.245  0.00  0.00    +0.000 HD
ENDBRANCH  12  30
TORSDOF 4
ENDMDL
MODEL 2
REMARK VINA RESULT:      -8.4      2.290      2.729
REMARK  Name = 
REMARK  6 active torsions:
REMARK  status: ('A' for Active; 'I' for Inactive)
REMARK    1  A    between atoms: C_1  and  C_2
REMARK    2  A    between atoms: C_12  and  C_13
REMARK    3  A    between atoms: C_12  and  C_14
REMARK    4  A    between atoms: C_18  and  C_19
REMARK    5  A    between atoms: C_23  and  C_24
REMARK    6  A    between atoms: C_24  and  C_25
REMARK                            x       y       z     vdW  Elec       q    Type
REMARK                         _______ _______ _______ _____ _____    ______ ____
ROOT
ATOM      1  C   UNL     1       0.333   8.842  22.045  0.00  0.00    +0.000 C 
ATOM      2  C   UNL     1       0.935   8.839  20.685  0.00  0.00    +0.000 A 
ATOM      3  N   UNL     1       1.748   7.763  20.362  0.00  0.00    +0.000 NA
ATOM      4  C   UNL     1       2.207   7.893  19.143  0.00  0.00    +0.000 A 
ATOM      5  N   UNL     1       3.015   6.924  18.604  0.00  0.00    +0.000 N 
ATOM      6  C   UNL     1       3.756   7.014  17.462  0.00  0.00    +0.000 C 
ATOM      7  O   UNL     1       3.922   8.046  16.815  0.00  0.00    +0.000 OA
ATOM      8  N   UNL     1       4.378   5.838  17.068  0.00  0.00    +0.000 N 
ATOM      9  C   UNL     1       5.296   5.862  15.939  0.00  0.00    +0.000 C 
ATOM     10  C   UNL     1       5.218   4.470  15.357  0.00  0.00    +0.000 C 
ATOM     11  C   UNL     1       5.008   3.580  16.576  0.00  0.00    +0.000 C 
ATOM     12  C   UNL     1       4.235   4.454  17.604  0.00  0.00    +0.000 C 
ATOM     13  C   UNL     1       2.785   3.967  17.691  0.00  0.00    +0.000 C 
ATOM     14  S   UNL     1       1.674   9.262  18.294  0.00  0.00    +0.000 S 
ATOM     15  C   UNL     1       0.770   9.784  19.669  0.00  0.00    +0.000 A 
ATOM     16  H   UNL     1       3.202   6.186  19.261  0.00  0.00    +0.000 HD
ENDROOT
BRANCH  15  17
ATOM     17  C   UNL     1       0.002  11.041  19.646  0.00  0.00    +0.000 A 
ATOM     18  C   UNL     1       0.315  12.045  18.732  0.00  0.00    +0.000 A 
ATOM     19  C   UNL     1      -0.391  13.232  18.771  0.00  0.00    +0.000 A 
ATOM     20  N   UNL     1      -1.400  13.474  19.629  0.00  0.00    +0.000 NA
ATOM     21  C   UNL     1      -1.740  12.503  20.511  0.00  0.00    +0.000 A 
ATOM     22  C   UNL     1      -1.048  11.285  20.541  0.00  0.00    +0.000 A 
BRANCH  21  23
ATOM     23  C   UNL     1      -2.897  12.776  21.448  0.00  0.00    +0.000 C 
ATOM     24  C   UNL     1      -2.814  12.196  22.864  0.00  0.00    +0.000 C 
ATOM     25  C   UNL     1      -2.639  13.667  22.669  0.00  0.00    +0.000 C 
BRANCH  23  26
ATOM     26  C   UNL     1      -4.247  12.819  20.776  0.00  0.00    +0.000 C 
ATOM     27  F   UNL     1      -4.658  14.079  20.495  0.00  0.00    +0.000 F 
ATOM     28  F   UNL     1      -4.250  12.121  19.616  0.00  0.00    +0.000 F 
ATOM     29  F   UNL     1      -5.195  12.268  21.577  0.00  0.00    +0.000 F 
ENDBRANCH  23  26
ENDBRANCH  21  23
ENDBRANCH  15  17
BRANCH  12  30
ATOM     30  C   UNL     1       4.952   4.312  18.972  0.00  0.00    +0.000 C 
ATOM     31  N   UNL     1       5.039   3.044  19.478  0.00  0.00    +0.000 N 
ATOM     32  O   UNL     1       5.309   5.268  19.654  0.00  0.00    +0.000 OA
ATOM     33  H   UNL     1       5.519   2.922  20.359  0.00  0.00    +0.000 HD
ATOM     34  H   UNL     1       4.931   2.238  18.874  0.00  0.00    +0.000 HD
ENDBRANCH  12  30
TORSDOF 4
ENDMDL
MODEL 3
REMARK VINA RESULT:      -8.4      3.192      3.598
REMARK  Name = 
REMARK  6 active torsions:
REMARK  status: ('A' for Active; 'I' for Inactive)
REMARK    1  A    between atoms: C_1  and  C_2
REMARK    2  A    between atoms: C_12  and  C_13
REMARK    3  A    between atoms: C_12  and  C_14
REMARK    4  A    between atoms: C_18  and  C_19
REMARK    5  A    between atoms: C_23  and  C_24
REMARK    6  A    between atoms: C_24  and  C_25
REMARK                            x       y       z     vdW  Elec       q    Type
REMARK                         _______ _______ _______ _____ _____    ______ ____
ROOT
ATOM      1  C   UNL     1      -0.229   8.817  22.313  0.00  0.00    +0.000 C 
ATOM      2  C   UNL     1       0.503   8.858  21.020  0.00  0.00    +0.000 A 
ATOM      3  N   UNL     1       1.237   7.732  20.679  0.00  0.00    +0.000 NA
ATOM      4  C   UNL     1       1.826   7.908  19.523  0.00  0.00    +0.000 A 
ATOM      5  N   UNL     1       2.587   6.906  18.978  0.00  0.00    +0.000 N 
ATOM      6  C   UNL     1       3.444   7.007  17.921  0.00  0.00    +0.000 C 
ATOM      7  O   UNL     1       3.772   8.063  17.385  0.00  0.00    +0.000 OA
ATOM      8  N   UNL     1       3.986   5.807  17.484  0.00  0.00    +0.000 N 
ATOM      9  C   UNL     1       5.011   5.823  16.451  0.00  0.00    +0.000 C 
ATOM     10  C   UNL     1       4.858   4.497  15.744  0.00  0.00    +0.000 C 
ATOM     11  C   UNL     1       4.441   3.541  16.854  0.00  0.00    +0.000 C 
ATOM     12  C   UNL     1       3.658   4.408  17.880  0.00  0.00    +0.000 C 
ATOM     13  C   UNL     1       2.166   4.070  17.790  0.00  0.00    +0.000 C 
ATOM     14  S   UNL     1       1.516   9.388  18.753  0.00  0.00    +0.000 S 
ATOM     15  C   UNL     1       0.532   9.892  20.080  0.00  0.00    +0.000 A 
ATOM     16  H   UNL     1       2.635   6.103  19.581  0.00  0.00    +0.000 HD
ENDROOT
BRANCH  15  17
ATOM     17  C   UNL     1      -0.104  11.220  20.098  0.00  0.00    +0.000 A 
ATOM     18  C   UNL     1       0.371  12.244  19.280  0.00  0.00    +0.000 A 
ATOM     19  C   UNL     1      -0.215  13.492  19.358  0.00  0.00    +0.000 A 
ATOM     20  N   UNL     1      -1.255  13.781  20.163  0.00  0.00    +0.000 NA
ATOM     21  C   UNL     1      -1.752  12.795  20.949  0.00  0.00    +0.000 A 
ATOM     22  C   UNL     1      -1.187  11.513  20.937  0.00  0.00    +0.000 A 
BRANCH  21  23
ATOM     23  C   UNL     1      -2.941  13.124  21.826  0.00  0.00    +0.000 C 
ATOM     24  C   UNL     1      -3.855  14.271  21.381  0.00  0.00    +0.000 C 
ATOM     25  C   UNL     1      -4.344  12.865  21.263  0.00  0.00    +0.000 C 
BRANCH  23  26
ATOM     26  C   UNL     1      -2.696  12.945  23.304  0.00  0.00    +0.000 C 
ATOM     27  F   UNL     1      -3.518  13.700  24.072  0.00  0.00    +0.000 F 
ATOM     28  F   UNL     1      -2.855  11.655  23.684  0.00  0.00    +0.000 F 
ATOM     29  F   UNL     1      -1.425  13.302  23.622  0.00  0.00    +0.000 F 
ENDBRANCH  23  26
ENDBRANCH  21  23
ENDBRANCH  15  17
BRANCH  12  30
ATOM     30  C   UNL     1       4.216   4.085  19.291  0.00  0.00    +0.000 C 
ATOM     31  N   UNL     1       5.381   3.370  19.328  0.00  0.00    +0.000 N 
ATOM     32  O   UNL     1       3.609   4.318  20.331  0.00  0.00    +0.000 OA
ATOM     33  H   UNL     1       5.776   3.163  20.236  0.00  0.00    +0.000 HD
ATOM     34  H   UNL     1       5.989   3.327  18.519  0.00  0.00    +0.000 HD
ENDBRANCH  12  30
TORSDOF 4
ENDMDL
MODEL 4
REMARK VINA RESULT:      -8.3      2.482      3.644
REMARK  Name = 
REMARK  6 active torsions:
REMARK  status: ('A' for Active; 'I' for Inactive)
REMARK    1  A    between atoms: C_1  and  C_2
REMARK    2  A    between atoms: C_12  and  C_13
REMARK    3  A    between atoms: C_12  and  C_14
REMARK    4  A    between atoms: C_18  and  C_19
REMARK    5  A    between atoms: C_23  and  C_24
REMARK    6  A    between atoms: C_24  and  C_25
REMARK                            x       y       z     vdW  Elec       q    Type
REMARK                         _______ _______ _______ _____ _____    ______ ____
ROOT
ATOM      1  C   UNL     1       0.695   8.491  21.638  0.00  0.00    +0.000 C 
ATOM      2  C   UNL     1       1.304   8.493  20.281  0.00  0.00    +0.000 A 
ATOM      3  N   UNL     1       2.136   7.429  19.967  0.00  0.00    +0.000 NA
ATOM      4  C   UNL     1       2.600   7.562  18.750  0.00  0.00    +0.000 A 
ATOM      5  N   UNL     1       3.427   6.605  18.219  0.00  0.00    +0.000 N 
ATOM      6  C   UNL     1       4.173   6.702  17.081  0.00  0.00    +0.000 C 
ATOM      7  O   UNL     1       4.325   7.734  16.431  0.00  0.00    +0.000 OA
ATOM      8  N   UNL     1       4.817   5.535  16.695  0.00  0.00    +0.000 N 
ATOM      9  C   UNL     1       5.741   5.570  15.572  0.00  0.00    +0.000 C 
ATOM     10  C   UNL     1       5.689   4.174  14.995  0.00  0.00    +0.000 C 
ATOM     11  C   UNL     1       5.486   3.286  16.216  0.00  0.00    +0.000 C 
ATOM     12  C   UNL     1       4.694   4.151  17.236  0.00  0.00    +0.000 C 
ATOM     13  C   UNL     1       3.251   3.641  17.317  0.00  0.00    +0.000 C 
ATOM     14  S   UNL     1       2.050   8.919  17.893  0.00  0.00    +0.000 S 
ATOM     15  C   UNL     1       1.129   9.431  19.261  0.00  0.00    +0.000 A 
ATOM     16  H   UNL     1       3.622   5.872  18.880  0.00  0.00    +0.000 HD
ENDROOT
BRANCH  15  17
ATOM     17  C   UNL     1       0.341  10.675  19.229  0.00  0.00    +0.000 A 
ATOM     18  C   UNL     1      -1.013  10.647  18.897  0.00  0.00    +0.000 A 
ATOM     19  C   UNL     1      -1.711  11.837  18.825  0.00  0.00    +0.000 A 
ATOM     20  N   UNL     1      -1.167  13.040  19.092  0.00  0.00    +0.000 NA
ATOM     21  C   UNL     1       0.141  13.090  19.442  0.00  0.00    +0.000 A 
ATOM     22  C   UNL     1       0.913  11.923  19.509  0.00  0.00    +0.000 A 
BRANCH  21  23
ATOM     23  C   UNL     1       0.732  14.445  19.770  0.00  0.00    +0.000 C 
ATOM     24  C   UNL     1      -0.243  15.590  20.066  0.00  0.00    +0.000 C 
ATOM     25  C   UNL     1       0.537  14.990  21.190  0.00  0.00    +0.000 C 
BRANCH  23  26
ATOM     26  C   UNL     1       2.002  14.769  19.025  0.00  0.00    +0.000 C 
ATOM     27  F   UNL     1       3.120  14.433  19.713  0.00  0.00    +0.000 F 
ATOM     28  F   UNL     1       2.055  14.136  17.829  0.00  0.00    +0.000 F 
ATOM     29  F   UNL     1       2.082  16.102  18.776  0.00  0.00    +0.000 F 
ENDBRANCH  23  26
ENDBRANCH  21  23
ENDBRANCH  15  17
BRANCH  12  30
ATOM     30  C   UNL     1       5.405   4.026  18.609  0.00  0.00    +0.000 C 
ATOM     31  N   UNL     1       5.042   2.956  19.380  0.00  0.00    +0.000 N 
ATOM     32  O   UNL     1       6.148   4.887  19.069  0.00  0.00    +0.000 OA
ATOM     33  H   UNL     1       5.505   2.841  20.271  0.00  0.00    +0.000 HD
ATOM     34  H   UNL     1       4.590   2.149  18.966  0.00  0.00    +0.000 HD
ENDBRANCH  12  30
TORSDOF 4
ENDMDL
MODEL 5
REMARK VINA RESULT:      -8.2      2.562      3.336
REMARK  Name = 
REMARK  6 active torsions:
REMARK  status: ('A' for Active; 'I' for Inactive)
REMARK    1  A    between atoms: C_1  and  C_2
REMARK    2  A    between atoms: C_12  and  C_13
REMARK    3  A    between atoms: C_12  and  C_14
REMARK    4  A    between atoms: C_18  and  C_19
REMARK    5  A    between atoms: C_23  and  C_24
REMARK    6  A    between atoms: C_24  and  C_25
REMARK                            x       y       z     vdW  Elec       q    Type
REMARK                         _______ _______ _______ _____ _____    ______ ____
ROOT
ATOM      1  C   UNL     1       0.955   8.252  21.814  0.00  0.00    +0.000 C 
ATOM      2  C   UNL     1       1.387   8.277  20.392  0.00  0.00    +0.000 A 
ATOM      3  N   UNL     1       2.334   7.339  20.009  0.00  0.00    +0.000 NA
ATOM      4  C   UNL     1       2.620   7.477  18.739  0.00  0.00    +0.000 A 
ATOM      5  N   UNL     1       3.518   6.633  18.138  0.00  0.00    +0.000 N 
ATOM      6  C   UNL     1       4.095   6.784  16.911  0.00  0.00    +0.000 C 
ATOM      7  O   UNL     1       4.001   7.791  16.213  0.00  0.00    +0.000 OA
ATOM      8  N   UNL     1       4.866   5.712  16.485  0.00  0.00    +0.000 N 
ATOM      9  C   UNL     1       5.630   5.829  15.252  0.00  0.00    +0.000 C 
ATOM     10  C   UNL     1       5.732   4.414  14.733  0.00  0.00    +0.000 C 
ATOM     11  C   UNL     1       5.823   3.570  15.998  0.00  0.00    +0.000 C 
ATOM     12  C   UNL     1       5.032   4.356  17.082  0.00  0.00    +0.000 C 
ATOM     13  C   UNL     1       3.710   3.634  17.364  0.00  0.00    +0.000 C 
ATOM     14  S   UNL     1       1.760   8.686  17.915  0.00  0.00    +0.000 S 
ATOM     15  C   UNL     1       0.942   9.121  19.372  0.00  0.00    +0.000 A 
ATOM     16  H   UNL     1       3.907   5.975  18.793  0.00  0.00    +0.000 HD
ENDROOT
BRANCH  15  17
ATOM     17  C   UNL     1      -0.033  10.225  19.400  0.00  0.00    +0.000 A 
ATOM     18  C   UNL     1      -0.835  10.490  18.291  0.00  0.00    +0.000 A 
ATOM     19  C   UNL     1      -1.702  11.565  18.331  0.00  0.00    +0.000 A 
ATOM     20  N   UNL     1      -1.849  12.368  19.402  0.00  0.00    +0.000 NA
ATOM     21  C   UNL     1      -1.099  12.114  20.502  0.00  0.00    +0.000 A 
ATOM     22  C   UNL     1      -0.182  11.055  20.519  0.00  0.00    +0.000 A 
BRANCH  21  23
ATOM     23  C   UNL     1      -1.297  13.004  21.711  0.00  0.00    +0.000 C 
ATOM     24  C   UNL     1      -0.094  13.819  22.196  0.00  0.00    +0.000 C 
ATOM     25  C   UNL     1      -1.217  14.522  21.507  0.00  0.00    +0.000 C 
BRANCH  23  26
ATOM     26  C   UNL     1      -2.243  12.449  22.746  0.00  0.00    +0.000 C 
ATOM     27  F   UNL     1      -3.494  12.246  22.266  0.00  0.00    +0.000 F 
ATOM     28  F   UNL     1      -1.801  11.269  23.244  0.00  0.00    +0.000 F 
ATOM     29  F   UNL     1      -2.360  13.306  23.793  0.00  0.00    +0.000 F 
ENDBRANCH  23  26
ENDBRANCH  21  23
ENDBRANCH  15  17
BRANCH  12  30
ATOM     30  C   UNL     1       5.915   4.415  18.356  0.00  0.00    +0.000 C 
ATOM     31  N   UNL     1       7.266   4.339  18.157  0.00  0.00    +0.000 N 
ATOM     32  O   UNL     1       5.463   4.391  19.497  0.00  0.00    +0.000 OA
ATOM     33  H   UNL     1       7.865   4.395  18.970  0.00  0.00    +0.000 HD
ATOM     34  H   UNL     1       7.668   4.545  17.250  0.00  0.00    +0.000 HD
ENDBRANCH  12  30
TORSDOF 4
ENDMDL
MODEL 6
REMARK VINA RESULT:      -8.2      4.561      9.908
REMARK  Name = 
REMARK  6 active torsions:
REMARK  status: ('A' for Active; 'I' for Inactive)
REMARK    1  A    between atoms: C_1  and  C_2
REMARK    2  A    between atoms: C_12  and  C_13
REMARK    3  A    between atoms: C_12  and  C_14
REMARK    4  A    between atoms: C_18  and  C_19
REMARK    5  A    between atoms: C_23  and  C_24
REMARK    6  A    between atoms: C_24  and  C_25
REMARK                            x       y       z     vdW  Elec       q    Type
REMARK                         _______ _______ _______ _____ _____    ______ ____
ROOT
ATOM      1  C   UNL     1       2.089   9.172  17.593  0.00  0.00    +0.000 C 
ATOM      2  C   UNL     1       1.454   9.268  18.935  0.00  0.00    +0.000 A 
ATOM      3  N   UNL     1       0.808  10.457  19.238  0.00  0.00    +0.000 NA
ATOM      4  C   UNL     1       0.301  10.401  20.444  0.00  0.00    +0.000 A 
ATOM      5  N   UNL     1      -0.409  11.463  20.942  0.00  0.00    +0.000 N 
ATOM      6  C   UNL     1      -0.793  11.660  22.237  0.00  0.00    +0.000 C 
ATOM      7  O   UNL     1      -0.428  10.972  23.187  0.00  0.00    +0.000 OA
ATOM      8  N   UNL     1      -1.622  12.753  22.447  0.00  0.00    +0.000 N 
ATOM      9  C   UNL     1      -1.978  13.125  23.808  0.00  0.00    +0.000 C 
ATOM     10  C   UNL     1      -3.330  13.788  23.678  0.00  0.00    +0.000 C 
ATOM     11  C   UNL     1      -3.256  14.501  22.335  0.00  0.00    +0.000 C 
ATOM     12  C   UNL     1      -2.292  13.649  21.462  0.00  0.00    +0.000 C 
ATOM     13  C   UNL     1      -3.101  12.906  20.394  0.00  0.00    +0.000 C 
ATOM     14  S   UNL     1       0.517   8.935  21.270  0.00  0.00    +0.000 S 
ATOM     15  C   UNL     1       1.408   8.295  19.936  0.00  0.00    +0.000 A 
ATOM     16  H   UNL     1      -0.438  12.231  20.293  0.00  0.00    +0.000 HD
ENDROOT
BRANCH  15  17
ATOM     17  C   UNL     1       1.979   6.938  19.980  0.00  0.00    +0.000 A 
ATOM     18  C   UNL     1       1.560   6.024  20.946  0.00  0.00    +0.000 A 
ATOM     19  C   UNL     1       2.153   4.777  20.992  0.00  0.00    +0.000 A 
ATOM     20  N   UNL     1       3.103   4.368  20.129  0.00  0.00    +0.000 NA
ATOM     21  C   UNL     1       3.508   5.230  19.165  0.00  0.00    +0.000 A 
ATOM     22  C   UNL     1       2.966   6.519  19.078  0.00  0.00    +0.000 A 
BRANCH  21  23
ATOM     23  C   UNL     1       4.553   4.747  18.182  0.00  0.00    +0.000 C 
ATOM     24  C   UNL     1       5.564   5.774  17.660  0.00  0.00    +0.000 C 
ATOM     25  C   UNL     1       6.018   4.738  18.636  0.00  0.00    +0.000 C 
BRANCH  23  26
ATOM     26  C   UNL     1       4.070   3.680  17.232  0.00  0.00    +0.000 C 
ATOM     27  F   UNL     1       4.196   2.427  17.734  0.00  0.00    +0.000 F 
ATOM     28  F   UNL     1       2.769   3.857  16.902  0.00  0.00    +0.000 F 
ATOM     29  F   UNL     1       4.784   3.711  16.077  0.00  0.00    +0.000 F 
ENDBRANCH  23  26
ENDBRANCH  21  23
ENDBRANCH  15  17
BRANCH  12  30
ATOM     30  C   UNL     1      -1.270  14.618  20.810  0.00  0.00    +0.000 C 
ATOM     31  N   UNL     1      -1.210  14.599  19.444  0.00  0.00    +0.000 N 
ATOM     32  O   UNL     1      -0.454  15.275  21.449  0.00  0.00    +0.000 OA
ATOM     33  H   UNL     1      -0.566  15.236  18.993  0.00  0.00    +0.000 HD
ATOM     34  H   UNL     1      -1.975  14.224  18.896  0.00  0.00    +0.000 HD
ENDBRANCH  12  30
TORSDOF 4
ENDMDL
MODEL 7
REMARK VINA RESULT:      -8.1      3.062      4.244
REMARK  Name = 
REMARK  6 active torsions:
REMARK  status: ('A' for Active; 'I' for Inactive)
REMARK    1  A    between atoms: C_1  and  C_2
REMARK    2  A    between atoms: C_12  and  C_13
REMARK    3  A    between atoms: C_12  and  C_14
REMARK    4  A    between atoms: C_18  and  C_19
REMARK    5  A    between atoms: C_23  and  C_24
REMARK    6  A    between atoms: C_24  and  C_25
REMARK                            x       y       z     vdW  Elec       q    Type
REMARK                         _______ _______ _______ _____ _____    ______ ____
ROOT
ATOM      1  C   UNL     1       0.034   9.203  21.641  0.00  0.00    +0.000 C 
ATOM      2  C   UNL     1       0.854   9.015  20.416  0.00  0.00    +0.000 A 
ATOM      3  N   UNL     1       1.461   7.779  20.251  0.00  0.00    +0.000 NA
ATOM      4  C   UNL     1       2.148   7.757  19.137  0.00  0.00    +0.000 A 
ATOM      5  N   UNL     1       2.811   6.618  18.758  0.00  0.00    +0.000 N 
ATOM      6  C   UNL     1       3.747   6.500  17.772  0.00  0.00    +0.000 C 
ATOM      7  O   UNL     1       4.245   7.445  17.164  0.00  0.00    +0.000 OA
ATOM      8  N   UNL     1       4.161   5.203  17.503  0.00  0.00    +0.000 N 
ATOM      9  C   UNL     1       5.250   4.985  16.563  0.00  0.00    +0.000 C 
ATOM     10  C   UNL     1       4.979   3.617  15.980  0.00  0.00    +0.000 C 
ATOM     11  C   UNL     1       4.366   2.844  17.141  0.00  0.00    +0.000 C 
ATOM     12  C   UNL     1       3.629   3.905  18.007  0.00  0.00    +0.000 C 
ATOM     13  C   UNL     1       2.117   3.741  17.827  0.00  0.00    +0.000 C 
ATOM     14  S   UNL     1       2.085   9.171  18.201  0.00  0.00    +0.000 S 
ATOM     15  C   UNL     1       1.082   9.930  19.384  0.00  0.00    +0.000 A 
ATOM     16  H   UNL     1       2.713   5.885  19.441  0.00  0.00    +0.000 HD
ENDROOT
BRANCH  15  17
ATOM     17  C   UNL     1       0.621  11.319  19.217  0.00  0.00    +0.000 A 
ATOM     18  C   UNL     1      -0.673  11.587  18.771  0.00  0.00    +0.000 A 
ATOM     19  C   UNL     1      -1.057  12.899  18.576  0.00  0.00    +0.000 A 
ATOM     20  N   UNL     1      -0.260  13.957  18.823  0.00  0.00    +0.000 NA
ATOM     21  C   UNL     1       0.993  13.722  19.281  0.00  0.00    +0.000 A 
ATOM     22  C   UNL     1       1.455  12.414  19.477  0.00  0.00    +0.000 A 
BRANCH  21  23
ATOM     23  C   UNL     1       1.868  14.920  19.585  0.00  0.00    +0.000 C 
ATOM     24  C   UNL     1       1.172  16.211  20.032  0.00  0.00    +0.000 C 
ATOM     25  C   UNL     1       1.935  15.412  21.036  0.00  0.00    +0.000 C 
BRANCH  23  26
ATOM     26  C   UNL     1       3.090  15.039  18.709  0.00  0.00    +0.000 C 
ATOM     27  F   UNL     1       2.907  14.517  17.472  0.00  0.00    +0.000 F 
ATOM     28  F   UNL     1       3.469  16.330  18.554  0.00  0.00    +0.000 F 
ATOM     29  F   UNL     1       4.139  14.378  19.262  0.00  0.00    +0.000 F 
ENDBRANCH  23  26
ENDBRANCH  21  23
ENDBRANCH  15  17
BRANCH  12  30
ATOM     30  C   UNL     1       4.041   3.673  19.484  0.00  0.00    +0.000 C 
ATOM     31  N   UNL     1       5.147   2.895  19.687  0.00  0.00    +0.000 N 
ATOM     32  O   UNL     1       3.363   4.032  20.442  0.00  0.00    +0.000 OA
ATOM     33  H   UNL     1       5.448   2.744  20.640  0.00  0.00    +0.000 HD
ATOM     34  H   UNL     1       5.819   2.746  18.943  0.00  0.00    +0.000 HD
ENDBRANCH  12  30
TORSDOF 4
ENDMDL
MODEL 8
REMARK VINA RESULT:      -8.1      4.815      9.968
REMARK  Name = 
REMARK  6 active torsions:
REMARK  status: ('A' for Active; 'I' for Inactive)
REMARK    1  A    between atoms: C_1  and  C_2
REMARK    2  A    between atoms: C_12  and  C_13
REMARK    3  A    between atoms: C_12  and  C_14
REMARK    4  A    between atoms: C_18  and  C_19
REMARK    5  A    between atoms: C_23  and  C_24
REMARK    6  A    between atoms: C_24  and  C_25
REMARK                            x       y       z     vdW  Elec       q    Type
REMARK                         _______ _______ _______ _____ _____    ______ ____
ROOT
ATOM      1  C   UNL     1       2.166   9.051  17.535  0.00  0.00    +0.000 C 
ATOM      2  C   UNL     1       1.537   9.163  18.877  0.00  0.00    +0.000 A 
ATOM      3  N   UNL     1       0.893  10.356  19.171  0.00  0.00    +0.000 NA
ATOM      4  C   UNL     1       0.391  10.315  20.378  0.00  0.00    +0.000 A 
ATOM      5  N   UNL     1      -0.315  11.383  20.869  0.00  0.00    +0.000 N 
ATOM      6  C   UNL     1      -0.694  11.595  22.162  0.00  0.00    +0.000 C 
ATOM      7  O   UNL     1      -0.326  10.916  23.119  0.00  0.00    +0.000 OA
ATOM      8  N   UNL     1      -1.520  12.692  22.364  0.00  0.00    +0.000 N 
ATOM      9  C   UNL     1      -1.870  13.079  23.722  0.00  0.00    +0.000 C 
ATOM     10  C   UNL     1      -3.221  13.743  23.591  0.00  0.00    +0.000 C 
ATOM     11  C   UNL     1      -3.151  14.442  22.239  0.00  0.00    +0.000 C 
ATOM     12  C   UNL     1      -2.191  13.579  21.372  0.00  0.00    +0.000 C 
ATOM     13  C   UNL     1      -3.006  12.826  20.315  0.00  0.00    +0.000 C 
ATOM     14  S   UNL     1       0.608   8.857  21.219  0.00  0.00    +0.000 S 
ATOM     15  C   UNL     1       1.492   8.201  19.890  0.00  0.00    +0.000 A 
ATOM     16  H   UNL     1      -0.345  12.144  20.211  0.00  0.00    +0.000 HD
ENDROOT
BRANCH  15  17
ATOM     17  C   UNL     1       2.061   6.843  19.946  0.00  0.00    +0.000 A 
ATOM     18  C   UNL     1       1.622   5.931  20.904  0.00  0.00    +0.000 A 
ATOM     19  C   UNL     1       2.212   4.683  20.962  0.00  0.00    +0.000 A 
ATOM     20  N   UNL     1       3.178   4.272  20.119  0.00  0.00    +0.000 NA
ATOM     21  C   UNL     1       3.604   5.133  19.162  0.00  0.00    +0.000 A 
ATOM     22  C   UNL     1       3.064   6.422  19.064  0.00  0.00    +0.000 A 
BRANCH  21  23
ATOM     23  C   UNL     1       4.667   4.648  18.200  0.00  0.00    +0.000 C 
ATOM     24  C   UNL     1       4.563   3.204  17.697  0.00  0.00    +0.000 C 
ATOM     25  C   UNL     1       4.243   4.324  16.763  0.00  0.00    +0.000 C 
BRANCH  23  26
ATOM     26  C   UNL     1       6.042   5.213  18.453  0.00  0.00    +0.000 C 
ATOM     27  F   UNL     1       6.269   6.372  17.787  0.00  0.00    +0.000 F 
ATOM     28  F   UNL     1       6.249   5.454  19.770  0.00  0.00    +0.000 F 
ATOM     29  F   UNL     1       6.999   4.338  18.051  0.00  0.00    +0.000 F 
ENDBRANCH  23  26
ENDBRANCH  21  23
ENDBRANCH  15  17
BRANCH  12  30
ATOM     30  C   UNL     1      -1.170  14.538  20.705  0.00  0.00    +0.000 C 
ATOM     31  N   UNL     1      -1.104  14.494  19.340  0.00  0.00    +0.000 N 
ATOM     32  O   UNL     1      -0.359  15.210  21.335  0.00  0.00    +0.000 OA
ATOM     33  H   UNL     1      -0.461  15.124  18.880  0.00  0.00    +0.000 HD
ATOM     34  H   UNL     1      -1.866  14.105  18.797  0.00  0.00    +0.000 HD
ENDBRANCH  12  30
TORSDOF 4
ENDMDL
MODEL 9
REMARK VINA RESULT:      -8.1      2.760      3.814
REMARK  Name = 
REMARK  6 active torsions:
REMARK  status: ('A' for Active; 'I' for Inactive)
REMARK    1  A    between atoms: C_1  and  C_2
REMARK    2  A    between atoms: C_12  and  C_13
REMARK    3  A    between atoms: C_12  and  C_14
REMARK    4  A    between atoms: C_18  and  C_19
REMARK    5  A    between atoms: C_23  and  C_24
REMARK    6  A    between atoms: C_24  and  C_25
REMARK                            x       y       z     vdW  Elec       q    Type
REMARK                         _______ _______ _______ _____ _____    ______ ____
ROOT
ATOM      1  C   UNL     1       0.673   8.443  21.650  0.00  0.00    +0.000 C 
ATOM      2  C   UNL     1       1.290   8.468  20.298  0.00  0.00    +0.000 A 
ATOM      3  N   UNL     1       2.122   7.408  19.969  0.00  0.00    +0.000 NA
ATOM      4  C   UNL     1       2.593   7.561  18.757  0.00  0.00    +0.000 A 
ATOM      5  N   UNL     1       3.421   6.612  18.214  0.00  0.00    +0.000 N 
ATOM      6  C   UNL     1       4.173   6.728  17.082  0.00  0.00    +0.000 C 
ATOM      7  O   UNL     1       4.331   7.771  16.451  0.00  0.00    +0.000 OA
ATOM      8  N   UNL     1       4.817   5.567  16.679  0.00  0.00    +0.000 N 
ATOM      9  C   UNL     1       5.748   5.620  15.561  0.00  0.00    +0.000 C 
ATOM     10  C   UNL     1       5.696   4.235  14.960  0.00  0.00    +0.000 C 
ATOM     11  C   UNL     1       5.485   3.325  16.163  0.00  0.00    +0.000 C 
ATOM     12  C   UNL     1       4.688   4.174  17.194  0.00  0.00    +0.000 C 
ATOM     13  C   UNL     1       3.244   3.665  17.258  0.00  0.00    +0.000 C 
ATOM     14  S   UNL     1       2.050   8.935  17.922  0.00  0.00    +0.000 S 
ATOM     15  C   UNL     1       1.123   9.424  19.293  0.00  0.00    +0.000 A 
ATOM     16  H   UNL     1       3.611   5.867  18.863  0.00  0.00    +0.000 HD
ENDROOT
BRANCH  15  17
ATOM     17  C   UNL     1       0.337  10.670  19.279  0.00  0.00    +0.000 A 
ATOM     18  C   UNL     1      -0.969  10.678  18.794  0.00  0.00    +0.000 A 
ATOM     19  C   UNL     1      -1.660  11.873  18.747  0.00  0.00    +0.000 A 
ATOM     20  N   UNL     1      -1.157  13.046  19.176  0.00  0.00    +0.000 NA
ATOM     21  C   UNL     1       0.103  13.059  19.675  0.00  0.00    +0.000 A 
ATOM     22  C   UNL     1       0.868  11.887  19.728  0.00  0.00    +0.000 A 
BRANCH  21  23
ATOM     23  C   UNL     1       0.646  14.378  20.184  0.00  0.00    +0.000 C 
ATOM     24  C   UNL     1       2.085  14.746  19.805  0.00  0.00    +0.000 C 
ATOM     25  C   UNL     1       0.953  15.473  19.156  0.00  0.00    +0.000 C 
BRANCH  23  26
ATOM     26  C   UNL     1       0.150  14.771  21.553  0.00  0.00    +0.000 C 
ATOM     27  F   UNL     1      -0.969  15.535  21.511  0.00  0.00    +0.000 F 
ATOM     28  F   UNL     1      -0.127  13.685  22.314  0.00  0.00    +0.000 F 
ATOM     29  F   UNL     1       1.092  15.493  22.212  0.00  0.00    +0.000 F 
ENDBRANCH  23  26
ENDBRANCH  21  23
ENDBRANCH  15  17
BRANCH  12  30
ATOM     30  C   UNL     1       5.391   4.023  18.569  0.00  0.00    +0.000 C 
ATOM     31  N   UNL     1       5.046   2.923  19.304  0.00  0.00    +0.000 N 
ATOM     32  O   UNL     1       6.112   4.885  19.061  0.00  0.00    +0.000 OA
ATOM     33  H   UNL     1       5.505   2.790  20.195  0.00  0.00    +0.000 HD
ATOM     34  H   UNL     1       4.615   2.119  18.862  0.00  0.00    +0.000 HD
ENDBRANCH  12  30
TORSDOF 4
ENDMDL
