MODEL 1
REMARK VINA RESULT:      -9.4      0.000      0.000
REMARK  Name = 
REMARK  9 active torsions:
REMARK  status: ('A' for Active; 'I' for Inactive)
REMARK    1  A    between atoms: C_1  and  C_2
REMARK    2  A    between atoms: C_5  and  N_6
REMARK    3  A    between atoms: C_8  and  C_9
REMARK    4  A    between atoms: C_16  and  C_17
REMARK    5  A    between atoms: C_17  and  N_18
REMARK    6  A    between atoms: N_18  and  C_19
REMARK    7  A    between atoms: C_22  and  C_23
REMARK    8  A    between atoms: N_25  and  O_26
REMARK    9  A    between atoms: C_30  and  C_31
REMARK                            x       y       z     vdW  Elec       q    Type
REMARK                         _______ _______ _______ _____ _____    ______ ____
ROOT
ATOM      1  N   UNL     1       4.255   5.122  17.336  0.00  0.00    +0.000 N 
ATOM      2  N   UNL     1       4.989   4.312  16.519  0.00  0.00    +0.000 NA
ATOM      3  C   UNL     1       5.359   5.139  15.531  0.00  0.00    +0.000 A 
ATOM      4  N   UNL     1       5.039   6.450  15.766  0.00  0.00    +0.000 NA
ATOM      5  C   UNL     1       4.386   6.431  16.907  0.00  0.00    +0.000 A 
ENDROOT
BRANCH   1  10
ATOM      6  C   UNL     1       1.336   2.678  21.648  0.00  0.00    +0.000 C 
ATOM      7  C   UNL     1       2.040   3.350  20.501  0.00  0.00    +0.000 A 
ATOM      8  C   UNL     1       3.128   4.198  20.760  0.00  0.00    +0.000 A 
ATOM      9  C   UNL     1       3.852   4.780  19.714  0.00  0.00    +0.000 A 
ATOM     10  C   UNL     1       3.469   4.564  18.386  0.00  0.00    +0.000 A 
ATOM     11  C   UNL     1       2.365   3.742  18.121  0.00  0.00    +0.000 A 
ATOM     12  C   UNL     1       1.656   3.117  19.167  0.00  0.00    +0.000 A 
ATOM     13  C   UNL     1       0.523   2.181  18.833  0.00  0.00    +0.000 C 
ENDBRANCH   1  10
BRANCH   3  14
ATOM     14  C   UNL     1       6.041   4.758  14.294  0.00  0.00    +0.000 A 
ATOM     15  C   UNL     1       7.267   5.314  13.914  0.00  0.00    +0.000 A 
ATOM     16  C   UNL     1       7.889   4.911  12.725  0.00  0.00    +0.000 A 
ATOM     17  C   UNL     1       7.297   3.947  11.908  0.00  0.00    +0.000 A 
ATOM     18  C   UNL     1       6.082   3.378  12.279  0.00  0.00    +0.000 A 
ATOM     19  C   UNL     1       5.462   3.780  13.463  0.00  0.00    +0.000 A 
ENDBRANCH   3  14
BRANCH   5  20
ATOM     20  C   UNL     1       3.942   7.655  17.627  0.00  0.00    +0.000 C 
BRANCH  20  21
ATOM     21  N   UNL     1       2.497   7.903  17.637  0.00  0.00    +0.000 N 
ATOM     22  H   UNL     1       1.985   7.067  17.359  0.00  0.00    +0.000 HD
BRANCH  21  23
ATOM     23  C   UNL     1       1.965   8.452  18.817  0.00  0.00    +0.000 A 
ATOM     24  C   UNL     1       1.320   9.693  18.849  0.00  0.00    +0.000 A 
ATOM     25  C   UNL     1       0.743  10.181  20.026  0.00  0.00    +0.000 A 
ATOM     26  C   UNL     1       0.765   9.422  21.201  0.00  0.00    +0.000 A 
ATOM     27  C   UNL     1       1.384   8.168  21.178  0.00  0.00    +0.000 A 
ATOM     28  C   UNL     1       1.955   7.685  19.990  0.00  0.00    +0.000 A 
BRANCH  26  29
ATOM     29  C   UNL     1       0.118  10.006  22.410  0.00  0.00    +0.000 C 
ATOM     30  O   UNL     1       0.470   9.671  23.541  0.00  0.00    +0.000 OA
ATOM     31  N   UNL     1      -0.858  10.958  22.226  0.00  0.00    +0.000 N 
ATOM     32  H   UNL     1      -1.013  11.466  21.366  0.00  0.00    +0.000 HD
BRANCH  31  33
ATOM     33  O   UNL     1      -1.312  11.587  23.411  0.00  0.00    +0.000 OA
ATOM     34  H   UNL     1      -0.837  11.082  24.108  0.00  0.00    +0.000 HD
ENDBRANCH  31  33
ENDBRANCH  26  29
ENDBRANCH  21  23
ENDBRANCH  20  21
ENDBRANCH   5  20
TORSDOF 7
ENDMDL
MODEL 2
REMARK VINA RESULT:      -9.3      0.141      1.230
REMARK  Name = 
REMARK  9 active torsions:
REMARK  status: ('A' for Active; 'I' for Inactive)
REMARK    1  A    between atoms: C_1  and  C_2
REMARK    2  A    between atoms: C_5  and  N_6
REMARK    3  A    between atoms: C_8  and  C_9
REMARK    4  A    between atoms: C_16  and  C_17
REMARK    5  A    between atoms: C_17  and  N_18
REMARK    6  A    between atoms: N_18  and  C_19
REMARK    7  A    between atoms: C_22  and  C_23
REMARK    8  A    between atoms: N_25  and  O_26
REMARK    9  A    between atoms: C_30  and  C_31
REMARK                            x       y       z     vdW  Elec       q    Type
REMARK                         _______ _______ _______ _____ _____    ______ ____
ROOT
ATOM      1  N   UNL     1       4.296   5.138  17.312  0.00  0.00    +0.000 N 
ATOM      2  N   UNL     1       5.021   4.319  16.494  0.00  0.00    +0.000 NA
ATOM      3  C   UNL     1       5.399   5.141  15.506  0.00  0.00    +0.000 A 
ATOM      4  N   UNL     1       5.095   6.456  15.740  0.00  0.00    +0.000 NA
ATOM      5  C   UNL     1       4.442   6.445  16.882  0.00  0.00    +0.000 A 
ENDROOT
BRANCH   1  10
ATOM      6  C   UNL     1       1.350   2.727  21.624  0.00  0.00    +0.000 C 
ATOM      7  C   UNL     1       2.062   3.391  20.477  0.00  0.00    +0.000 A 
ATOM      8  C   UNL     1       3.163   4.222  20.735  0.00  0.00    +0.000 A 
ATOM      9  C   UNL     1       3.894   4.796  19.690  0.00  0.00    +0.000 A 
ATOM     10  C   UNL     1       3.504   4.589  18.362  0.00  0.00    +0.000 A 
ATOM     11  C   UNL     1       2.387   3.785  18.098  0.00  0.00    +0.000 A 
ATOM     12  C   UNL     1       1.671   3.168  19.143  0.00  0.00    +0.000 A 
ATOM     13  C   UNL     1       0.523   2.250  18.810  0.00  0.00    +0.000 C 
ENDBRANCH   1  10
BRANCH   3  14
ATOM     14  C   UNL     1       6.077   4.752  14.269  0.00  0.00    +0.000 A 
ATOM     15  C   UNL     1       5.567   3.770  13.413  0.00  0.00    +0.000 A 
ATOM     16  C   UNL     1       6.248   3.436  12.235  0.00  0.00    +0.000 A 
ATOM     17  C   UNL     1       7.437   4.082  11.897  0.00  0.00    +0.000 A 
ATOM     18  C   UNL     1       7.951   5.069  12.734  0.00  0.00    +0.000 A 
ATOM     19  C   UNL     1       7.274   5.400  13.909  0.00  0.00    +0.000 A 
ENDBRANCH   3  14
BRANCH   5  20
ATOM     20  C   UNL     1       4.011   7.674  17.601  0.00  0.00    +0.000 C 
BRANCH  20  21
ATOM     21  N   UNL     1       2.594   8.028  17.474  0.00  0.00    +0.000 N 
ATOM     22  H   UNL     1       2.069   7.268  17.043  0.00  0.00    +0.000 HD
BRANCH  21  23
ATOM     23  C   UNL     1       1.956   8.484  18.641  0.00  0.00    +0.000 A 
ATOM     24  C   UNL     1       1.975   7.769  19.842  0.00  0.00    +0.000 A 
ATOM     25  C   UNL     1       1.388   8.283  21.003  0.00  0.00    +0.000 A 
ATOM     26  C   UNL     1       0.791   9.548  21.002  0.00  0.00    +0.000 A 
ATOM     27  C   UNL     1       0.787  10.287  19.815  0.00  0.00    +0.000 A 
ATOM     28  C   UNL     1       1.385   9.764  18.656  0.00  0.00    +0.000 A 
BRANCH  26  29
ATOM     29  C   UNL     1       0.197  10.030  22.282  0.00  0.00    +0.000 C 
ATOM     30  O   UNL     1       0.673   9.695  23.367  0.00  0.00    +0.000 OA
ATOM     31  N   UNL     1      -0.874  10.889  22.215  0.00  0.00    +0.000 N 
ATOM     32  H   UNL     1      -1.147  11.407  21.391  0.00  0.00    +0.000 HD
BRANCH  31  33
ATOM     33  O   UNL     1      -1.283  11.435  23.456  0.00  0.00    +0.000 OA
ATOM     34  H   UNL     1      -0.436  11.783  23.817  0.00  0.00    +0.000 HD
ENDBRANCH  31  33
ENDBRANCH  26  29
ENDBRANCH  21  23
ENDBRANCH  20  21
ENDBRANCH   5  20
TORSDOF 7
ENDMDL
MODEL 3
REMARK VINA RESULT:      -8.8      0.806      1.227
REMARK  Name = 
REMARK  9 active torsions:
REMARK  status: ('A' for Active; 'I' for Inactive)
REMARK    1  A    between atoms: C_1  and  C_2
REMARK    2  A    between atoms: C_5  and  N_6
REMARK    3  A    between atoms: C_8  and  C_9
REMARK    4  A    between atoms: C_16  and  C_17
REMARK    5  A    between atoms: C_17  and  N_18
REMARK    6  A    between atoms: N_18  and  C_19
REMARK    7  A    between atoms: C_22  and  C_23
REMARK    8  A    between atoms: N_25  and  O_26
REMARK    9  A    between atoms: C_30  and  C_31
REMARK                            x       y       z     vdW  Elec       q    Type
REMARK                         _______ _______ _______ _____ _____    ______ ____
ROOT
ATOM      1  N   UNL     1       4.589   4.796  17.415  0.00  0.00    +0.000 N 
ATOM      2  N   UNL     1       5.264   4.016  16.521  0.00  0.00    +0.000 NA
ATOM      3  C   UNL     1       5.477   4.852  15.495  0.00  0.00    +0.000 A 
ATOM      4  N   UNL     1       5.123   6.148  15.762  0.00  0.00    +0.000 NA
ATOM      5  C   UNL     1       4.607   6.107  16.971  0.00  0.00    +0.000 A 
ENDROOT
BRANCH   1  10
ATOM      6  C   UNL     1       2.028   2.145  21.832  0.00  0.00    +0.000 C 
ATOM      7  C   UNL     1       2.690   2.900  20.710  0.00  0.00    +0.000 A 
ATOM      8  C   UNL     1       4.013   2.594  20.359  0.00  0.00    +0.000 A 
ATOM      9  C   UNL     1       4.635   3.223  19.274  0.00  0.00    +0.000 A 
ATOM     10  C   UNL     1       3.957   4.209  18.550  0.00  0.00    +0.000 A 
ATOM     11  C   UNL     1       2.645   4.541  18.914  0.00  0.00    +0.000 A 
ATOM     12  C   UNL     1       1.997   3.882  19.978  0.00  0.00    +0.000 A 
ATOM     13  C   UNL     1       0.560   4.216  20.286  0.00  0.00    +0.000 C 
ENDBRANCH   1  10
BRANCH   3  14
ATOM     14  C   UNL     1       6.032   4.495  14.189  0.00  0.00    +0.000 A 
ATOM     15  C   UNL     1       5.420   3.560  13.347  0.00  0.00    +0.000 A 
ATOM     16  C   UNL     1       5.984   3.256  12.101  0.00  0.00    +0.000 A 
ATOM     17  C   UNL     1       7.157   3.885  11.681  0.00  0.00    +0.000 A 
ATOM     18  C   UNL     1       7.770   4.824  12.505  0.00  0.00    +0.000 A 
ATOM     19  C   UNL     1       7.210   5.126  13.748  0.00  0.00    +0.000 A 
ENDBRANCH   3  14
BRANCH   5  20
ATOM     20  C   UNL     1       4.189   7.313  17.734  0.00  0.00    +0.000 C 
BRANCH  20  21
ATOM     21  N   UNL     1       2.828   7.795  17.476  0.00  0.00    +0.000 N 
ATOM     22  H   UNL     1       2.273   7.078  17.009  0.00  0.00    +0.000 HD
BRANCH  21  23
ATOM     23  C   UNL     1       2.136   8.334  18.574  0.00  0.00    +0.000 A 
ATOM     24  C   UNL     1       1.328   9.471  18.475  0.00  0.00    +0.000 A 
ATOM     25  C   UNL     1       0.600   9.943  19.572  0.00  0.00    +0.000 A 
ATOM     26  C   UNL     1       0.633   9.267  20.796  0.00  0.00    +0.000 A 
ATOM     27  C   UNL     1       1.417   8.113  20.904  0.00  0.00    +0.000 A 
ATOM     28  C   UNL     1       2.139   7.645  19.795  0.00  0.00    +0.000 A 
BRANCH  26  29
ATOM     29  C   UNL     1      -0.179   9.826  21.913  0.00  0.00    +0.000 C 
ATOM     30  O   UNL     1      -0.722   9.086  22.735  0.00  0.00    +0.000 OA
ATOM     31  N   UNL     1      -0.275  11.194  22.024  0.00  0.00    +0.000 N 
ATOM     32  H   UNL     1       0.338  11.853  21.564  0.00  0.00    +0.000 HD
BRANCH  31  33
ATOM     33  O   UNL     1      -0.921  11.657  23.195  0.00  0.00    +0.000 OA
ATOM     34  H   UNL     1      -1.051  10.824  23.702  0.00  0.00    +0.000 HD
ENDBRANCH  31  33
ENDBRANCH  26  29
ENDBRANCH  21  23
ENDBRANCH  20  21
ENDBRANCH   5  20
TORSDOF 7
ENDMDL
MODEL 4
REMARK VINA RESULT:      -8.8      0.811      1.474
REMARK  Name = 
REMARK  9 active torsions:
REMARK  status: ('A' for Active; 'I' for Inactive)
REMARK    1  A    between atoms: C_1  and  C_2
REMARK    2  A    between atoms: C_5  and  N_6
REMARK    3  A    between atoms: C_8  and  C_9
REMARK    4  A    between atoms: C_16  and  C_17
REMARK    5  A    between atoms: C_17  and  N_18
REMARK    6  A    between atoms: N_18  and  C_19
REMARK    7  A    between atoms: C_22  and  C_23
REMARK    8  A    between atoms: N_25  and  O_26
REMARK    9  A    between atoms: C_30  and  C_31
REMARK                            x       y       z     vdW  Elec       q    Type
REMARK                         _______ _______ _______ _____ _____    ______ ____
ROOT
ATOM      1  N   UNL     1       4.370   4.679  17.249  0.00  0.00    +0.000 N 
ATOM      2  N   UNL     1       5.035   3.902  16.344  0.00  0.00    +0.000 NA
ATOM      3  C   UNL     1       5.394   4.783  15.400  0.00  0.00    +0.000 A 
ATOM      4  N   UNL     1       5.138   6.085  15.740  0.00  0.00    +0.000 NA
ATOM      5  C   UNL     1       4.535   6.009  16.907  0.00  0.00    +0.000 A 
ENDROOT
BRANCH   1  10
ATOM      6  C   UNL     1       1.278   2.540  21.603  0.00  0.00    +0.000 C 
ATOM      7  C   UNL     1       2.098   3.034  20.442  0.00  0.00    +0.000 A 
ATOM      8  C   UNL     1       1.512   3.892  19.499  0.00  0.00    +0.000 A 
ATOM      9  C   UNL     1       2.264   4.430  18.449  0.00  0.00    +0.000 A 
ATOM     10  C   UNL     1       3.609   4.076  18.293  0.00  0.00    +0.000 A 
ATOM     11  C   UNL     1       4.192   3.196  19.214  0.00  0.00    +0.000 A 
ATOM     12  C   UNL     1       3.454   2.683  20.299  0.00  0.00    +0.000 A 
ATOM     13  C   UNL     1       4.141   1.801  21.309  0.00  0.00    +0.000 C 
ENDBRANCH   1  10
BRANCH   3  14
ATOM     14  C   UNL     1       6.007   4.467  14.110  0.00  0.00    +0.000 A 
ATOM     15  C   UNL     1       5.448   3.540  13.223  0.00  0.00    +0.000 A 
ATOM     16  C   UNL     1       6.066   3.276  11.994  0.00  0.00    +0.000 A 
ATOM     17  C   UNL     1       7.242   3.936  11.636  0.00  0.00    +0.000 A 
ATOM     18  C   UNL     1       7.804   4.867  12.504  0.00  0.00    +0.000 A 
ATOM     19  C   UNL     1       7.189   5.130  13.730  0.00  0.00    +0.000 A 
ENDBRANCH   3  14
BRANCH   5  20
ATOM     20  C   UNL     1       4.171   7.194  17.729  0.00  0.00    +0.000 C 
BRANCH  20  21
ATOM     21  N   UNL     1       2.853   7.778  17.464  0.00  0.00    +0.000 N 
ATOM     22  H   UNL     1       2.259   7.118  16.964  0.00  0.00    +0.000 HD
BRANCH  21  23
ATOM     23  C   UNL     1       2.179   8.328  18.568  0.00  0.00    +0.000 A 
ATOM     24  C   UNL     1       1.448   9.518  18.492  0.00  0.00    +0.000 A 
ATOM     25  C   UNL     1       0.733  10.003  19.592  0.00  0.00    +0.000 A 
ATOM     26  C   UNL     1       0.701   9.291  20.794  0.00  0.00    +0.000 A 
ATOM     27  C   UNL     1       1.406   8.085  20.878  0.00  0.00    +0.000 A 
ATOM     28  C   UNL     1       2.116   7.604  19.766  0.00  0.00    +0.000 A 
BRANCH  26  29
ATOM     29  C   UNL     1      -0.093   9.868  21.916  0.00  0.00    +0.000 C 
ATOM     30  O   UNL     1      -0.656   9.140  22.734  0.00  0.00    +0.000 OA
ATOM     31  N   UNL     1      -0.148  11.237  22.033  0.00  0.00    +0.000 N 
ATOM     32  H   UNL     1       0.484  11.880  21.576  0.00  0.00    +0.000 HD
BRANCH  31  33
ATOM     33  O   UNL     1      -0.778  11.713  23.208  0.00  0.00    +0.000 OA
ATOM     34  H   UNL     1      -0.508  12.660  23.218  0.00  0.00    +0.000 HD
ENDBRANCH  31  33
ENDBRANCH  26  29
ENDBRANCH  21  23
ENDBRANCH  20  21
ENDBRANCH   5  20
TORSDOF 7
ENDMDL
MODEL 5
REMARK VINA RESULT:      -8.7      0.732      1.424
REMARK  Name = 
REMARK  9 active torsions:
REMARK  status: ('A' for Active; 'I' for Inactive)
REMARK    1  A    between atoms: C_1  and  C_2
REMARK    2  A    between atoms: C_5  and  N_6
REMARK    3  A    between atoms: C_8  and  C_9
REMARK    4  A    between atoms: C_16  and  C_17
REMARK    5  A    between atoms: C_17  and  N_18
REMARK    6  A    between atoms: N_18  and  C_19
REMARK    7  A    between atoms: C_22  and  C_23
REMARK    8  A    between atoms: N_25  and  O_26
REMARK    9  A    between atoms: C_30  and  C_31
REMARK                            x       y       z     vdW  Elec       q    Type
REMARK                         _______ _______ _______ _____ _____    ______ ____
ROOT
ATOM      1  N   UNL     1       4.337   4.769  17.318  0.00  0.00    +0.000 N 
ATOM      2  N   UNL     1       5.021   4.003  16.418  0.00  0.00    +0.000 NA
ATOM      3  C   UNL     1       5.382   4.892  15.482  0.00  0.00    +0.000 A 
ATOM      4  N   UNL     1       5.109   6.190  15.825  0.00  0.00    +0.000 NA
ATOM      5  C   UNL     1       4.493   6.103  16.983  0.00  0.00    +0.000 A 
ENDROOT
BRANCH   1  10
ATOM      6  C   UNL     1       1.220   2.578  21.628  0.00  0.00    +0.000 C 
ATOM      7  C   UNL     1       2.046   3.086  20.477  0.00  0.00    +0.000 A 
ATOM      8  C   UNL     1       1.468   3.962  19.546  0.00  0.00    +0.000 A 
ATOM      9  C   UNL     1       2.226   4.512  18.507  0.00  0.00    +0.000 A 
ATOM     10  C   UNL     1       3.570   4.154  18.350  0.00  0.00    +0.000 A 
ATOM     11  C   UNL     1       4.146   3.257  19.258  0.00  0.00    +0.000 A 
ATOM     12  C   UNL     1       3.401   2.731  20.333  0.00  0.00    +0.000 A 
ATOM     13  C   UNL     1       4.081   1.829  21.331  0.00  0.00    +0.000 C 
ENDBRANCH   1  10
BRANCH   3  14
ATOM     14  C   UNL     1       6.013   4.588  14.198  0.00  0.00    +0.000 A 
ATOM     15  C   UNL     1       7.207   5.193  13.788  0.00  0.00    +0.000 A 
ATOM     16  C   UNL     1       7.779   4.863  12.553  0.00  0.00    +0.000 A 
ATOM     17  C   UNL     1       7.171   3.924  11.718  0.00  0.00    +0.000 A 
ATOM     18  C   UNL     1       5.989   3.307  12.118  0.00  0.00    +0.000 A 
ATOM     19  C   UNL     1       5.417   3.636  13.348  0.00  0.00    +0.000 A 
ENDBRANCH   3  14
BRANCH   5  20
ATOM     20  C   UNL     1       4.108   7.280  17.807  0.00  0.00    +0.000 C 
BRANCH  20  21
ATOM     21  N   UNL     1       2.806   7.880  17.498  0.00  0.00    +0.000 N 
ATOM     22  H   UNL     1       2.259   7.267  16.895  0.00  0.00    +0.000 HD
BRANCH  21  23
ATOM     23  C   UNL     1       2.044   8.322  18.593  0.00  0.00    +0.000 A 
ATOM     24  C   UNL     1       2.081   7.693  19.842  0.00  0.00    +0.000 A 
ATOM     25  C   UNL     1       1.362   8.197  20.931  0.00  0.00    +0.000 A 
ATOM     26  C   UNL     1       0.609   9.369  20.808  0.00  0.00    +0.000 A 
ATOM     27  C   UNL     1       0.582  10.024  19.573  0.00  0.00    +0.000 A 
ATOM     28  C   UNL     1       1.313   9.513  18.488  0.00  0.00    +0.000 A 
BRANCH  26  29
ATOM     29  C   UNL     1      -0.120   9.848  22.017  0.00  0.00    +0.000 C 
ATOM     30  O   UNL     1      -0.089   9.210  23.070  0.00  0.00    +0.000 OA
ATOM     31  N   UNL     1      -0.797  11.043  21.935  0.00  0.00    +0.000 N 
ATOM     32  H   UNL     1      -0.655  11.736  21.213  0.00  0.00    +0.000 HD
BRANCH  31  33
ATOM     33  O   UNL     1      -1.327  11.518  23.159  0.00  0.00    +0.000 OA
ATOM     34  H   UNL     1      -1.371  10.696  23.697  0.00  0.00    +0.000 HD
ENDBRANCH  31  33
ENDBRANCH  26  29
ENDBRANCH  21  23
ENDBRANCH  20  21
ENDBRANCH   5  20
TORSDOF 7
ENDMDL
MODEL 6
REMARK VINA RESULT:      -8.7      0.948      1.778
REMARK  Name = 
REMARK  9 active torsions:
REMARK  status: ('A' for Active; 'I' for Inactive)
REMARK    1  A    between atoms: C_1  and  C_2
REMARK    2  A    between atoms: C_5  and  N_6
REMARK    3  A    between atoms: C_8  and  C_9
REMARK    4  A    between atoms: C_16  and  C_17
REMARK    5  A    between atoms: C_17  and  N_18
REMARK    6  A    between atoms: N_18  and  C_19
REMARK    7  A    between atoms: C_22  and  C_23
REMARK    8  A    between atoms: N_25  and  O_26
REMARK    9  A    between atoms: C_30  and  C_31
REMARK                            x       y       z     vdW  Elec       q    Type
REMARK                         _______ _______ _______ _____ _____    ______ ____
ROOT
ATOM      1  N   UNL     1       4.388   4.708  17.229  0.00  0.00    +0.000 N 
ATOM      2  N   UNL     1       5.071   3.930  16.339  0.00  0.00    +0.000 NA
ATOM      3  C   UNL     1       5.413   4.802  15.380  0.00  0.00    +0.000 A 
ATOM      4  N   UNL     1       5.129   6.105  15.697  0.00  0.00    +0.000 NA
ATOM      5  C   UNL     1       4.526   6.036  16.864  0.00  0.00    +0.000 A 
ENDROOT
BRANCH   1  10
ATOM      6  C   UNL     1       1.351   2.577  21.626  0.00  0.00    +0.000 C 
ATOM      7  C   UNL     1       2.154   3.070  20.452  0.00  0.00    +0.000 A 
ATOM      8  C   UNL     1       1.569   3.962  19.541  0.00  0.00    +0.000 A 
ATOM      9  C   UNL     1       2.308   4.497  18.480  0.00  0.00    +0.000 A 
ATOM     10  C   UNL     1       3.638   4.109  18.282  0.00  0.00    +0.000 A 
ATOM     11  C   UNL     1       4.220   3.195  19.171  0.00  0.00    +0.000 A 
ATOM     12  C   UNL     1       3.495   2.684  20.267  0.00  0.00    +0.000 A 
ATOM     13  C   UNL     1       4.184   1.763  21.242  0.00  0.00    +0.000 C 
ENDBRANCH   1  10
BRANCH   3  14
ATOM     14  C   UNL     1       6.034   4.476  14.097  0.00  0.00    +0.000 A 
ATOM     15  C   UNL     1       5.502   3.515  13.230  0.00  0.00    +0.000 A 
ATOM     16  C   UNL     1       6.128   3.243  12.007  0.00  0.00    +0.000 A 
ATOM     17  C   UNL     1       7.284   3.929  11.634  0.00  0.00    +0.000 A 
ATOM     18  C   UNL     1       7.819   4.895  12.481  0.00  0.00    +0.000 A 
ATOM     19  C   UNL     1       7.197   5.166  13.702  0.00  0.00    +0.000 A 
ENDBRANCH   3  14
BRANCH   5  20
ATOM     20  C   UNL     1       4.136   7.227  17.666  0.00  0.00    +0.000 C 
BRANCH  20  21
ATOM     21  N   UNL     1       2.839   7.825  17.336  0.00  0.00    +0.000 N 
ATOM     22  H   UNL     1       2.254   7.163  16.827  0.00  0.00    +0.000 HD
BRANCH  21  23
ATOM     23  C   UNL     1       2.131   8.410  18.400  0.00  0.00    +0.000 A 
ATOM     24  C   UNL     1       2.049   7.824  19.667  0.00  0.00    +0.000 A 
ATOM     25  C   UNL     1       1.393   8.464  20.723  0.00  0.00    +0.000 A 
ATOM     26  C   UNL     1       0.826   9.731  20.549  0.00  0.00    +0.000 A 
ATOM     27  C   UNL     1       0.921  10.342  19.294  0.00  0.00    +0.000 A 
ATOM     28  C   UNL     1       1.588   9.693  18.242  0.00  0.00    +0.000 A 
BRANCH  26  29
ATOM     29  C   UNL     1       0.154  10.352  21.725  0.00  0.00    +0.000 C 
ATOM     30  O   UNL     1       0.272  11.555  21.960  0.00  0.00    +0.000 OA
ATOM     31  N   UNL     1      -0.632   9.551  22.520  0.00  0.00    +0.000 N 
ATOM     32  H   UNL     1      -0.984   8.642  22.252  0.00  0.00    +0.000 HD
BRANCH  31  33
ATOM     33  O   UNL     1      -1.369  10.234  23.518  0.00  0.00    +0.000 OA
ATOM     34  H   UNL     1      -2.232  10.384  23.071  0.00  0.00    +0.000 HD
ENDBRANCH  31  33
ENDBRANCH  26  29
ENDBRANCH  21  23
ENDBRANCH  20  21
ENDBRANCH   5  20
TORSDOF 7
ENDMDL
MODEL 7
REMARK VINA RESULT:      -8.6      0.917      1.365
REMARK  Name = 
REMARK  9 active torsions:
REMARK  status: ('A' for Active; 'I' for Inactive)
REMARK    1  A    between atoms: C_1  and  C_2
REMARK    2  A    between atoms: C_5  and  N_6
REMARK    3  A    between atoms: C_8  and  C_9
REMARK    4  A    between atoms: C_16  and  C_17
REMARK    5  A    between atoms: C_17  and  N_18
REMARK    6  A    between atoms: N_18  and  C_19
REMARK    7  A    between atoms: C_22  and  C_23
REMARK    8  A    between atoms: N_25  and  O_26
REMARK    9  A    between atoms: C_30  and  C_31
REMARK                            x       y       z     vdW  Elec       q    Type
REMARK                         _______ _______ _______ _____ _____    ______ ____
ROOT
ATOM      1  N   UNL     1       4.572   4.883  17.401  0.00  0.00    +0.000 N 
ATOM      2  N   UNL     1       5.287   4.115  16.526  0.00  0.00    +0.000 NA
ATOM      3  C   UNL     1       5.480   4.943  15.490  0.00  0.00    +0.000 A 
ATOM      4  N   UNL     1       5.073   6.228  15.731  0.00  0.00    +0.000 NA
ATOM      5  C   UNL     1       4.544   6.186  16.935  0.00  0.00    +0.000 A 
ENDROOT
BRANCH   1  10
ATOM      6  C   UNL     1       2.033   2.213  21.818  0.00  0.00    +0.000 C 
ATOM      7  C   UNL     1       2.693   2.972  20.698  0.00  0.00    +0.000 A 
ATOM      8  C   UNL     1       3.988   2.615  20.292  0.00  0.00    +0.000 A 
ATOM      9  C   UNL     1       4.603   3.249  19.207  0.00  0.00    +0.000 A 
ATOM     10  C   UNL     1       3.950   4.290  18.537  0.00  0.00    +0.000 A 
ATOM     11  C   UNL     1       2.669   4.671  18.956  0.00  0.00    +0.000 A 
ATOM     12  C   UNL     1       2.025   4.010  20.021  0.00  0.00    +0.000 A 
ATOM     13  C   UNL     1       0.616   4.401  20.389  0.00  0.00    +0.000 C 
ENDBRANCH   1  10
BRANCH   3  14
ATOM     14  C   UNL     1       6.063   4.587  14.196  0.00  0.00    +0.000 A 
ATOM     15  C   UNL     1       7.251   5.158  13.728  0.00  0.00    +0.000 A 
ATOM     16  C   UNL     1       7.777   4.779  12.486  0.00  0.00    +0.000 A 
ATOM     17  C   UNL     1       7.127   3.824  11.703  0.00  0.00    +0.000 A 
ATOM     18  C   UNL     1       5.950   3.240  12.161  0.00  0.00    +0.000 A 
ATOM     19  C   UNL     1       5.424   3.618  13.398  0.00  0.00    +0.000 A 
ENDBRANCH   3  14
BRANCH   5  20
ATOM     20  C   UNL     1       4.070   7.387  17.674  0.00  0.00    +0.000 C 
BRANCH  20  21
ATOM     21  N   UNL     1       2.696   7.812  17.391  0.00  0.00    +0.000 N 
ATOM     22  H   UNL     1       2.133   7.025  17.070  0.00  0.00    +0.000 HD
BRANCH  21  23
ATOM     23  C   UNL     1       2.038   8.521  18.411  0.00  0.00    +0.000 A 
ATOM     24  C   UNL     1       1.862   8.005  19.698  0.00  0.00    +0.000 A 
ATOM     25  C   UNL     1       1.262   8.763  20.709  0.00  0.00    +0.000 A 
ATOM     26  C   UNL     1       0.850  10.078  20.468  0.00  0.00    +0.000 A 
ATOM     27  C   UNL     1       1.043  10.618  19.192  0.00  0.00    +0.000 A 
ATOM     28  C   UNL     1       1.652   9.850  18.186  0.00  0.00    +0.000 A 
BRANCH  26  29
ATOM     29  C   UNL     1       0.230  10.824  21.600  0.00  0.00    +0.000 C 
ATOM     30  O   UNL     1       0.339  12.048  21.687  0.00  0.00    +0.000 OA
ATOM     31  N   UNL     1      -0.499  10.112  22.523  0.00  0.00    +0.000 N 
ATOM     32  H   UNL     1      -0.849   9.174  22.382  0.00  0.00    +0.000 HD
BRANCH  31  33
ATOM     33  O   UNL     1      -1.194  10.898  23.474  0.00  0.00    +0.000 OA
ATOM     34  H   UNL     1      -0.459  11.374  23.923  0.00  0.00    +0.000 HD
ENDBRANCH  31  33
ENDBRANCH  26  29
ENDBRANCH  21  23
ENDBRANCH  20  21
ENDBRANCH   5  20
TORSDOF 7
ENDMDL
MODEL 8
REMARK VINA RESULT:      -8.2      2.840      5.680
REMARK  Name = 
REMARK  9 active torsions:
REMARK  status: ('A' for Active; 'I' for Inactive)
REMARK    1  A    between atoms: C_1  and  C_2
REMARK    2  A    between atoms: C_5  and  N_6
REMARK    3  A    between atoms: C_8  and  C_9
REMARK    4  A    between atoms: C_16  and  C_17
REMARK    5  A    between atoms: C_17  and  N_18
REMARK    6  A    between atoms: N_18  and  C_19
REMARK    7  A    between atoms: C_22  and  C_23
REMARK    8  A    between atoms: N_25  and  O_26
REMARK    9  A    between atoms: C_30  and  C_31
REMARK                            x       y       z     vdW  Elec       q    Type
REMARK                         _______ _______ _______ _____ _____    ______ ____
ROOT
ATOM      1  N   UNL     1       1.788   8.668  18.598  0.00  0.00    +0.000 N 
ATOM      2  N   UNL     1       2.356   8.079  17.504  0.00  0.00    +0.000 NA
ATOM      3  C   UNL     1       2.990   7.021  18.030  0.00  0.00    +0.000 A 
ATOM      4  N   UNL     1       2.716   6.821  19.357  0.00  0.00    +0.000 NA
ATOM      5  C   UNL     1       1.939   7.830  19.689  0.00  0.00    +0.000 A 
ENDROOT
BRANCH   1  10
ATOM      6  C   UNL     1      -0.377  13.996  18.505  0.00  0.00    +0.000 C 
ATOM      7  C   UNL     1       0.155  12.589  18.470  0.00  0.00    +0.000 A 
ATOM      8  C   UNL     1       1.541  12.376  18.419  0.00  0.00    +0.000 A 
ATOM      9  C   UNL     1       2.073  11.083  18.460  0.00  0.00    +0.000 A 
ATOM     10  C   UNL     1       1.223   9.972  18.501  0.00  0.00    +0.000 A 
ATOM     11  C   UNL     1      -0.163  10.177  18.521  0.00  0.00    +0.000 A 
ATOM     12  C   UNL     1      -0.707  11.477  18.524  0.00  0.00    +0.000 A 
ATOM     13  C   UNL     1      -2.200  11.652  18.624  0.00  0.00    +0.000 C 
ENDBRANCH   1  10
BRANCH   3  14
ATOM     14  C   UNL     1       3.898   6.118  17.322  0.00  0.00    +0.000 A 
ATOM     15  C   UNL     1       4.938   6.587  16.512  0.00  0.00    +0.000 A 
ATOM     16  C   UNL     1       5.788   5.684  15.860  0.00  0.00    +0.000 A 
ATOM     17  C   UNL     1       5.613   4.308  16.015  0.00  0.00    +0.000 A 
ATOM     18  C   UNL     1       4.589   3.828  16.826  0.00  0.00    +0.000 A 
ATOM     19  C   UNL     1       3.740   4.728  17.474  0.00  0.00    +0.000 A 
ENDBRANCH   3  14
BRANCH   5  20
ATOM     20  C   UNL     1       1.287   7.969  21.019  0.00  0.00    +0.000 C 
BRANCH  20  21
ATOM     21  N   UNL     1       1.698   9.130  21.815  0.00  0.00    +0.000 N 
ATOM     22  H   UNL     1       2.458   9.631  21.358  0.00  0.00    +0.000 HD
BRANCH  21  23
ATOM     23  C   UNL     1       0.676  10.011  22.209  0.00  0.00    +0.000 A 
ATOM     24  C   UNL     1       0.624  11.345  21.790  0.00  0.00    +0.000 A 
ATOM     25  C   UNL     1      -0.442  12.177  22.145  0.00  0.00    +0.000 A 
ATOM     26  C   UNL     1      -1.508  11.687  22.906  0.00  0.00    +0.000 A 
ATOM     27  C   UNL     1      -1.483  10.349  23.312  0.00  0.00    +0.000 A 
ATOM     28  C   UNL     1      -0.411   9.519  22.944  0.00  0.00    +0.000 A 
BRANCH  26  29
ATOM     29  C   UNL     1      -2.612  12.634  23.234  0.00  0.00    +0.000 C 
ATOM     30  O   UNL     1      -2.525  13.830  22.954  0.00  0.00    +0.000 OA
ATOM     31  N   UNL     1      -3.746  12.126  23.824  0.00  0.00    +0.000 N 
ATOM     32  H   UNL     1      -3.997  11.148  23.843  0.00  0.00    +0.000 HD
BRANCH  31  33
ATOM     33  O   UNL     1      -4.815  13.045  23.957  0.00  0.00    +0.000 OA
ATOM     34  H   UNL     1      -5.138  12.855  24.867  0.00  0.00    +0.000 HD
ENDBRANCH  31  33
ENDBRANCH  26  29
ENDBRANCH  21  23
ENDBRANCH  20  21
ENDBRANCH   5  20
TORSDOF 7
ENDMDL
MODEL 9
REMARK VINA RESULT:      -8.1      1.435      1.885
REMARK  Name = 
REMARK  9 active torsions:
REMARK  status: ('A' for Active; 'I' for Inactive)
REMARK    1  A    between atoms: C_1  and  C_2
REMARK    2  A    between atoms: C_5  and  N_6
REMARK    3  A    between atoms: C_8  and  C_9
REMARK    4  A    between atoms: C_16  and  C_17
REMARK    5  A    between atoms: C_17  and  N_18
REMARK    6  A    between atoms: N_18  and  C_19
REMARK    7  A    between atoms: C_22  and  C_23
REMARK    8  A    between atoms: N_25  and  O_26
REMARK    9  A    between atoms: C_30  and  C_31
REMARK                            x       y       z     vdW  Elec       q    Type
REMARK                         _______ _______ _______ _____ _____    ______ ____
ROOT
ATOM      1  N   UNL     1       4.350   4.965  17.308  0.00  0.00    +0.000 N 
ATOM      2  N   UNL     1       5.083   4.174  16.470  0.00  0.00    +0.000 NA
ATOM      3  C   UNL     1       5.421   5.017  15.483  0.00  0.00    +0.000 A 
ATOM      4  N   UNL     1       5.085   6.321  15.737  0.00  0.00    +0.000 NA
ATOM      5  C   UNL     1       4.453   6.280  16.890  0.00  0.00    +0.000 A 
ENDROOT
BRANCH   1  10
ATOM      6  C   UNL     1       1.513   2.381  21.593  0.00  0.00    +0.000 C 
ATOM      7  C   UNL     1       2.201   3.101  20.465  0.00  0.00    +0.000 A 
ATOM      8  C   UNL     1       3.443   3.713  20.693  0.00  0.00    +0.000 A 
ATOM      9  C   UNL     1       4.145   4.327  19.650  0.00  0.00    +0.000 A 
ATOM     10  C   UNL     1       3.593   4.384  18.366  0.00  0.00    +0.000 A 
ATOM     11  C   UNL     1       2.339   3.801  18.139  0.00  0.00    +0.000 A 
ATOM     12  C   UNL     1       1.644   3.143  19.173  0.00  0.00    +0.000 A 
ATOM     13  C   UNL     1       0.334   2.463  18.866  0.00  0.00    +0.000 C 
ENDBRANCH   1  10
BRANCH   3  14
ATOM     14  C   UNL     1       6.087   4.659  14.231  0.00  0.00    +0.000 A 
ATOM     15  C   UNL     1       5.578   3.687  13.364  0.00  0.00    +0.000 A 
ATOM     16  C   UNL     1       6.247   3.384  12.170  0.00  0.00    +0.000 A 
ATOM     17  C   UNL     1       7.424   4.050  11.829  0.00  0.00    +0.000 A 
ATOM     18  C   UNL     1       7.937   5.027  12.678  0.00  0.00    +0.000 A 
ATOM     19  C   UNL     1       7.272   5.328  13.868  0.00  0.00    +0.000 A 
ENDBRANCH   3  14
BRANCH   5  20
ATOM     20  C   UNL     1       4.002   7.490  17.630  0.00  0.00    +0.000 C 
BRANCH  20  21
ATOM     21  N   UNL     1       3.045   7.256  18.715  0.00  0.00    +0.000 N 
ATOM     22  H   UNL     1       3.530   7.050  19.588  0.00  0.00    +0.000 HD
BRANCH  21  23
ATOM     23  C   UNL     1       2.062   8.243  18.906  0.00  0.00    +0.000 A 
ATOM     24  C   UNL     1       1.488   8.954  17.847  0.00  0.00    +0.000 A 
ATOM     25  C   UNL     1       0.465   9.882  18.064  0.00  0.00    +0.000 A 
ATOM     26  C   UNL     1      -0.039  10.102  19.350  0.00  0.00    +0.000 A 
ATOM     27  C   UNL     1       0.507   9.380  20.417  0.00  0.00    +0.000 A 
ATOM     28  C   UNL     1       1.530   8.446  20.187  0.00  0.00    +0.000 A 
BRANCH  26  29
ATOM     29  C   UNL     1      -1.137  11.099  19.498  0.00  0.00    +0.000 C 
ATOM     30  O   UNL     1      -1.270  11.745  20.538  0.00  0.00    +0.000 OA
ATOM     31  N   UNL     1      -1.975  11.303  18.427  0.00  0.00    +0.000 N 
ATOM     32  H   UNL     1      -1.777  11.017  17.478  0.00  0.00    +0.000 HD
BRANCH  31  33
ATOM     33  O   UNL     1      -2.888  12.375  18.576  0.00  0.00    +0.000 OA
ATOM     34  H   UNL     1      -3.701  11.912  18.880  0.00  0.00    +0.000 HD
ENDBRANCH  31  33
ENDBRANCH  26  29
ENDBRANCH  21  23
ENDBRANCH  20  21
ENDBRANCH   5  20
TORSDOF 7
ENDMDL
