MODEL 1
REMARK VINA RESULT:      -8.2      0.000      0.000
REMARK  Name = 
REMARK  7 active torsions:
REMARK  status: ('A' for Active; 'I' for Inactive)
REMARK    1  A    between atoms: C_1  and  O_2
REMARK    2  A    between atoms: O_2  and  C_3
REMARK    3  A    between atoms: C_10  and  C_11
REMARK    4  A    between atoms: C_11  and  C_13
REMARK    5  A    between atoms: C_13  and  C_14
REMARK    6  A    between atoms: C_14  and  C_16
REMARK    7  A    between atoms: C_16  and  O_18
REMARK                            x       y       z     vdW  Elec       q    Type
REMARK                         _______ _______ _______ _____ _____    ______ ____
ROOT
ATOM      1  C   UNL     1       1.670   9.337  18.781  0.00  0.00    +0.000 A 
ATOM      2  C   UNL     1       1.108   8.755  19.906  0.00  0.00    +0.000 A 
ATOM      3  C   UNL     1       1.463   7.452  20.270  0.00  0.00    +0.000 A 
ATOM      4  C   UNL     1       2.385   6.669  19.526  0.00  0.00    +0.000 A 
ATOM      5  C   UNL     1       2.942   7.285  18.389  0.00  0.00    +0.000 A 
ATOM      6  C   UNL     1       2.593   8.603  18.037  0.00  0.00    +0.000 A 
ATOM      7  C   UNL     1       3.838   6.577  17.587  0.00  0.00    +0.000 A 
ATOM      8  C   UNL     1       4.170   5.238  17.849  0.00  0.00    +0.000 A 
ATOM      9  C   UNL     1       3.640   4.585  18.999  0.00  0.00    +0.000 A 
ATOM     10  C   UNL     1       3.924   3.238  19.353  0.00  0.00    +0.000 A 
ATOM     11  C   UNL     1       3.405   2.634  20.501  0.00  0.00    +0.000 A 
ATOM     12  C   UNL     1       2.580   3.355  21.339  0.00  0.00    +0.000 A 
ATOM     13  C   UNL     1       2.263   4.670  21.015  0.00  0.00    +0.000 A 
ATOM     14  C   UNL     1       2.759   5.319  19.853  0.00  0.00    +0.000 A 
ENDROOT
BRANCH   1  16
ATOM     15  C   UNL     1       1.030  11.568  19.268  0.00  0.00    +0.000 C 
ATOM     16  O   UNL     1       1.402  10.589  18.304  0.00  0.00    +0.000 OA
ENDBRANCH   1  16
BRANCH   8  17
ATOM     17  C   UNL     1       5.097   4.566  16.863  0.00  0.00    +0.000 C 
ATOM     18  O   UNL     1       4.683   4.054  15.827  0.00  0.00    +0.000 OA
BRANCH  17  19
ATOM     19  C   UNL     1       6.564   4.463  17.223  0.00  0.00    +0.000 C 
BRANCH  19  20
ATOM     20  C   UNL     1       7.228   5.776  17.493  0.00  0.00    +0.000 C 
ATOM     21  O   UNL     1       7.610   6.567  16.633  0.00  0.00    +0.000 OA
BRANCH  20  22
ATOM     22  C   UNL     1       7.624   6.065  18.936  0.00  0.00    +0.000 C 
ATOM     23  O   UNL     1       7.291   5.366  19.867  0.00  0.00    +0.000 OA
BRANCH  22  24
ATOM     24  O   UNL     1       8.463   7.119  18.992  0.00  0.00    +0.000 OA
ATOM     25  H   UNL     1       9.228   6.894  19.573  0.00  0.00    +0.000 HD
ENDBRANCH  22  24
ENDBRANCH  20  22
ENDBRANCH  19  20
ENDBRANCH  17  19
ENDBRANCH   8  17
TORSDOF 6
ENDMDL
MODEL 2
REMARK VINA RESULT:      -8.1      1.404      2.174
REMARK  Name = 
REMARK  7 active torsions:
REMARK  status: ('A' for Active; 'I' for Inactive)
REMARK    1  A    between atoms: C_1  and  O_2
REMARK    2  A    between atoms: O_2  and  C_3
REMARK    3  A    between atoms: C_10  and  C_11
REMARK    4  A    between atoms: C_11  and  C_13
REMARK    5  A    between atoms: C_13  and  C_14
REMARK    6  A    between atoms: C_14  and  C_16
REMARK    7  A    between atoms: C_16  and  O_18
REMARK                            x       y       z     vdW  Elec       q    Type
REMARK                         _______ _______ _______ _____ _____    ______ ____
ROOT
ATOM      1  C   UNL     1       1.018   9.356  19.639  0.00  0.00    +0.000 A 
ATOM      2  C   UNL     1       0.591   8.620  20.732  0.00  0.00    +0.000 A 
ATOM      3  C   UNL     1       1.051   7.311  20.916  0.00  0.00    +0.000 A 
ATOM      4  C   UNL     1       1.947   6.677  20.016  0.00  0.00    +0.000 A 
ATOM      5  C   UNL     1       2.367   7.449  18.915  0.00  0.00    +0.000 A 
ATOM      6  C   UNL     1       1.913   8.771  18.745  0.00  0.00    +0.000 A 
ATOM      7  C   UNL     1       3.229   6.893  17.969  0.00  0.00    +0.000 A 
ATOM      8  C   UNL     1       3.659   5.558  18.049  0.00  0.00    +0.000 A 
ATOM      9  C   UNL     1       3.269   4.751  19.157  0.00  0.00    +0.000 A 
ATOM     10  C   UNL     1       3.660   3.395  19.331  0.00  0.00    +0.000 A 
ATOM     11  C   UNL     1       3.279   2.637  20.441  0.00  0.00    +0.000 A 
ATOM     12  C   UNL     1       2.489   3.206  21.419  0.00  0.00    +0.000 A 
ATOM     13  C   UNL     1       2.071   4.525  21.273  0.00  0.00    +0.000 A 
ATOM     14  C   UNL     1       2.425   5.327  20.157  0.00  0.00    +0.000 A 
ENDROOT
BRANCH   1  16
ATOM     15  C   UNL     1       1.672  11.521  18.922  0.00  0.00    +0.000 C 
ATOM     16  O   UNL     1       0.638  10.632  19.331  0.00  0.00    +0.000 OA
ENDBRANCH   1  16
BRANCH   8  17
ATOM     17  C   UNL     1       4.533   5.062  16.922  0.00  0.00    +0.000 C 
ATOM     18  O   UNL     1       4.239   4.070  16.260  0.00  0.00    +0.000 OA
BRANCH  17  19
ATOM     19  C   UNL     1       5.845   5.776  16.673  0.00  0.00    +0.000 C 
BRANCH  19  20
ATOM     20  C   UNL     1       6.947   4.891  16.185  0.00  0.00    +0.000 C 
ATOM     21  O   UNL     1       7.846   4.427  16.884  0.00  0.00    +0.000 OA
BRANCH  20  22
ATOM     22  C   UNL     1       7.065   4.702  14.677  0.00  0.00    +0.000 C 
ATOM     23  O   UNL     1       7.739   5.420  13.971  0.00  0.00    +0.000 OA
BRANCH  22  24
ATOM     24  O   UNL     1       6.415   3.587  14.289  0.00  0.00    +0.000 OA
ATOM     25  H   UNL     1       6.496   3.488  13.311  0.00  0.00    +0.000 HD
ENDBRANCH  22  24
ENDBRANCH  20  22
ENDBRANCH  19  20
ENDBRANCH  17  19
ENDBRANCH   8  17
TORSDOF 6
ENDMDL
MODEL 3
REMARK VINA RESULT:      -8.0      0.732      1.018
REMARK  Name = 
REMARK  7 active torsions:
REMARK  status: ('A' for Active; 'I' for Inactive)
REMARK    1  A    between atoms: C_1  and  O_2
REMARK    2  A    between atoms: O_2  and  C_3
REMARK    3  A    between atoms: C_10  and  C_11
REMARK    4  A    between atoms: C_11  and  C_13
REMARK    5  A    between atoms: C_13  and  C_14
REMARK    6  A    between atoms: C_14  and  C_16
REMARK    7  A    between atoms: C_16  and  O_18
REMARK                            x       y       z     vdW  Elec       q    Type
REMARK                         _______ _______ _______ _____ _____    ______ ____
ROOT
ATOM      1  C   UNL     1       1.504   9.328  19.107  0.00  0.00    +0.000 A 
ATOM      2  C   UNL     1       0.964   8.723  20.231  0.00  0.00    +0.000 A 
ATOM      3  C   UNL     1       1.317   7.409  20.556  0.00  0.00    +0.000 A 
ATOM      4  C   UNL     1       2.215   6.638  19.772  0.00  0.00    +0.000 A 
ATOM      5  C   UNL     1       2.751   7.278  18.637  0.00  0.00    +0.000 A 
ATOM      6  C   UNL     1       2.403   8.606  18.326  0.00  0.00    +0.000 A 
ATOM      7  C   UNL     1       3.623   6.582  17.798  0.00  0.00    +0.000 A 
ATOM      8  C   UNL     1       3.950   5.235  18.020  0.00  0.00    +0.000 A 
ATOM      9  C   UNL     1       3.442   4.559  19.167  0.00  0.00    +0.000 A 
ATOM     10  C   UNL     1       3.724   3.202  19.482  0.00  0.00    +0.000 A 
ATOM     11  C   UNL     1       3.227   2.573  20.627  0.00  0.00    +0.000 A 
ATOM     12  C   UNL     1       2.427   3.280  21.501  0.00  0.00    +0.000 A 
ATOM     13  C   UNL     1       2.113   4.605  21.215  0.00  0.00    +0.000 A 
ATOM     14  C   UNL     1       2.586   5.278  20.058  0.00  0.00    +0.000 A 
ENDROOT
BRANCH   1  16
ATOM     15  C   UNL     1      -0.124  11.013  18.733  0.00  0.00    +0.000 C 
ATOM     16  O   UNL     1       1.234  10.593  18.667  0.00  0.00    +0.000 OA
ENDBRANCH   1  16
BRANCH   8  17
ATOM     17  C   UNL     1       4.849   4.581  16.998  0.00  0.00    +0.000 C 
ATOM     18  O   UNL     1       4.399   3.989  16.021  0.00  0.00    +0.000 OA
BRANCH  17  19
ATOM     19  C   UNL     1       6.343   4.600  17.248  0.00  0.00    +0.000 C 
BRANCH  19  20
ATOM     20  C   UNL     1       7.063   5.741  16.603  0.00  0.00    +0.000 C 
ATOM     21  O   UNL     1       7.471   5.758  15.443  0.00  0.00    +0.000 OA
BRANCH  20  22
ATOM     22  C   UNL     1       7.481   6.894  17.509  0.00  0.00    +0.000 C 
ATOM     23  O   UNL     1       7.478   8.051  17.152  0.00  0.00    +0.000 OA
BRANCH  22  24
ATOM     24  O   UNL     1       7.739   6.446  18.754  0.00  0.00    +0.000 OA
ATOM     25  H   UNL     1       8.209   5.580  18.696  0.00  0.00    +0.000 HD
ENDBRANCH  22  24
ENDBRANCH  20  22
ENDBRANCH  19  20
ENDBRANCH  17  19
ENDBRANCH   8  17
TORSDOF 6
ENDMDL
MODEL 4
REMARK VINA RESULT:      -7.9      1.042      1.280
REMARK  Name = 
REMARK  7 active torsions:
REMARK  status: ('A' for Active; 'I' for Inactive)
REMARK    1  A    between atoms: C_1  and  O_2
REMARK    2  A    between atoms: O_2  and  C_3
REMARK    3  A    between atoms: C_10  and  C_11
REMARK    4  A    between atoms: C_11  and  C_13
REMARK    5  A    between atoms: C_13  and  C_14
REMARK    6  A    between atoms: C_14  and  C_16
REMARK    7  A    between atoms: C_16  and  O_18
REMARK                            x       y       z     vdW  Elec       q    Type
REMARK                         _______ _______ _______ _____ _____    ______ ____
ROOT
ATOM      1  C   UNL     1       1.042   9.345  19.895  0.00  0.00    +0.000 A 
ATOM      2  C   UNL     1       0.660   8.554  20.966  0.00  0.00    +0.000 A 
ATOM      3  C   UNL     1       1.127   7.239  21.065  0.00  0.00    +0.000 A 
ATOM      4  C   UNL     1       1.987   6.653  20.100  0.00  0.00    +0.000 A 
ATOM      5  C   UNL     1       2.362   7.480  19.023  0.00  0.00    +0.000 A 
ATOM      6  C   UNL     1       1.901   8.807  18.938  0.00  0.00    +0.000 A 
ATOM      7  C   UNL     1       3.185   6.974  18.016  0.00  0.00    +0.000 A 
ATOM      8  C   UNL     1       3.619   5.638  18.012  0.00  0.00    +0.000 A 
ATOM      9  C   UNL     1       3.274   4.775  19.093  0.00  0.00    +0.000 A 
ATOM     10  C   UNL     1       3.673   3.414  19.183  0.00  0.00    +0.000 A 
ATOM     11  C   UNL     1       3.337   2.600  20.268  0.00  0.00    +0.000 A 
ATOM     12  C   UNL     1       2.587   3.117  21.305  0.00  0.00    +0.000 A 
ATOM     13  C   UNL     1       2.162   4.441  21.241  0.00  0.00    +0.000 A 
ATOM     14  C   UNL     1       2.471   5.299  20.153  0.00  0.00    +0.000 A 
ENDROOT
BRANCH   1  16
ATOM     15  C   UNL     1       0.175  11.361  20.794  0.00  0.00    +0.000 C 
ATOM     16  O   UNL     1       0.650  10.634  19.666  0.00  0.00    +0.000 OA
ENDBRANCH   1  16
BRANCH   8  17
ATOM     17  C   UNL     1       4.447   5.200  16.827  0.00  0.00    +0.000 C 
ATOM     18  O   UNL     1       4.373   4.065  16.366  0.00  0.00    +0.000 OA
BRANCH  17  19
ATOM     19  C   UNL     1       5.450   6.183  16.260  0.00  0.00    +0.000 C 
BRANCH  19  20
ATOM     20  C   UNL     1       6.876   5.745  16.372  0.00  0.00    +0.000 C 
ATOM     21  O   UNL     1       7.594   5.420  15.428  0.00  0.00    +0.000 OA
BRANCH  20  22
ATOM     22  C   UNL     1       7.417   5.508  17.777  0.00  0.00    +0.000 C 
ATOM     23  O   UNL     1       7.613   6.402  18.570  0.00  0.00    +0.000 OA
BRANCH  22  24
ATOM     24  O   UNL     1       7.531   4.187  18.022  0.00  0.00    +0.000 OA
ATOM     25  H   UNL     1       7.640   4.045  18.993  0.00  0.00    +0.000 HD
ENDBRANCH  22  24
ENDBRANCH  20  22
ENDBRANCH  19  20
ENDBRANCH  17  19
ENDBRANCH   8  17
TORSDOF 6
ENDMDL
MODEL 5
REMARK VINA RESULT:      -7.8      2.251      6.159
REMARK  Name = 
REMARK  7 active torsions:
REMARK  status: ('A' for Active; 'I' for Inactive)
REMARK    1  A    between atoms: C_1  and  O_2
REMARK    2  A    between atoms: O_2  and  C_3
REMARK    3  A    between atoms: C_10  and  C_11
REMARK    4  A    between atoms: C_11  and  C_13
REMARK    5  A    between atoms: C_13  and  C_14
REMARK    6  A    between atoms: C_14  and  C_16
REMARK    7  A    between atoms: C_16  and  O_18
REMARK                            x       y       z     vdW  Elec       q    Type
REMARK                         _______ _______ _______ _____ _____    ______ ____
ROOT
ATOM      1  C   UNL     1       5.974   5.213  15.675  0.00  0.00    +0.000 A 
ATOM      2  C   UNL     1       5.722   3.882  15.965  0.00  0.00    +0.000 A 
ATOM      3  C   UNL     1       4.728   3.545  16.889  0.00  0.00    +0.000 A 
ATOM      4  C   UNL     1       3.948   4.516  17.570  0.00  0.00    +0.000 A 
ATOM      5  C   UNL     1       4.223   5.861  17.254  0.00  0.00    +0.000 A 
ATOM      6  C   UNL     1       5.215   6.193  16.311  0.00  0.00    +0.000 A 
ATOM      7  C   UNL     1       3.519   6.880  17.897  0.00  0.00    +0.000 A 
ATOM      8  C   UNL     1       2.570   6.612  18.896  0.00  0.00    +0.000 A 
ATOM      9  C   UNL     1       2.252   5.263  19.231  0.00  0.00    +0.000 A 
ATOM     10  C   UNL     1       1.300   4.891  20.219  0.00  0.00    +0.000 A 
ATOM     11  C   UNL     1       0.994   3.559  20.508  0.00  0.00    +0.000 A 
ATOM     12  C   UNL     1       1.632   2.547  19.820  0.00  0.00    +0.000 A 
ATOM     13  C   UNL     1       2.585   2.873  18.860  0.00  0.00    +0.000 A 
ATOM     14  C   UNL     1       2.933   4.211  18.543  0.00  0.00    +0.000 A 
ENDROOT
BRANCH   1  16
ATOM     15  C   UNL     1       7.205   4.868  13.677  0.00  0.00    +0.000 C 
ATOM     16  O   UNL     1       6.922   5.682  14.809  0.00  0.00    +0.000 OA
ENDBRANCH   1  16
BRANCH   8  17
ATOM     17  C   UNL     1       1.932   7.808  19.561  0.00  0.00    +0.000 C 
ATOM     18  O   UNL     1       1.567   8.790  18.920  0.00  0.00    +0.000 OA
BRANCH  17  19
ATOM     19  C   UNL     1       1.824   7.809  21.071  0.00  0.00    +0.000 C 
BRANCH  19  20
ATOM     20  C   UNL     1       0.589   8.463  21.603  0.00  0.00    +0.000 C 
ATOM     21  O   UNL     1      -0.561   8.074  21.405  0.00  0.00    +0.000 OA
BRANCH  20  22
ATOM     22  C   UNL     1       0.763   9.814  22.285  0.00  0.00    +0.000 C 
ATOM     23  O   UNL     1       1.030  10.831  21.683  0.00  0.00    +0.000 OA
BRANCH  22  24
ATOM     24  O   UNL     1       0.474   9.720  23.599  0.00  0.00    +0.000 OA
ATOM     25  H   UNL     1       1.199  10.137  24.122  0.00  0.00    +0.000 HD
ENDBRANCH  22  24
ENDBRANCH  20  22
ENDBRANCH  19  20
ENDBRANCH  17  19
ENDBRANCH   8  17
TORSDOF 6
ENDMDL
MODEL 6
REMARK VINA RESULT:      -7.8      1.053      1.313
REMARK  Name = 
REMARK  7 active torsions:
REMARK  status: ('A' for Active; 'I' for Inactive)
REMARK    1  A    between atoms: C_1  and  O_2
REMARK    2  A    between atoms: O_2  and  C_3
REMARK    3  A    between atoms: C_10  and  C_11
REMARK    4  A    between atoms: C_11  and  C_13
REMARK    5  A    between atoms: C_13  and  C_14
REMARK    6  A    between atoms: C_14  and  C_16
REMARK    7  A    between atoms: C_16  and  O_18
REMARK                            x       y       z     vdW  Elec       q    Type
REMARK                         _______ _______ _______ _____ _____    ______ ____
ROOT
ATOM      1  C   UNL     1       1.198  10.127  18.936  0.00  0.00    +0.000 A 
ATOM      2  C   UNL     1       0.675   9.504  20.058  0.00  0.00    +0.000 A 
ATOM      3  C   UNL     1       1.048   8.192  20.366  0.00  0.00    +0.000 A 
ATOM      4  C   UNL     1       1.949   7.441  19.566  0.00  0.00    +0.000 A 
ATOM      5  C   UNL     1       2.467   8.099  18.434  0.00  0.00    +0.000 A 
ATOM      6  C   UNL     1       2.099   9.426  18.139  0.00  0.00    +0.000 A 
ATOM      7  C   UNL     1       3.340   7.424  17.580  0.00  0.00    +0.000 A 
ATOM      8  C   UNL     1       3.687   6.078  17.784  0.00  0.00    +0.000 A 
ATOM      9  C   UNL     1       3.197   5.384  18.928  0.00  0.00    +0.000 A 
ATOM     10  C   UNL     1       3.499   4.027  19.226  0.00  0.00    +0.000 A 
ATOM     11  C   UNL     1       3.021   3.380  20.368  0.00  0.00    +0.000 A 
ATOM     12  C   UNL     1       2.219   4.067  21.257  0.00  0.00    +0.000 A 
ATOM     13  C   UNL     1       1.886   5.391  20.988  0.00  0.00    +0.000 A 
ATOM     14  C   UNL     1       2.340   6.082  19.834  0.00  0.00    +0.000 A 
ENDROOT
BRANCH   1  16
ATOM     15  C   UNL     1      -0.405  11.870  18.785  0.00  0.00    +0.000 C 
ATOM     16  O   UNL     1       0.908  11.394  18.512  0.00  0.00    +0.000 OA
ENDBRANCH   1  16
BRANCH   8  17
ATOM     17  C   UNL     1       4.585   5.447  16.747  0.00  0.00    +0.000 C 
ATOM     18  O   UNL     1       4.392   4.311  16.325  0.00  0.00    +0.000 OA
BRANCH  17  19
ATOM     19  C   UNL     1       5.799   6.228  16.288  0.00  0.00    +0.000 C 
BRANCH  19  20
ATOM     20  C   UNL     1       6.906   6.294  17.291  0.00  0.00    +0.000 C 
ATOM     21  O   UNL     1       7.529   7.310  17.594  0.00  0.00    +0.000 OA
BRANCH  20  22
ATOM     22  C   UNL     1       7.420   4.968  17.841  0.00  0.00    +0.000 C 
ATOM     23  O   UNL     1       8.127   4.217  17.206  0.00  0.00    +0.000 OA
BRANCH  22  24
ATOM     24  O   UNL     1       7.066   4.825  19.134  0.00  0.00    +0.000 OA
ATOM     25  H   UNL     1       7.080   5.708  19.574  0.00  0.00    +0.000 HD
ENDBRANCH  22  24
ENDBRANCH  20  22
ENDBRANCH  19  20
ENDBRANCH  17  19
ENDBRANCH   8  17
TORSDOF 6
ENDMDL
MODEL 7
REMARK VINA RESULT:      -7.7      1.364      1.941
REMARK  Name = 
REMARK  7 active torsions:
REMARK  status: ('A' for Active; 'I' for Inactive)
REMARK    1  A    between atoms: C_1  and  O_2
REMARK    2  A    between atoms: O_2  and  C_3
REMARK    3  A    between atoms: C_10  and  C_11
REMARK    4  A    between atoms: C_11  and  C_13
REMARK    5  A    between atoms: C_13  and  C_14
REMARK    6  A    between atoms: C_14  and  C_16
REMARK    7  A    between atoms: C_16  and  O_18
REMARK                            x       y       z     vdW  Elec       q    Type
REMARK                         _______ _______ _______ _____ _____    ______ ____
ROOT
ATOM      1  C   UNL     1       1.612   9.385  18.946  0.00  0.00    +0.000 A 
ATOM      2  C   UNL     1       1.098   8.884  20.131  0.00  0.00    +0.000 A 
ATOM      3  C   UNL     1       1.386   7.572  20.519  0.00  0.00    +0.000 A 
ATOM      4  C   UNL     1       2.190   6.698  19.740  0.00  0.00    +0.000 A 
ATOM      5  C   UNL     1       2.702   7.233  18.542  0.00  0.00    +0.000 A 
ATOM      6  C   UNL     1       2.421   8.561  18.166  0.00  0.00    +0.000 A 
ATOM      7  C   UNL     1       3.482   6.434  17.705  0.00  0.00    +0.000 A 
ATOM      8  C   UNL     1       3.736   5.083  17.993  0.00  0.00    +0.000 A 
ATOM      9  C   UNL     1       3.250   4.511  19.204  0.00  0.00    +0.000 A 
ATOM     10  C   UNL     1       3.464   3.159  19.588  0.00  0.00    +0.000 A 
ATOM     11  C   UNL     1       2.992   2.633  20.794  0.00  0.00    +0.000 A 
ATOM     12  C   UNL     1       2.286   3.441  21.662  0.00  0.00    +0.000 A 
ATOM     13  C   UNL     1       2.040   4.765  21.310  0.00  0.00    +0.000 A 
ATOM     14  C   UNL     1       2.491   5.336  20.091  0.00  0.00    +0.000 A 
ENDROOT
BRANCH   1  16
ATOM     15  C   UNL     1       0.254  11.329  18.926  0.00  0.00    +0.000 C 
ATOM     16  O   UNL     1       1.399  10.637  18.442  0.00  0.00    +0.000 OA
ENDBRANCH   1  16
BRANCH   8  17
ATOM     17  C   UNL     1       4.535   4.313  16.969  0.00  0.00    +0.000 C 
ATOM     18  O   UNL     1       4.001   3.556  16.163  0.00  0.00    +0.000 OA
BRANCH  17  19
ATOM     19  C   UNL     1       6.045   4.432  17.008  0.00  0.00    +0.000 C 
BRANCH  19  20
ATOM     20  C   UNL     1       6.615   5.392  16.014  0.00  0.00    +0.000 C 
ATOM     21  O   UNL     1       6.638   6.615  16.142  0.00  0.00    +0.000 OA
BRANCH  20  22
ATOM     22  C   UNL     1       7.032   4.822  14.664  0.00  0.00    +0.000 C 
ATOM     23  O   UNL     1       6.497   3.860  14.158  0.00  0.00    +0.000 OA
BRANCH  22  24
ATOM     24  O   UNL     1       7.978   5.596  14.096  0.00  0.00    +0.000 OA
ATOM     25  H   UNL     1       8.848   5.414  14.526  0.00  0.00    +0.000 HD
ENDBRANCH  22  24
ENDBRANCH  20  22
ENDBRANCH  19  20
ENDBRANCH  17  19
ENDBRANCH   8  17
TORSDOF 6
ENDMDL
MODEL 8
REMARK VINA RESULT:      -7.7      2.511      4.693
REMARK  Name = 
REMARK  7 active torsions:
REMARK  status: ('A' for Active; 'I' for Inactive)
REMARK    1  A    between atoms: C_1  and  O_2
REMARK    2  A    between atoms: O_2  and  C_3
REMARK    3  A    between atoms: C_10  and  C_11
REMARK    4  A    between atoms: C_11  and  C_13
REMARK    5  A    between atoms: C_13  and  C_14
REMARK    6  A    between atoms: C_14  and  C_16
REMARK    7  A    between atoms: C_16  and  O_18
REMARK                            x       y       z     vdW  Elec       q    Type
REMARK                         _______ _______ _______ _____ _____    ______ ____
ROOT
ATOM      1  C   UNL     1       1.650   8.595  19.544  0.00  0.00    +0.000 A 
ATOM      2  C   UNL     1       2.199   9.108  18.380  0.00  0.00    +0.000 A 
ATOM      3  C   UNL     1       3.026   8.306  17.585  0.00  0.00    +0.000 A 
ATOM      4  C   UNL     1       3.348   6.965  17.919  0.00  0.00    +0.000 A 
ATOM      5  C   UNL     1       2.775   6.469  19.106  0.00  0.00    +0.000 A 
ATOM      6  C   UNL     1       1.931   7.276  19.892  0.00  0.00    +0.000 A 
ATOM      7  C   UNL     1       3.060   5.167  19.521  0.00  0.00    +0.000 A 
ATOM      8  C   UNL     1       3.949   4.340  18.815  0.00  0.00    +0.000 A 
ATOM      9  C   UNL     1       4.536   4.801  17.601  0.00  0.00    +0.000 A 
ATOM     10  C   UNL     1       5.437   4.036  16.811  0.00  0.00    +0.000 A 
ATOM     11  C   UNL     1       5.979   4.507  15.613  0.00  0.00    +0.000 A 
ATOM     12  C   UNL     1       5.639   5.766  15.158  0.00  0.00    +0.000 A 
ATOM     13  C   UNL     1       4.775   6.551  15.914  0.00  0.00    +0.000 A 
ATOM     14  C   UNL     1       4.211   6.116  17.142  0.00  0.00    +0.000 A 
ENDROOT
BRANCH   1  16
ATOM     15  C   UNL     1      -0.142  10.120  19.842  0.00  0.00    +0.000 C 
ATOM     16  O   UNL     1       0.843   9.270  20.417  0.00  0.00    +0.000 OA
ENDBRANCH   1  16
BRANCH   8  17
ATOM     17  C   UNL     1       4.224   2.980  19.410  0.00  0.00    +0.000 C 
ATOM     18  O   UNL     1       5.202   2.767  20.121  0.00  0.00    +0.000 OA
BRANCH  17  19
ATOM     19  C   UNL     1       3.297   1.841  19.039  0.00  0.00    +0.000 C 
BRANCH  19  20
ATOM     20  C   UNL     1       1.841   2.169  19.147  0.00  0.00    +0.000 C 
ATOM     21  O   UNL     1       1.071   2.297  18.197  0.00  0.00    +0.000 OA
BRANCH  20  22
ATOM     22  C   UNL     1       1.320   2.551  20.527  0.00  0.00    +0.000 C 
ATOM     23  O   UNL     1       1.845   2.189  21.557  0.00  0.00    +0.000 OA
BRANCH  22  24
ATOM     24  O   UNL     1       0.289   3.413  20.420  0.00  0.00    +0.000 OA
ATOM     25  H   UNL     1      -0.473   3.075  20.947  0.00  0.00    +0.000 HD
ENDBRANCH  22  24
ENDBRANCH  20  22
ENDBRANCH  19  20
ENDBRANCH  17  19
ENDBRANCH   8  17
TORSDOF 6
ENDMDL
MODEL 9
REMARK VINA RESULT:      -7.7      1.425      1.773
REMARK  Name = 
REMARK  7 active torsions:
REMARK  status: ('A' for Active; 'I' for Inactive)
REMARK    1  A    between atoms: C_1  and  O_2
REMARK    2  A    between atoms: O_2  and  C_3
REMARK    3  A    between atoms: C_10  and  C_11
REMARK    4  A    between atoms: C_11  and  C_13
REMARK    5  A    between atoms: C_13  and  C_14
REMARK    6  A    between atoms: C_14  and  C_16
REMARK    7  A    between atoms: C_16  and  O_18
REMARK                            x       y       z     vdW  Elec       q    Type
REMARK                         _______ _______ _______ _____ _____    ______ ____
ROOT
ATOM      1  C   UNL     1       1.469   8.024  20.464  0.00  0.00    +0.000 A 
ATOM      2  C   UNL     1       0.937   6.871  21.018  0.00  0.00    +0.000 A 
ATOM      3  C   UNL     1       1.372   5.618  20.573  0.00  0.00    +0.000 A 
ATOM      4  C   UNL     1       2.347   5.459  19.553  0.00  0.00    +0.000 A 
ATOM      5  C   UNL     1       2.872   6.648  19.010  0.00  0.00    +0.000 A 
ATOM      6  C   UNL     1       2.442   7.906  19.474  0.00  0.00    +0.000 A 
ATOM      7  C   UNL     1       3.817   6.582  17.985  0.00  0.00    +0.000 A 
ATOM      8  C   UNL     1       4.232   5.358  17.435  0.00  0.00    +0.000 A 
ATOM      9  C   UNL     1       3.736   4.134  17.969  0.00  0.00    +0.000 A 
ATOM     10  C   UNL     1       4.104   2.848  17.488  0.00  0.00    +0.000 A 
ATOM     11  C   UNL     1       3.617   1.664  18.048  0.00  0.00    +0.000 A 
ATOM     12  C   UNL     1       2.741   1.723  19.113  0.00  0.00    +0.000 A 
ATOM     13  C   UNL     1       2.343   2.965  19.599  0.00  0.00    +0.000 A 
ATOM     14  C   UNL     1       2.804   4.191  19.052  0.00  0.00    +0.000 A 
ENDROOT
BRANCH   1  16
ATOM     15  C   UNL     1      -0.020   9.463  21.623  0.00  0.00    +0.000 C 
ATOM     16  O   UNL     1       1.125   9.306  20.792  0.00  0.00    +0.000 OA
ENDBRANCH   1  16
BRANCH   8  17
ATOM     17  C   UNL     1       5.207   5.431  16.284  0.00  0.00    +0.000 C 
ATOM     18  O   UNL     1       4.955   4.941  15.187  0.00  0.00    +0.000 OA
BRANCH  17  19
ATOM     19  C   UNL     1       6.560   6.062  16.537  0.00  0.00    +0.000 C 
BRANCH  19  20
ATOM     20  C   UNL     1       7.429   5.301  17.486  0.00  0.00    +0.000 C 
ATOM     21  O   UNL     1       7.982   4.230  17.238  0.00  0.00    +0.000 OA
BRANCH  20  22
ATOM     22  C   UNL     1       7.482   5.799  18.926  0.00  0.00    +0.000 C 
ATOM     23  O   UNL     1       6.895   5.257  19.836  0.00  0.00    +0.000 OA
BRANCH  22  24
ATOM     24  O   UNL     1       8.341   6.831  19.036  0.00  0.00    +0.000 OA
ATOM     25  H   UNL     1       8.826   6.944  18.184  0.00  0.00    +0.000 HD
ENDBRANCH  22  24
ENDBRANCH  20  22
ENDBRANCH  19  20
ENDBRANCH  17  19
ENDBRANCH   8  17
TORSDOF 6
ENDMDL
