MODEL 1
REMARK VINA RESULT:      -7.4      0.000      0.000
REMARK  Name = 
REMARK  4 active torsions:
REMARK  status: ('A' for Active; 'I' for Inactive)
REMARK    1  A    between atoms: C_1  and  C_2
REMARK    2  A    between atoms: C_5  and  C_6
REMARK    3  A    between atoms: C_6  and  C_8
REMARK    4  A    between atoms: C_9  and  C_10
REMARK                            x       y       z     vdW  Elec       q    Type
REMARK                         _______ _______ _______ _____ _____    ______ ____
ROOT
ATOM      1  C   UNL     1       5.420   4.245  18.845  0.00  0.00    +0.000 C 
ATOM      2  C   UNL     1       4.339   3.530  18.498  0.00  0.00    +0.000 C 
ENDROOT
BRANCH   2   3
ATOM      3  C   UNL     1       3.222   3.333  19.437  0.00  0.00    +0.000 A 
ATOM      4  C   UNL     1       3.498   2.721  20.670  0.00  0.00    +0.000 A 
ATOM      5  C   UNL     1       2.487   2.517  21.612  0.00  0.00    +0.000 A 
ATOM      6  C   UNL     1       1.184   2.924  21.338  0.00  0.00    +0.000 A 
ATOM      7  C   UNL     1       0.887   3.517  20.111  0.00  0.00    +0.000 A 
ATOM      8  C   UNL     1       1.897   3.711  19.159  0.00  0.00    +0.000 A 
ATOM      9 CL   UNL     1       1.446   4.412  17.644  0.00  0.00    +0.000 Cl
ENDBRANCH   2   3
BRANCH   1  10
ATOM     10  C   UNL     1       6.554   4.518  17.898  0.00  0.00    +0.000 C 
ATOM     11  O   UNL     1       7.721   4.461  18.289  0.00  0.00    +0.000 OA
BRANCH  10  16
ATOM     12  C   UNL     1       6.223   3.610  13.156  0.00  0.00    +0.000 C 
ATOM     13  C   UNL     1       6.021   4.444  14.358  0.00  0.00    +0.000 A 
ATOM     14  C   UNL     1       5.460   5.683  14.572  0.00  0.00    +0.000 A 
ATOM     15  C   UNL     1       5.564   5.931  15.965  0.00  0.00    +0.000 A 
ATOM     16  C   UNL     1       6.184   4.827  16.525  0.00  0.00    +0.000 A 
ATOM     17  O   UNL     1       6.463   3.924  15.532  0.00  0.00    +0.000 OA
ENDBRANCH  10  16
ENDBRANCH   1  10
TORSDOF 3
ENDMDL
MODEL 2
REMARK VINA RESULT:      -7.4      2.038      3.235
REMARK  Name = 
REMARK  4 active torsions:
REMARK  status: ('A' for Active; 'I' for Inactive)
REMARK    1  A    between atoms: C_1  and  C_2
REMARK    2  A    between atoms: C_5  and  C_6
REMARK    3  A    between atoms: C_6  and  C_8
REMARK    4  A    between atoms: C_9  and  C_10
REMARK                            x       y       z     vdW  Elec       q    Type
REMARK                         _______ _______ _______ _____ _____    ______ ____
ROOT
ATOM      1  C   UNL     1       4.846   4.046  16.905  0.00  0.00    +0.000 C 
ATOM      2  C   UNL     1       4.075   4.707  17.783  0.00  0.00    +0.000 C 
ENDROOT
BRANCH   2   3
ATOM      3  C   UNL     1       2.892   4.072  18.389  0.00  0.00    +0.000 A 
ATOM      4  C   UNL     1       2.547   2.781  17.960  0.00  0.00    +0.000 A 
ATOM      5  C   UNL     1       1.444   2.116  18.504  0.00  0.00    +0.000 A 
ATOM      6  C   UNL     1       0.672   2.729  19.485  0.00  0.00    +0.000 A 
ATOM      7  C   UNL     1       0.989   4.020  19.910  0.00  0.00    +0.000 A 
ATOM      8  C   UNL     1       2.086   4.694  19.358  0.00  0.00    +0.000 A 
ATOM      9 CL   UNL     1       2.394   6.306  19.903  0.00  0.00    +0.000 Cl
ENDBRANCH   2   3
BRANCH   1  10
ATOM     10  C   UNL     1       6.092   4.637  16.310  0.00  0.00    +0.000 C 
ATOM     11  O   UNL     1       6.414   4.374  15.150  0.00  0.00    +0.000 OA
BRANCH  10  16
ATOM     12  C   UNL     1       7.945   8.909  17.629  0.00  0.00    +0.000 C 
ATOM     13  C   UNL     1       7.717   7.459  17.798  0.00  0.00    +0.000 A 
ATOM     14  C   UNL     1       8.109   6.539  18.744  0.00  0.00    +0.000 A 
ATOM     15  C   UNL     1       7.555   5.296  18.343  0.00  0.00    +0.000 A 
ATOM     16  C   UNL     1       6.855   5.526  17.172  0.00  0.00    +0.000 A 
ATOM     17  O   UNL     1       6.964   6.853  16.844  0.00  0.00    +0.000 OA
ENDBRANCH  10  16
ENDBRANCH   1  10
TORSDOF 3
ENDMDL
MODEL 3
REMARK VINA RESULT:      -7.2      1.963      2.404
REMARK  Name = 
REMARK  4 active torsions:
REMARK  status: ('A' for Active; 'I' for Inactive)
REMARK    1  A    between atoms: C_1  and  C_2
REMARK    2  A    between atoms: C_5  and  C_6
REMARK    3  A    between atoms: C_6  and  C_8
REMARK    4  A    between atoms: C_9  and  C_10
REMARK                            x       y       z     vdW  Elec       q    Type
REMARK                         _______ _______ _______ _____ _____    ______ ____
ROOT
ATOM      1  C   UNL     1       5.879   5.150  18.063  0.00  0.00    +0.000 C 
ATOM      2  C   UNL     1       5.001   4.327  18.656  0.00  0.00    +0.000 C 
ENDROOT
BRANCH   2   3
ATOM      3  C   UNL     1       3.818   4.851  19.359  0.00  0.00    +0.000 A 
ATOM      4  C   UNL     1       3.463   6.191  19.141  0.00  0.00    +0.000 A 
ATOM      5  C   UNL     1       2.344   6.748  19.766  0.00  0.00    +0.000 A 
ATOM      6  C   UNL     1       1.561   5.974  20.617  0.00  0.00    +0.000 A 
ATOM      7  C   UNL     1       1.909   4.645  20.860  0.00  0.00    +0.000 A 
ATOM      8  C   UNL     1       3.037   4.087  20.245  0.00  0.00    +0.000 A 
ATOM      9 CL   UNL     1       3.431   2.448  20.626  0.00  0.00    +0.000 Cl
ENDBRANCH   2   3
BRANCH   1  10
ATOM     10  C   UNL     1       7.065   4.654  17.287  0.00  0.00    +0.000 C 
ATOM     11  O   UNL     1       8.120   4.383  17.864  0.00  0.00    +0.000 OA
BRANCH  10  16
ATOM     12  C   UNL     1       8.054   5.560  12.637  0.00  0.00    +0.000 C 
ATOM     13  C   UNL     1       7.300   4.901  13.722  0.00  0.00    +0.000 A 
ATOM     14  C   UNL     1       6.260   3.999  13.746  0.00  0.00    +0.000 A 
ATOM     15  C   UNL     1       5.987   3.744  15.114  0.00  0.00    +0.000 A 
ATOM     16  C   UNL     1       6.876   4.505  15.852  0.00  0.00    +0.000 A 
ATOM     17  O   UNL     1       7.673   5.213  14.990  0.00  0.00    +0.000 OA
ENDBRANCH  10  16
ENDBRANCH   1  10
TORSDOF 3
ENDMDL
MODEL 4
REMARK VINA RESULT:      -7.2      1.802      2.538
REMARK  Name = 
REMARK  4 active torsions:
REMARK  status: ('A' for Active; 'I' for Inactive)
REMARK    1  A    between atoms: C_1  and  C_2
REMARK    2  A    between atoms: C_5  and  C_6
REMARK    3  A    between atoms: C_6  and  C_8
REMARK    4  A    between atoms: C_9  and  C_10
REMARK                            x       y       z     vdW  Elec       q    Type
REMARK                         _______ _______ _______ _____ _____    ______ ____
ROOT
ATOM      1  C   UNL     1       5.148   4.588  15.994  0.00  0.00    +0.000 C 
ATOM      2  C   UNL     1       5.004   4.433  17.319  0.00  0.00    +0.000 C 
ENDROOT
BRANCH   2   3
ATOM      3  C   UNL     1       3.746   3.930  17.897  0.00  0.00    +0.000 A 
ATOM      4  C   UNL     1       3.591   2.541  18.025  0.00  0.00    +0.000 A 
ATOM      5  C   UNL     1       2.428   1.997  18.577  0.00  0.00    +0.000 A 
ATOM      6  C   UNL     1       1.404   2.833  19.013  0.00  0.00    +0.000 A 
ATOM      7  C   UNL     1       1.534   4.216  18.877  0.00  0.00    +0.000 A 
ATOM      8  C   UNL     1       2.693   4.763  18.312  0.00  0.00    +0.000 A 
ATOM      9 CL   UNL     1       2.765   6.481  18.136  0.00  0.00    +0.000 Cl
ENDBRANCH   2   3
BRANCH   1  10
ATOM     10  C   UNL     1       6.432   5.042  15.361  0.00  0.00    +0.000 C 
ATOM     11  O   UNL     1       7.228   5.738  15.995  0.00  0.00    +0.000 OA
BRANCH  10  16
ATOM     12  C   UNL     1       5.630   2.276  11.472  0.00  0.00    +0.000 C 
ATOM     13  C   UNL     1       6.327   3.351  12.207  0.00  0.00    +0.000 A 
ATOM     14  C   UNL     1       7.340   4.225  11.879  0.00  0.00    +0.000 A 
ATOM     15  C   UNL     1       7.559   5.027  13.028  0.00  0.00    +0.000 A 
ATOM     16  C   UNL     1       6.666   4.599  13.995  0.00  0.00    +0.000 A 
ATOM     17  O   UNL     1       5.919   3.570  13.484  0.00  0.00    +0.000 OA
ENDBRANCH  10  16
ENDBRANCH   1  10
TORSDOF 3
ENDMDL
MODEL 5
REMARK VINA RESULT:      -7.2      2.287      3.388
REMARK  Name = 
REMARK  4 active torsions:
REMARK  status: ('A' for Active; 'I' for Inactive)
REMARK    1  A    between atoms: C_1  and  C_2
REMARK    2  A    between atoms: C_5  and  C_6
REMARK    3  A    between atoms: C_6  and  C_8
REMARK    4  A    between atoms: C_9  and  C_10
REMARK                            x       y       z     vdW  Elec       q    Type
REMARK                         _______ _______ _______ _____ _____    ______ ____
ROOT
ATOM      1  C   UNL     1       4.217   5.185  17.174  0.00  0.00    +0.000 C 
ATOM      2  C   UNL     1       4.310   4.608  18.383  0.00  0.00    +0.000 C 
ENDROOT
BRANCH   2   3
ATOM      3  C   UNL     1       3.115   4.104  19.081  0.00  0.00    +0.000 A 
ATOM      4  C   UNL     1       2.427   4.988  19.928  0.00  0.00    +0.000 A 
ATOM      5  C   UNL     1       1.278   4.578  20.610  0.00  0.00    +0.000 A 
ATOM      6  C   UNL     1       0.797   3.282  20.454  0.00  0.00    +0.000 A 
ATOM      7  C   UNL     1       1.479   2.385  19.631  0.00  0.00    +0.000 A 
ATOM      8  C   UNL     1       2.638   2.788  18.956  0.00  0.00    +0.000 A 
ATOM      9 CL   UNL     1       3.453   1.610  17.988  0.00  0.00    +0.000 Cl
ENDBRANCH   2   3
BRANCH   1  10
ATOM     10  C   UNL     1       5.417   5.659  16.404  0.00  0.00    +0.000 C 
ATOM     11  O   UNL     1       5.464   5.526  15.180  0.00  0.00    +0.000 OA
BRANCH  10  16
ATOM     12  C   UNL     1       8.179   9.363  17.842  0.00  0.00    +0.000 C 
ATOM     13  C   UNL     1       7.754   7.949  17.858  0.00  0.00    +0.000 A 
ATOM     14  C   UNL     1       8.173   6.838  18.556  0.00  0.00    +0.000 A 
ATOM     15  C   UNL     1       7.351   5.765  18.124  0.00  0.00    +0.000 A 
ATOM     16  C   UNL     1       6.475   6.280  17.184  0.00  0.00    +0.000 A 
ATOM     17  O   UNL     1       6.733   7.618  17.026  0.00  0.00    +0.000 OA
ENDBRANCH  10  16
ENDBRANCH   1  10
TORSDOF 3
ENDMDL
MODEL 6
REMARK VINA RESULT:      -7.1      1.682      2.007
REMARK  Name = 
REMARK  4 active torsions:
REMARK  status: ('A' for Active; 'I' for Inactive)
REMARK    1  A    between atoms: C_1  and  C_2
REMARK    2  A    between atoms: C_5  and  C_6
REMARK    3  A    between atoms: C_6  and  C_8
REMARK    4  A    between atoms: C_9  and  C_10
REMARK                            x       y       z     vdW  Elec       q    Type
REMARK                         _______ _______ _______ _____ _____    ______ ____
ROOT
ATOM      1  C   UNL     1       5.194   4.196  17.680  0.00  0.00    +0.000 C 
ATOM      2  C   UNL     1       4.008   4.817  17.762  0.00  0.00    +0.000 C 
ENDROOT
BRANCH   2   3
ATOM      3  C   UNL     1       2.865   4.191  18.449  0.00  0.00    +0.000 A 
ATOM      4  C   UNL     1       2.500   2.891  18.067  0.00  0.00    +0.000 A 
ATOM      5  C   UNL     1       1.434   2.234  18.688  0.00  0.00    +0.000 A 
ATOM      6  C   UNL     1       0.719   2.864  19.702  0.00  0.00    +0.000 A 
ATOM      7  C   UNL     1       1.057   4.163  20.082  0.00  0.00    +0.000 A 
ATOM      8  C   UNL     1       2.116   4.830  19.453  0.00  0.00    +0.000 A 
ATOM      9 CL   UNL     1       2.449   6.453  19.947  0.00  0.00    +0.000 Cl
ENDBRANCH   2   3
BRANCH   1  10
ATOM     10  C   UNL     1       6.400   4.824  17.039  0.00  0.00    +0.000 C 
ATOM     11  O   UNL     1       7.205   5.463  17.718  0.00  0.00    +0.000 OA
BRANCH  10  16
ATOM     12  C   UNL     1       8.291   5.699  12.671  0.00  0.00    +0.000 C 
ATOM     13  C   UNL     1       7.388   4.992  13.602  0.00  0.00    +0.000 A 
ATOM     14  C   UNL     1       6.466   3.981  13.448  0.00  0.00    +0.000 A 
ATOM     15  C   UNL     1       5.926   3.736  14.736  0.00  0.00    +0.000 A 
ATOM     16  C   UNL     1       6.548   4.614  15.607  0.00  0.00    +0.000 A 
ATOM     17  O   UNL     1       7.438   5.381  14.902  0.00  0.00    +0.000 OA
ENDBRANCH  10  16
ENDBRANCH   1  10
TORSDOF 3
ENDMDL
MODEL 7
REMARK VINA RESULT:      -7.1      2.437      3.541
REMARK  Name = 
REMARK  4 active torsions:
REMARK  status: ('A' for Active; 'I' for Inactive)
REMARK    1  A    between atoms: C_1  and  C_2
REMARK    2  A    between atoms: C_5  and  C_6
REMARK    3  A    between atoms: C_6  and  C_8
REMARK    4  A    between atoms: C_9  and  C_10
REMARK                            x       y       z     vdW  Elec       q    Type
REMARK                         _______ _______ _______ _____ _____    ______ ____
ROOT
ATOM      1  C   UNL     1       4.308   5.361  16.964  0.00  0.00    +0.000 C 
ATOM      2  C   UNL     1       4.107   5.400  18.290  0.00  0.00    +0.000 C 
ENDROOT
BRANCH   2   3
ATOM      3  C   UNL     1       3.030   4.619  18.922  0.00  0.00    +0.000 A 
ATOM      4  C   UNL     1       2.938   3.253  18.612  0.00  0.00    +0.000 A 
ATOM      5  C   UNL     1       1.949   2.452  19.187  0.00  0.00    +0.000 A 
ATOM      6  C   UNL     1       1.037   3.002  20.084  0.00  0.00    +0.000 A 
ATOM      7  C   UNL     1       1.102   4.361  20.390  0.00  0.00    +0.000 A 
ATOM      8  C   UNL     1       2.085   5.170  19.805  0.00  0.00    +0.000 A 
ATOM      9 CL   UNL     1       2.077   6.853  20.199  0.00  0.00    +0.000 Cl
ENDBRANCH   2   3
BRANCH   1  10
ATOM     10  C   UNL     1       5.430   6.096  16.288  0.00  0.00    +0.000 C 
ATOM     11  O   UNL     1       5.406   6.289  15.071  0.00  0.00    +0.000 OA
BRANCH  10  16
ATOM     12  C   UNL     1       8.447   9.420  18.096  0.00  0.00    +0.000 C 
ATOM     13  C   UNL     1       7.896   8.054  17.994  0.00  0.00    +0.000 A 
ATOM     14  C   UNL     1       8.179   6.864  18.626  0.00  0.00    +0.000 A 
ATOM     15  C   UNL     1       7.285   5.904  18.087  0.00  0.00    +0.000 A 
ATOM     16  C   UNL     1       6.503   6.562  17.152  0.00  0.00    +0.000 A 
ATOM     17  O   UNL     1       6.888   7.876  17.100  0.00  0.00    +0.000 OA
ENDBRANCH  10  16
ENDBRANCH   1  10
TORSDOF 3
ENDMDL
MODEL 8
REMARK VINA RESULT:      -7.1      2.536      3.755
REMARK  Name = 
REMARK  4 active torsions:
REMARK  status: ('A' for Active; 'I' for Inactive)
REMARK    1  A    between atoms: C_1  and  C_2
REMARK    2  A    between atoms: C_5  and  C_6
REMARK    3  A    between atoms: C_6  and  C_8
REMARK    4  A    between atoms: C_9  and  C_10
REMARK                            x       y       z     vdW  Elec       q    Type
REMARK                         _______ _______ _______ _____ _____    ______ ____
ROOT
ATOM      1  C   UNL     1       4.470   5.340  17.019  0.00  0.00    +0.000 C 
ATOM      2  C   UNL     1       4.447   4.118  17.572  0.00  0.00    +0.000 C 
ENDROOT
BRANCH   2   3
ATOM      3  C   UNL     1       3.221   3.582  18.187  0.00  0.00    +0.000 A 
ATOM      4  C   UNL     1       1.988   3.970  17.642  0.00  0.00    +0.000 A 
ATOM      5  C   UNL     1       0.787   3.488  18.169  0.00  0.00    +0.000 A 
ATOM      6  C   UNL     1       0.800   2.607  19.246  0.00  0.00    +0.000 A 
ATOM      7  C   UNL     1       2.016   2.224  19.813  0.00  0.00    +0.000 A 
ATOM      8  C   UNL     1       3.221   2.716  19.295  0.00  0.00    +0.000 A 
ATOM      9 CL   UNL     1       4.686   2.232  20.075  0.00  0.00    +0.000 Cl
ENDBRANCH   2   3
BRANCH   1  10
ATOM     10  C   UNL     1       5.683   5.900  16.330  0.00  0.00    +0.000 C 
ATOM     11  O   UNL     1       5.781   5.852  15.103  0.00  0.00    +0.000 OA
BRANCH  10  16
ATOM     12  C   UNL     1       8.421   9.538  17.971  0.00  0.00    +0.000 C 
ATOM     13  C   UNL     1       7.956   8.136  17.960  0.00  0.00    +0.000 A 
ATOM     14  C   UNL     1       8.282   7.020  18.698  0.00  0.00    +0.000 A 
ATOM     15  C   UNL     1       7.469   5.967  18.205  0.00  0.00    +0.000 A 
ATOM     16  C   UNL     1       6.690   6.498  17.193  0.00  0.00    +0.000 A 
ATOM     17  O   UNL     1       6.998   7.826  17.047  0.00  0.00    +0.000 OA
ENDBRANCH  10  16
ENDBRANCH   1  10
TORSDOF 3
ENDMDL
MODEL 9
REMARK VINA RESULT:      -7.0      0.960      1.078
REMARK  Name = 
REMARK  4 active torsions:
REMARK  status: ('A' for Active; 'I' for Inactive)
REMARK    1  A    between atoms: C_1  and  C_2
REMARK    2  A    between atoms: C_5  and  C_6
REMARK    3  A    between atoms: C_6  and  C_8
REMARK    4  A    between atoms: C_9  and  C_10
REMARK                            x       y       z     vdW  Elec       q    Type
REMARK                         _______ _______ _______ _____ _____    ______ ____
ROOT
ATOM      1  C   UNL     1       5.350   4.822  18.527  0.00  0.00    +0.000 C 
ATOM      2  C   UNL     1       4.816   3.622  18.803  0.00  0.00    +0.000 C 
ENDROOT
BRANCH   2   3
ATOM      3  C   UNL     1       3.560   3.503  19.563  0.00  0.00    +0.000 A 
ATOM      4  C   UNL     1       3.576   2.750  20.747  0.00  0.00    +0.000 A 
ATOM      5  C   UNL     1       2.422   2.608  21.523  0.00  0.00    +0.000 A 
ATOM      6  C   UNL     1       1.236   3.219  21.128  0.00  0.00    +0.000 A 
ATOM      7  C   UNL     1       1.196   3.956  19.945  0.00  0.00    +0.000 A 
ATOM      8  C   UNL     1       2.348   4.090  19.158  0.00  0.00    +0.000 A 
ATOM      9 CL   UNL     1       2.213   4.982  17.683  0.00  0.00    +0.000 Cl
ENDBRANCH   2   3
BRANCH   1  10
ATOM     10  C   UNL     1       6.598   4.989  17.707  0.00  0.00    +0.000 C 
ATOM     11  O   UNL     1       7.664   5.288  18.247  0.00  0.00    +0.000 OA
BRANCH  10  16
ATOM     12  C   UNL     1       7.977   5.326  13.080  0.00  0.00    +0.000 C 
ATOM     13  C   UNL     1       7.059   4.903  14.157  0.00  0.00    +0.000 A 
ATOM     14  C   UNL     1       5.871   4.207  14.175  0.00  0.00    +0.000 A 
ATOM     15  C   UNL     1       5.484   4.116  15.536  0.00  0.00    +0.000 A 
ATOM     16  C   UNL     1       6.459   4.762  16.276  0.00  0.00    +0.000 A 
ATOM     17  O   UNL     1       7.417   5.244  15.422  0.00  0.00    +0.000 OA
ENDBRANCH  10  16
ENDBRANCH   1  10
TORSDOF 3
ENDMDL
