MODEL 1
REMARK VINA RESULT:      -7.0      0.000      0.000
REMARK  Name = 
REMARK  4 active torsions:
REMARK  status: ('A' for Active; 'I' for Inactive)
REMARK    1  A    between atoms: C_1  and  O_2
REMARK    2  A    between atoms: O_2  and  C_3
REMARK    3  A    between atoms: C_6  and  C_7
REMARK    4  A    between atoms: C_12  and  N_13
REMARK                            x       y       z     vdW  Elec       q    Type
REMARK                         _______ _______ _______ _____ _____    ______ ____
ROOT
ATOM      1  C   UNL     1       6.398   4.661  17.898  0.00  0.00    +0.000 A 
ATOM      2  C   UNL     1       7.442   4.911  17.026  0.00  0.00    +0.000 A 
ATOM      3  N   UNL     1       7.396   4.704  15.699  0.00  0.00    +0.000 NA
ATOM      4  C   UNL     1       6.238   4.213  15.211  0.00  0.00    +0.000 A 
ATOM      5  N   UNL     1       5.166   3.920  15.990  0.00  0.00    +0.000 NA
ATOM      6  C   UNL     1       5.235   4.132  17.328  0.00  0.00    +0.000 A 
ENDROOT
BRANCH   6   7
ATOM      7  N   UNL     1       4.096   3.863  18.057  0.00  0.00    +0.000 N 
ATOM      8  C   UNL     1       3.066   4.895  18.242  0.00  0.00    +0.000 C 
ATOM      9  C   UNL     1       1.712   4.442  17.662  0.00  0.00    +0.000 C 
ATOM     10  N   UNL     1       1.271   3.121  18.154  0.00  0.00    +0.000 NA
ATOM     11  C   UNL     1       2.330   2.131  17.888  0.00  0.00    +0.000 C 
ATOM     12  C   UNL     1       3.704   2.514  18.480  0.00  0.00    +0.000 C 
ATOM     13  H   UNL     1       0.427   2.849  17.650  0.00  0.00    +0.000 HD
ENDBRANCH   6   7
BRANCH   4  14
ATOM     14  C   UNL     1       6.123   3.995  13.700  0.00  0.00    +0.000 C 
ATOM     15  F   UNL     1       6.410   2.714  13.305  0.00  0.00    +0.000 F 
ATOM     16  F   UNL     1       4.871   4.246  13.209  0.00  0.00    +0.000 F 
ATOM     17  F   UNL     1       6.969   4.787  12.974  0.00  0.00    +0.000 F 
ENDBRANCH   4  14
BRANCH   1  19
ATOM     18  C   UNL     1       7.571   5.658  19.700  0.00  0.00    +0.000 C 
ATOM     19  O   UNL     1       6.447   4.920  19.240  0.00  0.00    +0.000 OA
ENDBRANCH   1  19
TORSDOF 3
ENDMDL
MODEL 2
REMARK VINA RESULT:      -6.7      0.868      1.594
REMARK  Name = 
REMARK  4 active torsions:
REMARK  status: ('A' for Active; 'I' for Inactive)
REMARK    1  A    between atoms: C_1  and  O_2
REMARK    2  A    between atoms: O_2  and  C_3
REMARK    3  A    between atoms: C_6  and  C_7
REMARK    4  A    between atoms: C_12  and  N_13
REMARK                            x       y       z     vdW  Elec       q    Type
REMARK                         _______ _______ _______ _____ _____    ______ ____
ROOT
ATOM      1  C   UNL     1       6.374   4.577  17.827  0.00  0.00    +0.000 A 
ATOM      2  C   UNL     1       7.446   4.756  16.972  0.00  0.00    +0.000 A 
ATOM      3  N   UNL     1       7.405   4.561  15.643  0.00  0.00    +0.000 NA
ATOM      4  C   UNL     1       6.221   4.159  15.135  0.00  0.00    +0.000 A 
ATOM      5  N   UNL     1       5.120   3.941  15.896  0.00  0.00    +0.000 NA
ATOM      6  C   UNL     1       5.184   4.138  17.237  0.00  0.00    +0.000 A 
ENDROOT
BRANCH   6   7
ATOM      7  N   UNL     1       4.017   3.949  17.947  0.00  0.00    +0.000 N 
ATOM      8  C   UNL     1       3.741   2.663  18.600  0.00  0.00    +0.000 C 
ATOM      9  C   UNL     1       3.576   2.833  20.123  0.00  0.00    +0.000 C 
ATOM     10  N   UNL     1       2.592   3.870  20.497  0.00  0.00    +0.000 NA
ATOM     11  C   UNL     1       2.964   5.141  19.849  0.00  0.00    +0.000 C 
ATOM     12  C   UNL     1       3.106   5.039  18.314  0.00  0.00    +0.000 C 
ATOM     13  H   UNL     1       2.617   3.994  21.509  0.00  0.00    +0.000 HD
ENDBRANCH   6   7
BRANCH   4  14
ATOM     14  C   UNL     1       6.114   3.959  13.620  0.00  0.00    +0.000 C 
ATOM     15  F   UNL     1       6.435   2.692  13.208  0.00  0.00    +0.000 F 
ATOM     16  F   UNL     1       4.856   4.184  13.132  0.00  0.00    +0.000 F 
ATOM     17  F   UNL     1       6.940   4.783  12.907  0.00  0.00    +0.000 F 
ENDBRANCH   4  14
BRANCH   1  19
ATOM     18  C   UNL     1       7.497   5.633  19.627  0.00  0.00    +0.000 C 
ATOM     19  O   UNL     1       6.421   4.823  19.171  0.00  0.00    +0.000 OA
ENDBRANCH   1  19
TORSDOF 3
ENDMDL
MODEL 3
REMARK VINA RESULT:      -6.7      3.950      5.933
REMARK  Name = 
REMARK  4 active torsions:
REMARK  status: ('A' for Active; 'I' for Inactive)
REMARK    1  A    between atoms: C_1  and  O_2
REMARK    2  A    between atoms: O_2  and  C_3
REMARK    3  A    between atoms: C_6  and  C_7
REMARK    4  A    between atoms: C_12  and  N_13
REMARK                            x       y       z     vdW  Elec       q    Type
REMARK                         _______ _______ _______ _____ _____    ______ ____
ROOT
ATOM      1  C   UNL     1       3.250   6.572  18.508  0.00  0.00    +0.000 A 
ATOM      2  C   UNL     1       2.206   6.325  19.381  0.00  0.00    +0.000 A 
ATOM      3  N   UNL     1       2.050   5.192  20.086  0.00  0.00    +0.000 NA
ATOM      4  C   UNL     1       2.994   4.244  19.908  0.00  0.00    +0.000 A 
ATOM      5  N   UNL     1       4.044   4.388  19.061  0.00  0.00    +0.000 NA
ATOM      6  C   UNL     1       4.180   5.538  18.354  0.00  0.00    +0.000 A 
ENDROOT
BRANCH   6   7
ATOM      7  N   UNL     1       5.296   5.643  17.551  0.00  0.00    +0.000 N 
ATOM      8  C   UNL     1       6.617   5.906  18.137  0.00  0.00    +0.000 C 
ATOM      9  C   UNL     1       7.607   4.769  17.818  0.00  0.00    +0.000 C 
ATOM     10  N   UNL     1       7.691   4.447  16.378  0.00  0.00    +0.000 NA
ATOM     11  C   UNL     1       6.339   4.144  15.874  0.00  0.00    +0.000 C 
ATOM     12  C   UNL     1       5.311   5.267  16.132  0.00  0.00    +0.000 C 
ATOM     13  H   UNL     1       8.281   3.623  16.262  0.00  0.00    +0.000 HD
ENDBRANCH   6   7
BRANCH   4  14
ATOM     14  C   UNL     1       2.881   2.948  20.717  0.00  0.00    +0.000 C 
ATOM     15  F   UNL     1       2.490   3.143  22.016  0.00  0.00    +0.000 F 
ATOM     16  F   UNL     1       1.974   2.064  20.201  0.00  0.00    +0.000 F 
ATOM     17  F   UNL     1       4.060   2.261  20.801  0.00  0.00    +0.000 F 
ENDBRANCH   4  14
BRANCH   1  19
ATOM     18  C   UNL     1       2.304   8.632  17.817  0.00  0.00    +0.000 C 
ATOM     19  O   UNL     1       3.418   7.749  17.833  0.00  0.00    +0.000 OA
ENDBRANCH   1  19
TORSDOF 3
ENDMDL
MODEL 4
REMARK VINA RESULT:      -6.6      1.943      2.657
REMARK  Name = 
REMARK  4 active torsions:
REMARK  status: ('A' for Active; 'I' for Inactive)
REMARK    1  A    between atoms: C_1  and  O_2
REMARK    2  A    between atoms: O_2  and  C_3
REMARK    3  A    between atoms: C_6  and  C_7
REMARK    4  A    between atoms: C_12  and  N_13
REMARK                            x       y       z     vdW  Elec       q    Type
REMARK                         _______ _______ _______ _____ _____    ______ ____
ROOT
ATOM      1  C   UNL     1       3.838   5.725  18.336  0.00  0.00    +0.000 A 
ATOM      2  C   UNL     1       4.597   6.560  17.538  0.00  0.00    +0.000 A 
ATOM      3  N   UNL     1       5.219   6.181  16.409  0.00  0.00    +0.000 NA
ATOM      4  C   UNL     1       5.079   4.886  16.056  0.00  0.00    +0.000 A 
ATOM      5  N   UNL     1       4.369   3.989  16.785  0.00  0.00    +0.000 NA
ATOM      6  C   UNL     1       3.753   4.391  17.924  0.00  0.00    +0.000 A 
ENDROOT
BRANCH   6   7
ATOM      7  N   UNL     1       3.005   3.443  18.591  0.00  0.00    +0.000 N 
ATOM      8  C   UNL     1       3.609   2.627  19.653  0.00  0.00    +0.000 C 
ATOM      9  C   UNL     1       2.885   2.834  20.997  0.00  0.00    +0.000 C 
ATOM     10  N   UNL     1       1.422   2.646  20.914  0.00  0.00    +0.000 NA
ATOM     11  C   UNL     1       0.882   3.533  19.868  0.00  0.00    +0.000 C 
ATOM     12  C   UNL     1       1.545   3.342  18.486  0.00  0.00    +0.000 C 
ATOM     13  H   UNL     1       1.008   2.900  21.811  0.00  0.00    +0.000 HD
ENDBRANCH   6   7
BRANCH   4  14
ATOM     14  C   UNL     1       5.739   4.414  14.757  0.00  0.00    +0.000 C 
ATOM     15  F   UNL     1       6.394   3.216  14.877  0.00  0.00    +0.000 F 
ATOM     16  F   UNL     1       4.852   4.234  13.732  0.00  0.00    +0.000 F 
ATOM     17  F   UNL     1       6.680   5.286  14.282  0.00  0.00    +0.000 F 
ENDBRANCH   4  14
BRANCH   1  19
ATOM     18  C   UNL     1       2.334   7.275  19.312  0.00  0.00    +0.000 C 
ATOM     19  O   UNL     1       3.174   6.138  19.458  0.00  0.00    +0.000 OA
ENDBRANCH   1  19
TORSDOF 3
ENDMDL
MODEL 5
REMARK VINA RESULT:      -6.6      4.081      6.064
REMARK  Name = 
REMARK  4 active torsions:
REMARK  status: ('A' for Active; 'I' for Inactive)
REMARK    1  A    between atoms: C_1  and  O_2
REMARK    2  A    between atoms: O_2  and  C_3
REMARK    3  A    between atoms: C_6  and  C_7
REMARK    4  A    between atoms: C_12  and  N_13
REMARK                            x       y       z     vdW  Elec       q    Type
REMARK                         _______ _______ _______ _____ _____    ______ ____
ROOT
ATOM      1  C   UNL     1       3.397   6.131  18.629  0.00  0.00    +0.000 A 
ATOM      2  C   UNL     1       2.320   6.171  19.495  0.00  0.00    +0.000 A 
ATOM      3  N   UNL     1       1.908   5.139  20.250  0.00  0.00    +0.000 NA
ATOM      4  C   UNL     1       2.613   3.994  20.133  0.00  0.00    +0.000 A 
ATOM      5  N   UNL     1       3.673   3.855  19.297  0.00  0.00    +0.000 NA
ATOM      6  C   UNL     1       4.069   4.908  18.539  0.00  0.00    +0.000 A 
ENDROOT
BRANCH   6   7
ATOM      7  N   UNL     1       5.184   4.717  17.750  0.00  0.00    +0.000 N 
ATOM      8  C   UNL     1       5.044   4.414  16.319  0.00  0.00    +0.000 C 
ATOM      9  C   UNL     1       5.726   5.489  15.450  0.00  0.00    +0.000 C 
ATOM     10  N   UNL     1       7.130   5.749  15.829  0.00  0.00    +0.000 NA
ATOM     11  C   UNL     1       7.185   6.097  17.260  0.00  0.00    +0.000 C 
ATOM     12  C   UNL     1       6.549   5.036  18.185  0.00  0.00    +0.000 C 
ATOM     13  H   UNL     1       7.475   6.538  15.282  0.00  0.00    +0.000 HD
ENDBRANCH   6   7
BRANCH   4  14
ATOM     14  C   UNL     1       2.206   2.800  21.001  0.00  0.00    +0.000 C 
ATOM     15  F   UNL     1       3.244   2.260  21.716  0.00  0.00    +0.000 F 
ATOM     16  F   UNL     1       1.254   3.107  21.933  0.00  0.00    +0.000 F 
ATOM     17  F   UNL     1       1.694   1.757  20.279  0.00  0.00    +0.000 F 
ENDBRANCH   4  14
BRANCH   1  19
ATOM     18  C   UNL     1       2.896   8.260  17.715  0.00  0.00    +0.000 C 
ATOM     19  O   UNL     1       3.830   7.204  17.900  0.00  0.00    +0.000 OA
ENDBRANCH   1  19
TORSDOF 3
ENDMDL
MODEL 6
REMARK VINA RESULT:      -6.6      2.149      3.018
REMARK  Name = 
REMARK  4 active torsions:
REMARK  status: ('A' for Active; 'I' for Inactive)
REMARK    1  A    between atoms: C_1  and  O_2
REMARK    2  A    between atoms: O_2  and  C_3
REMARK    3  A    between atoms: C_6  and  C_7
REMARK    4  A    between atoms: C_12  and  N_13
REMARK                            x       y       z     vdW  Elec       q    Type
REMARK                         _______ _______ _______ _____ _____    ______ ____
ROOT
ATOM      1  C   UNL     1       3.384   5.808  18.372  0.00  0.00    +0.000 A 
ATOM      2  C   UNL     1       4.081   6.654  17.529  0.00  0.00    +0.000 A 
ATOM      3  N   UNL     1       4.868   6.249  16.518  0.00  0.00    +0.000 NA
ATOM      4  C   UNL     1       4.968   4.915  16.337  0.00  0.00    +0.000 A 
ATOM      5  N   UNL     1       4.337   4.008  17.123  0.00  0.00    +0.000 NA
ATOM      6  C   UNL     1       3.551   4.438  18.142  0.00  0.00    +0.000 A 
ENDROOT
BRANCH   6   7
ATOM      7  N   UNL     1       2.897   3.468  18.871  0.00  0.00    +0.000 N 
ATOM      8  C   UNL     1       3.442   3.002  20.153  0.00  0.00    +0.000 C 
ATOM      9  C   UNL     1       2.452   3.256  21.307  0.00  0.00    +0.000 C 
ATOM     10  N   UNL     1       1.098   2.724  21.052  0.00  0.00    +0.000 NA
ATOM     11  C   UNL     1       0.598   3.276  19.780  0.00  0.00    +0.000 C 
ATOM     12  C   UNL     1       1.532   3.017  18.577  0.00  0.00    +0.000 C 
ATOM     13  H   UNL     1       0.482   3.022  21.808  0.00  0.00    +0.000 HD
ENDBRANCH   6   7
BRANCH   4  14
ATOM     14  C   UNL     1       5.823   4.404  15.174  0.00  0.00    +0.000 C 
ATOM     15  F   UNL     1       5.173   4.414  13.967  0.00  0.00    +0.000 F 
ATOM     16  F   UNL     1       6.959   5.138  14.973  0.00  0.00    +0.000 F 
ATOM     17  F   UNL     1       6.243   3.113  15.339  0.00  0.00    +0.000 F 
ENDBRANCH   4  14
BRANCH   1  19
ATOM     18  C   UNL     1       2.219   7.620  19.359  0.00  0.00    +0.000 C 
ATOM     19  O   UNL     1       2.553   6.239  19.368  0.00  0.00    +0.000 OA
ENDBRANCH   1  19
TORSDOF 3
ENDMDL
MODEL 7
REMARK VINA RESULT:      -6.5      1.938      2.325
REMARK  Name = 
REMARK  4 active torsions:
REMARK  status: ('A' for Active; 'I' for Inactive)
REMARK    1  A    between atoms: C_1  and  O_2
REMARK    2  A    between atoms: O_2  and  C_3
REMARK    3  A    between atoms: C_6  and  C_7
REMARK    4  A    between atoms: C_12  and  N_13
REMARK                            x       y       z     vdW  Elec       q    Type
REMARK                         _______ _______ _______ _____ _____    ______ ____
ROOT
ATOM      1  C   UNL     1       4.032   6.372  17.605  0.00  0.00    +0.000 A 
ATOM      2  C   UNL     1       4.697   7.052  16.601  0.00  0.00    +0.000 A 
ATOM      3  N   UNL     1       5.324   6.467  15.567  0.00  0.00    +0.000 NA
ATOM      4  C   UNL     1       5.289   5.118  15.533  0.00  0.00    +0.000 A 
ATOM      5  N   UNL     1       4.677   4.365  16.482  0.00  0.00    +0.000 NA
ATOM      6  C   UNL     1       4.054   4.976  17.520  0.00  0.00    +0.000 A 
ENDROOT
BRANCH   6   7
ATOM      7  N   UNL     1       3.406   4.157  18.422  0.00  0.00    +0.000 N 
ATOM      8  C   UNL     1       1.940   4.147  18.503  0.00  0.00    +0.000 C 
ATOM      9  C   UNL     1       1.373   2.746  18.201  0.00  0.00    +0.000 C 
ATOM     10  N   UNL     1       1.983   1.675  19.016  0.00  0.00    +0.000 NA
ATOM     11  C   UNL     1       3.446   1.714  18.843  0.00  0.00    +0.000 C 
ATOM     12  C   UNL     1       4.076   3.087  19.169  0.00  0.00    +0.000 C 
ATOM     13  H   UNL     1       1.633   0.775  18.687  0.00  0.00    +0.000 HD
ENDBRANCH   6   7
BRANCH   4  14
ATOM     14  C   UNL     1       5.958   4.405  14.354  0.00  0.00    +0.000 C 
ATOM     15  F   UNL     1       6.549   3.216  14.694  0.00  0.00    +0.000 F 
ATOM     16  F   UNL     1       5.090   4.096  13.344  0.00  0.00    +0.000 F 
ATOM     17  F   UNL     1       6.954   5.141  13.773  0.00  0.00    +0.000 F 
ENDBRANCH   4  14
BRANCH   1  19
ATOM     18  C   UNL     1       2.425   7.989  18.253  0.00  0.00    +0.000 C 
ATOM     19  O   UNL     1       3.360   6.985  18.626  0.00  0.00    +0.000 OA
ENDBRANCH   1  19
TORSDOF 3
ENDMDL
MODEL 8
REMARK VINA RESULT:      -6.4      2.362      3.131
REMARK  Name = 
REMARK  4 active torsions:
REMARK  status: ('A' for Active; 'I' for Inactive)
REMARK    1  A    between atoms: C_1  and  O_2
REMARK    2  A    between atoms: O_2  and  C_3
REMARK    3  A    between atoms: C_6  and  C_7
REMARK    4  A    between atoms: C_12  and  N_13
REMARK                            x       y       z     vdW  Elec       q    Type
REMARK                         _______ _______ _______ _____ _____    ______ ____
ROOT
ATOM      1  C   UNL     1       3.596   6.763  17.787  0.00  0.00    +0.000 A 
ATOM      2  C   UNL     1       4.572   7.328  16.986  0.00  0.00    +0.000 A 
ATOM      3  N   UNL     1       5.532   6.637  16.349  0.00  0.00    +0.000 NA
ATOM      4  C   UNL     1       5.521   5.299  16.524  0.00  0.00    +0.000 A 
ATOM      5  N   UNL     1       4.615   4.658  17.304  0.00  0.00    +0.000 NA
ATOM      6  C   UNL     1       3.657   5.375  17.943  0.00  0.00    +0.000 A 
ENDROOT
BRANCH   6   7
ATOM      7  N   UNL     1       2.735   4.659  18.678  0.00  0.00    +0.000 N 
ATOM      8  C   UNL     1       1.647   3.933  18.010  0.00  0.00    +0.000 C 
ATOM      9  C   UNL     1       1.714   2.423  18.314  0.00  0.00    +0.000 C 
ATOM     10  N   UNL     1       1.785   2.115  19.756  0.00  0.00    +0.000 NA
ATOM     11  C   UNL     1       2.928   2.834  20.346  0.00  0.00    +0.000 C 
ATOM     12  C   UNL     1       2.895   4.360  20.106  0.00  0.00    +0.000 C 
ATOM     13  H   UNL     1       1.931   1.111  19.869  0.00  0.00    +0.000 HD
ENDBRANCH   6   7
BRANCH   4  14
ATOM     14  C   UNL     1       6.573   4.463  15.789  0.00  0.00    +0.000 C 
ATOM     15  F   UNL     1       7.057   5.061  14.655  0.00  0.00    +0.000 F 
ATOM     16  F   UNL     1       7.678   4.193  16.548  0.00  0.00    +0.000 F 
ATOM     17  F   UNL     1       6.103   3.247  15.375  0.00  0.00    +0.000 F 
ENDBRANCH   4  14
BRANCH   1  19
ATOM     18  C   UNL     1       2.212   8.687  17.754  0.00  0.00    +0.000 C 
ATOM     19  O   UNL     1       2.599   7.477  18.391  0.00  0.00    +0.000 OA
ENDBRANCH   1  19
TORSDOF 3
ENDMDL
