MODEL 1
REMARK VINA RESULT:      -8.2      0.000      0.000
REMARK  Name = 
REMARK  5 active torsions:
REMARK  status: ('A' for Active; 'I' for Inactive)
REMARK    1  A    between atoms: O_1  and  C_2
REMARK    2  A    between atoms: C_2  and  C_3
REMARK    3  A    between atoms: C_2  and  C_8
REMARK    4  A    between atoms: N_12  and  C_13
REMARK    5  A    between atoms: C_19  and  N_20
REMARK                            x       y       z     vdW  Elec       q    Type
REMARK                         _______ _______ _______ _____ _____    ______ ____
ROOT
ATOM      1  C   UNL     1       2.212   7.449  19.211  0.00  0.00    +0.000 A 
ATOM      2  N   UNL     1       2.780   7.697  18.013  0.00  0.00    +0.000 NA
ATOM      3  N   UNL     1       2.523   8.811  17.364  0.00  0.00    +0.000 NA
ATOM      4  N   UNL     1       1.675   9.699  17.815  0.00  0.00    +0.000 NA
ATOM      5  C   UNL     1       1.138   9.536  19.032  0.00  0.00    +0.000 A 
ATOM      6  C   UNL     1       0.242  10.492  19.546  0.00  0.00    +0.000 A 
ATOM      7  C   UNL     1      -0.314  10.406  20.834  0.00  0.00    +0.000 A 
ATOM      8  C   UNL     1       0.100   9.342  21.629  0.00  0.00    +0.000 A 
ATOM      9  C   UNL     1       0.991   8.402  21.150  0.00  0.00    +0.000 A 
ATOM     10  C   UNL     1       1.447   8.441  19.817  0.00  0.00    +0.000 A 
ENDROOT
BRANCH   1  15
ATOM     11  C   UNL     1       3.780   4.129  19.670  0.00  0.00    +0.000 C 
ATOM     12  C   UNL     1       2.593   3.381  20.326  0.00  0.00    +0.000 C 
ATOM     13  C   UNL     1       1.233   4.039  20.122  0.00  0.00    +0.000 C 
ATOM     14  C   UNL     1       1.278   5.515  20.468  0.00  0.00    +0.000 C 
ATOM     15  N   UNL     1       2.353   6.169  19.738  0.00  0.00    +0.000 N 
ATOM     16  C   UNL     1       3.698   5.648  19.921  0.00  0.00    +0.000 C 
BRANCH  11  17
ATOM     17  C   UNL     1       3.955   3.708  18.196  0.00  0.00    +0.000 C 
BRANCH  17  18
ATOM     18  C   UNL     1       5.269   4.027  17.505  0.00  0.00    +0.000 A 
ATOM     19  N   UNL     1       6.374   4.260  18.196  0.00  0.00    +0.000 NA
ATOM     20  C   UNL     1       7.395   4.637  17.349  0.00  0.00    +0.000 A 
ATOM     21  C   UNL     1       7.074   4.676  16.012  0.00  0.00    +0.000 A 
ATOM     22  S   UNL     1       5.424   4.268  15.806  0.00  0.00    +0.000 S 
ENDBRANCH  17  18
BRANCH  17  23
ATOM     23  O   UNL     1       2.897   4.196  17.372  0.00  0.00    +0.000 OA
ATOM     24  H   UNL     1       2.090   3.722  17.655  0.00  0.00    +0.000 HD
ENDBRANCH  17  23
ENDBRANCH  11  17
ENDBRANCH   1  15
BRANCH   7  25
ATOM     25  N   UNL     1      -1.225  11.301  21.340  0.00  0.00    +0.000 N 
ATOM     26  C   UNL     1      -2.041  12.196  20.513  0.00  0.00    +0.000 C 
ATOM     27  C   UNL     1      -1.660  13.658  20.779  0.00  0.00    +0.000 C 
ATOM     28  O   UNL     1      -1.726  13.977  22.180  0.00  0.00    +0.000 OA
ATOM     29  C   UNL     1      -0.828  13.140  22.924  0.00  0.00    +0.000 C 
ATOM     30  C   UNL     1      -1.183  11.655  22.770  0.00  0.00    +0.000 C 
ENDBRANCH   7  25
TORSDOF 5
ENDMDL
MODEL 2
REMARK VINA RESULT:      -8.1      2.406      3.905
REMARK  Name = 
REMARK  5 active torsions:
REMARK  status: ('A' for Active; 'I' for Inactive)
REMARK    1  A    between atoms: O_1  and  C_2
REMARK    2  A    between atoms: C_2  and  C_3
REMARK    3  A    between atoms: C_2  and  C_8
REMARK    4  A    between atoms: N_12  and  C_13
REMARK    5  A    between atoms: C_19  and  N_20
REMARK                            x       y       z     vdW  Elec       q    Type
REMARK                         _______ _______ _______ _____ _____    ______ ____
ROOT
ATOM      1  C   UNL     1       2.381   6.780  19.134  0.00  0.00    +0.000 A 
ATOM      2  N   UNL     1       1.994   6.078  20.218  0.00  0.00    +0.000 NA
ATOM      3  N   UNL     1       1.341   6.660  21.200  0.00  0.00    +0.000 NA
ATOM      4  N   UNL     1       1.084   7.942  21.199  0.00  0.00    +0.000 NA
ATOM      5  C   UNL     1       1.382   8.672  20.115  0.00  0.00    +0.000 A 
ATOM      6  C   UNL     1       1.090  10.049  20.085  0.00  0.00    +0.000 A 
ATOM      7  C   UNL     1       1.329  10.857  18.960  0.00  0.00    +0.000 A 
ATOM      8  C   UNL     1       1.831  10.227  17.826  0.00  0.00    +0.000 A 
ATOM      9  C   UNL     1       2.107   8.875  17.829  0.00  0.00    +0.000 A 
ATOM     10  C   UNL     1       1.971   8.104  19.001  0.00  0.00    +0.000 A 
ENDROOT
BRANCH   1  15
ATOM     11  C   UNL     1       3.849   3.959  17.242  0.00  0.00    +0.000 C 
ATOM     12  C   UNL     1       5.189   4.612  16.820  0.00  0.00    +0.000 C 
ATOM     13  C   UNL     1       5.588   5.835  17.639  0.00  0.00    +0.000 C 
ATOM     14  C   UNL     1       4.444   6.825  17.743  0.00  0.00    +0.000 C 
ATOM     15  N   UNL     1       3.249   6.161  18.240  0.00  0.00    +0.000 N 
ATOM     16  C   UNL     1       2.757   5.020  17.487  0.00  0.00    +0.000 C 
BRANCH  11  17
ATOM     17  C   UNL     1       4.061   2.948  18.389  0.00  0.00    +0.000 C 
BRANCH  17  18
ATOM     18  C   UNL     1       3.021   2.881  19.494  0.00  0.00    +0.000 A 
ATOM     19  N   UNL     1       3.359   3.011  20.767  0.00  0.00    +0.000 NA
ATOM     20  C   UNL     1       2.261   2.798  21.575  0.00  0.00    +0.000 A 
ATOM     21  C   UNL     1       1.084   2.524  20.917  0.00  0.00    +0.000 A 
ATOM     22  S   UNL     1       1.366   2.487  19.229  0.00  0.00    +0.000 S 
ENDBRANCH  17  18
BRANCH  17  23
ATOM     23  O   UNL     1       5.342   3.096  19.002  0.00  0.00    +0.000 OA
ATOM     24  H   UNL     1       5.744   2.205  19.010  0.00  0.00    +0.000 HD
ENDBRANCH  17  23
ENDBRANCH  11  17
ENDBRANCH   1  15
BRANCH   7  25
ATOM     25  N   UNL     1       1.096  12.211  18.922  0.00  0.00    +0.000 N 
ATOM     26  C   UNL     1       1.956  13.171  18.224  0.00  0.00    +0.000 C 
ATOM     27  C   UNL     1       2.614  14.123  19.230  0.00  0.00    +0.000 C 
ATOM     28  O   UNL     1       1.639  14.759  20.076  0.00  0.00    +0.000 OA
ATOM     29  C   UNL     1       0.901  13.772  20.813  0.00  0.00    +0.000 C 
ATOM     30  C   UNL     1       0.150  12.816  19.877  0.00  0.00    +0.000 C 
ENDBRANCH   7  25
TORSDOF 5
ENDMDL
MODEL 3
REMARK VINA RESULT:      -7.8      1.227      1.624
REMARK  Name = 
REMARK  5 active torsions:
REMARK  status: ('A' for Active; 'I' for Inactive)
REMARK    1  A    between atoms: O_1  and  C_2
REMARK    2  A    between atoms: C_2  and  C_3
REMARK    3  A    between atoms: C_2  and  C_8
REMARK    4  A    between atoms: N_12  and  C_13
REMARK    5  A    between atoms: C_19  and  N_20
REMARK                            x       y       z     vdW  Elec       q    Type
REMARK                         _______ _______ _______ _____ _____    ______ ____
ROOT
ATOM      1  C   UNL     1       2.354   6.770  19.153  0.00  0.00    +0.000 A 
ATOM      2  N   UNL     1       2.928   6.786  17.934  0.00  0.00    +0.000 NA
ATOM      3  N   UNL     1       2.901   7.871  17.190  0.00  0.00    +0.000 NA
ATOM      4  N   UNL     1       2.279   8.957  17.569  0.00  0.00    +0.000 NA
ATOM      5  C   UNL     1       1.753   9.019  18.800  0.00  0.00    +0.000 A 
ATOM      6  C   UNL     1       1.101  10.187  19.235  0.00  0.00    +0.000 A 
ATOM      7  C   UNL     1       0.576  10.334  20.530  0.00  0.00    +0.000 A 
ATOM      8  C   UNL     1       0.771   9.277  21.413  0.00  0.00    +0.000 A 
ATOM      9  C   UNL     1       1.423   8.128  21.011  0.00  0.00    +0.000 A 
ATOM     10  C   UNL     1       1.839   7.954  19.676  0.00  0.00    +0.000 A 
ENDROOT
BRANCH   1  15
ATOM     11  C   UNL     1       3.408   3.391  20.230  0.00  0.00    +0.000 C 
ATOM     12  C   UNL     1       2.026   2.811  20.621  0.00  0.00    +0.000 C 
ATOM     13  C   UNL     1       0.832   3.558  20.036  0.00  0.00    +0.000 C 
ATOM     14  C   UNL     1       0.946   5.051  20.274  0.00  0.00    +0.000 C 
ATOM     15  N   UNL     1       2.228   5.540  19.791  0.00  0.00    +0.000 N 
ATOM     16  C   UNL     1       3.427   4.929  20.341  0.00  0.00    +0.000 C 
BRANCH  11  17
ATOM     17  C   UNL     1       3.889   2.817  18.881  0.00  0.00    +0.000 C 
BRANCH  17  18
ATOM     18  C   UNL     1       4.599   3.747  17.912  0.00  0.00    +0.000 A 
ATOM     19  N   UNL     1       4.193   3.877  16.659  0.00  0.00    +0.000 NA
ATOM     20  C   UNL     1       5.065   4.684  15.957  0.00  0.00    +0.000 A 
ATOM     21  C   UNL     1       6.125   5.182  16.681  0.00  0.00    +0.000 A 
ATOM     22  S   UNL     1       6.055   4.587  18.284  0.00  0.00    +0.000 S 
ENDBRANCH  17  18
BRANCH  17  23
ATOM     23  O   UNL     1       2.835   2.167  18.171  0.00  0.00    +0.000 OA
ATOM     24  H   UNL     1       2.379   2.865  17.661  0.00  0.00    +0.000 HD
ENDBRANCH  17  23
ENDBRANCH  11  17
ENDBRANCH   1  15
BRANCH   7  25
ATOM     25  N   UNL     1      -0.105  11.447  20.963  0.00  0.00    +0.000 N 
ATOM     26  C   UNL     1      -0.531  11.658  22.351  0.00  0.00    +0.000 C 
ATOM     27  C   UNL     1      -2.062  11.672  22.439  0.00  0.00    +0.000 C 
ATOM     28  O   UNL     1      -2.637  12.624  21.527  0.00  0.00    +0.000 OA
ATOM     29  C   UNL     1      -2.272  12.303  20.176  0.00  0.00    +0.000 C 
ATOM     30  C   UNL     1      -0.751  12.336  19.981  0.00  0.00    +0.000 C 
ENDBRANCH   7  25
TORSDOF 5
ENDMDL
MODEL 4
REMARK VINA RESULT:      -7.7      2.220      4.073
REMARK  Name = 
REMARK  5 active torsions:
REMARK  status: ('A' for Active; 'I' for Inactive)
REMARK    1  A    between atoms: O_1  and  C_2
REMARK    2  A    between atoms: C_2  and  C_3
REMARK    3  A    between atoms: C_2  and  C_8
REMARK    4  A    between atoms: N_12  and  C_13
REMARK    5  A    between atoms: C_19  and  N_20
REMARK                            x       y       z     vdW  Elec       q    Type
REMARK                         _______ _______ _______ _____ _____    ______ ____
ROOT
ATOM      1  C   UNL     1       3.940   5.206  19.255  0.00  0.00    +0.000 A 
ATOM      2  N   UNL     1       3.799   3.908  19.590  0.00  0.00    +0.000 NA
ATOM      3  N   UNL     1       2.786   3.508  20.327  0.00  0.00    +0.000 NA
ATOM      4  N   UNL     1       1.906   4.345  20.809  0.00  0.00    +0.000 NA
ATOM      5  C   UNL     1       1.957   5.635  20.450  0.00  0.00    +0.000 A 
ATOM      6  C   UNL     1       1.004   6.547  20.939  0.00  0.00    +0.000 A 
ATOM      7  C   UNL     1       0.972   7.899  20.558  0.00  0.00    +0.000 A 
ATOM      8  C   UNL     1       1.909   8.311  19.615  0.00  0.00    +0.000 A 
ATOM      9  C   UNL     1       2.842   7.428  19.109  0.00  0.00    +0.000 A 
ATOM     10  C   UNL     1       2.932   6.106  19.590  0.00  0.00    +0.000 A 
ENDROOT
BRANCH   1  15
ATOM     11  C   UNL     1       6.277   5.884  16.467  0.00  0.00    +0.000 C 
ATOM     12  C   UNL     1       7.609   5.903  17.257  0.00  0.00    +0.000 C 
ATOM     13  C   UNL     1       7.548   5.234  18.627  0.00  0.00    +0.000 C 
ATOM     14  C   UNL     1       6.365   5.736  19.432  0.00  0.00    +0.000 C 
ATOM     15  N   UNL     1       5.138   5.594  18.664  0.00  0.00    +0.000 N 
ATOM     16  C   UNL     1       5.081   6.252  17.369  0.00  0.00    +0.000 C 
BRANCH  11  17
ATOM     17  C   UNL     1       6.126   4.575  15.665  0.00  0.00    +0.000 C 
BRANCH  17  18
ATOM     18  C   UNL     1       6.667   4.530  14.247  0.00  0.00    +0.000 A 
ATOM     19  N   UNL     1       7.615   5.362  13.844  0.00  0.00    +0.000 NA
ATOM     20  C   UNL     1       7.849   5.199  12.494  0.00  0.00    +0.000 A 
ATOM     21  C   UNL     1       7.092   4.231  11.873  0.00  0.00    +0.000 A 
ATOM     22  S   UNL     1       6.018   3.528  13.005  0.00  0.00    +0.000 S 
ENDBRANCH  17  18
BRANCH  17  23
ATOM     23  O   UNL     1       4.772   4.122  15.631  0.00  0.00    +0.000 OA
ATOM     24  H   UNL     1       4.803   3.193  15.327  0.00  0.00    +0.000 HD
ENDBRANCH  17  23
ENDBRANCH  11  17
ENDBRANCH   1  15
BRANCH   7  25
ATOM     25  N   UNL     1       0.081   8.819  21.057  0.00  0.00    +0.000 N 
ATOM     26  C   UNL     1      -0.092  10.170  20.514  0.00  0.00    +0.000 C 
ATOM     27  C   UNL     1       0.336  11.216  21.550  0.00  0.00    +0.000 C 
ATOM     28  O   UNL     1      -0.340  11.028  22.806  0.00  0.00    +0.000 OA
ATOM     29  C   UNL     1      -0.046   9.727  23.339  0.00  0.00    +0.000 C 
ATOM     30  C   UNL     1      -0.510   8.613  22.391  0.00  0.00    +0.000 C 
ENDBRANCH   7  25
TORSDOF 5
ENDMDL
MODEL 5
REMARK VINA RESULT:      -7.7      1.108      1.230
REMARK  Name = 
REMARK  5 active torsions:
REMARK  status: ('A' for Active; 'I' for Inactive)
REMARK    1  A    between atoms: O_1  and  C_2
REMARK    2  A    between atoms: C_2  and  C_3
REMARK    3  A    between atoms: C_2  and  C_8
REMARK    4  A    between atoms: N_12  and  C_13
REMARK    5  A    between atoms: C_19  and  N_20
REMARK                            x       y       z     vdW  Elec       q    Type
REMARK                         _______ _______ _______ _____ _____    ______ ____
ROOT
ATOM      1  C   UNL     1       2.459   6.954  19.055  0.00  0.00    +0.000 A 
ATOM      2  N   UNL     1       3.077   7.029  17.860  0.00  0.00    +0.000 NA
ATOM      3  N   UNL     1       2.983   8.111  17.119  0.00  0.00    +0.000 NA
ATOM      4  N   UNL     1       2.253   9.136  17.475  0.00  0.00    +0.000 NA
ATOM      5  C   UNL     1       1.675   9.143  18.685  0.00  0.00    +0.000 A 
ATOM      6  C   UNL     1       0.906  10.246  19.097  0.00  0.00    +0.000 A 
ATOM      7  C   UNL     1       0.319  10.338  20.371  0.00  0.00    +0.000 A 
ATOM      8  C   UNL     1       0.572   9.296  21.258  0.00  0.00    +0.000 A 
ATOM      9  C   UNL     1       1.339   8.213  20.879  0.00  0.00    +0.000 A 
ATOM     10  C   UNL     1       1.821   8.084  19.561  0.00  0.00    +0.000 A 
ENDROOT
BRANCH   1  15
ATOM     11  C   UNL     1       3.655   3.568  19.946  0.00  0.00    +0.000 C 
ATOM     12  C   UNL     1       2.333   2.971  20.489  0.00  0.00    +0.000 C 
ATOM     13  C   UNL     1       1.073   3.717  20.062  0.00  0.00    +0.000 C 
ATOM     14  C   UNL     1       1.206   5.207  20.309  0.00  0.00    +0.000 C 
ATOM     15  N   UNL     1       2.418   5.714  19.684  0.00  0.00    +0.000 N 
ATOM     16  C   UNL     1       3.677   5.104  20.078  0.00  0.00    +0.000 C 
BRANCH  11  17
ATOM     17  C   UNL     1       3.976   3.018  18.541  0.00  0.00    +0.000 C 
BRANCH  17  18
ATOM     18  C   UNL     1       4.776   3.890  17.589  0.00  0.00    +0.000 A 
ATOM     19  N   UNL     1       4.364   4.120  16.352  0.00  0.00    +0.000 NA
ATOM     20  C   UNL     1       5.316   4.839  15.659  0.00  0.00    +0.000 A 
ATOM     21  C   UNL     1       6.444   5.173  16.373  0.00  0.00    +0.000 A 
ATOM     22  S   UNL     1       6.334   4.528  17.955  0.00  0.00    +0.000 S 
ENDBRANCH  17  18
BRANCH  17  23
ATOM     23  O   UNL     1       2.801   2.586  17.855  0.00  0.00    +0.000 OA
ATOM     24  H   UNL     1       2.147   3.306  17.955  0.00  0.00    +0.000 HD
ENDBRANCH  17  23
ENDBRANCH  11  17
ENDBRANCH   1  15
BRANCH   7  25
ATOM     25  N   UNL     1      -0.474  11.383  20.780  0.00  0.00    +0.000 N 
ATOM     26  C   UNL     1      -0.196  12.790  20.474  0.00  0.00    +0.000 C 
ATOM     27  C   UNL     1       0.105  13.563  21.764  0.00  0.00    +0.000 C 
ATOM     28  O   UNL     1      -0.942  13.398  22.738  0.00  0.00    +0.000 OA
ATOM     29  C   UNL     1      -1.094  12.011  23.075  0.00  0.00    +0.000 C 
ATOM     30  C   UNL     1      -1.468  11.171  21.847  0.00  0.00    +0.000 C 
ENDBRANCH   7  25
TORSDOF 5
ENDMDL
MODEL 6
REMARK VINA RESULT:      -7.6      1.261      1.316
REMARK  Name = 
REMARK  5 active torsions:
REMARK  status: ('A' for Active; 'I' for Inactive)
REMARK    1  A    between atoms: O_1  and  C_2
REMARK    2  A    between atoms: C_2  and  C_3
REMARK    3  A    between atoms: C_2  and  C_8
REMARK    4  A    between atoms: N_12  and  C_13
REMARK    5  A    between atoms: C_19  and  N_20
REMARK                            x       y       z     vdW  Elec       q    Type
REMARK                         _______ _______ _______ _____ _____    ______ ____
ROOT
ATOM      1  C   UNL     1       2.525   6.973  18.782  0.00  0.00    +0.000 A 
ATOM      2  N   UNL     1       3.203   7.255  17.651  0.00  0.00    +0.000 NA
ATOM      3  N   UNL     1       3.073   8.424  17.062  0.00  0.00    +0.000 NA
ATOM      4  N   UNL     1       2.252   9.339  17.508  0.00  0.00    +0.000 NA
ATOM      5  C   UNL     1       1.609   9.138  18.666  0.00  0.00    +0.000 A 
ATOM      6  C   UNL     1       0.740  10.121  19.175  0.00  0.00    +0.000 A 
ATOM      7  C   UNL     1       0.079   9.993  20.409  0.00  0.00    +0.000 A 
ATOM      8  C   UNL     1       0.356   8.855  21.159  0.00  0.00    +0.000 A 
ATOM      9  C   UNL     1       1.219   7.886  20.685  0.00  0.00    +0.000 A 
ATOM     10  C   UNL     1       1.782   7.977  19.396  0.00  0.00    +0.000 A 
ENDROOT
BRANCH   1  15
ATOM     11  C   UNL     1       4.049   3.775  19.851  0.00  0.00    +0.000 C 
ATOM     12  C   UNL     1       2.817   2.849  19.701  0.00  0.00    +0.000 C 
ATOM     13  C   UNL     1       1.706   3.403  18.815  0.00  0.00    +0.000 C 
ATOM     14  C   UNL     1       1.346   4.823  19.207  0.00  0.00    +0.000 C 
ATOM     15  N   UNL     1       2.539   5.656  19.229  0.00  0.00    +0.000 N 
ATOM     16  C   UNL     1       3.629   5.238  20.096  0.00  0.00    +0.000 C 
BRANCH  11  17
ATOM     17  C   UNL     1       5.052   3.556  18.699  0.00  0.00    +0.000 C 
BRANCH  17  18
ATOM     18  C   UNL     1       5.829   4.754  18.181  0.00  0.00    +0.000 A 
ATOM     19  N   UNL     1       5.670   5.196  16.944  0.00  0.00    +0.000 NA
ATOM     20  C   UNL     1       6.567   6.212  16.683  0.00  0.00    +0.000 A 
ATOM     21  C   UNL     1       7.396   6.555  17.727  0.00  0.00    +0.000 A 
ATOM     22  S   UNL     1       7.075   5.544  19.070  0.00  0.00    +0.000 S 
ENDBRANCH  17  18
BRANCH  17  23
ATOM     23  O   UNL     1       4.446   2.910  17.579  0.00  0.00    +0.000 OA
ATOM     24  H   UNL     1       4.901   2.050  17.483  0.00  0.00    +0.000 HD
ENDBRANCH  17  23
ENDBRANCH  11  17
ENDBRANCH   1  15
BRANCH   7  25
ATOM     25  N   UNL     1      -0.809  10.918  20.905  0.00  0.00    +0.000 N 
ATOM     26  C   UNL     1      -1.734  11.694  20.073  0.00  0.00    +0.000 C 
ATOM     27  C   UNL     1      -1.380  13.185  20.138  0.00  0.00    +0.000 C 
ATOM     28  O   UNL     1      -1.319  13.658  21.496  0.00  0.00    +0.000 OA
ATOM     29  C   UNL     1      -0.322  12.931  22.230  0.00  0.00    +0.000 C 
ATOM     30  C   UNL     1      -0.638  11.431  22.276  0.00  0.00    +0.000 C 
ENDBRANCH   7  25
TORSDOF 5
ENDMDL
MODEL 7
REMARK VINA RESULT:      -7.5      3.211      9.131
REMARK  Name = 
REMARK  5 active torsions:
REMARK  status: ('A' for Active; 'I' for Inactive)
REMARK    1  A    between atoms: O_1  and  C_2
REMARK    2  A    between atoms: C_2  and  C_3
REMARK    3  A    between atoms: C_2  and  C_8
REMARK    4  A    between atoms: N_12  and  C_13
REMARK    5  A    between atoms: C_19  and  N_20
REMARK                            x       y       z     vdW  Elec       q    Type
REMARK                         _______ _______ _______ _____ _____    ______ ____
ROOT
ATOM      1  C   UNL     1       1.404   8.893  19.538  0.00  0.00    +0.000 A 
ATOM      2  N   UNL     1       1.170   9.947  18.732  0.00  0.00    +0.000 NA
ATOM      3  N   UNL     1       1.775  10.053  17.569  0.00  0.00    +0.000 NA
ATOM      4  N   UNL     1       2.661   9.181  17.165  0.00  0.00    +0.000 NA
ATOM      5  C   UNL     1       2.879   8.078  17.894  0.00  0.00    +0.000 A 
ATOM      6  C   UNL     1       3.810   7.115  17.465  0.00  0.00    +0.000 A 
ATOM      7  C   UNL     1       4.045   5.915  18.156  0.00  0.00    +0.000 A 
ATOM      8  C   UNL     1       3.268   5.675  19.285  0.00  0.00    +0.000 A 
ATOM      9  C   UNL     1       2.336   6.599  19.714  0.00  0.00    +0.000 A 
ATOM     10  C   UNL     1       2.198   7.847  19.075  0.00  0.00    +0.000 A 
ENDROOT
BRANCH   1  15
ATOM     11  C   UNL     1      -0.790  10.076  22.273  0.00  0.00    +0.000 C 
ATOM     12  C   UNL     1       0.028   9.568  23.487  0.00  0.00    +0.000 C 
ATOM     13  C   UNL     1       1.488   9.247  23.183  0.00  0.00    +0.000 C 
ATOM     14  C   UNL     1       1.613   8.359  21.960  0.00  0.00    +0.000 C 
ATOM     15  N   UNL     1       0.904   8.950  20.835  0.00  0.00    +0.000 N 
ATOM     16  C   UNL     1      -0.511   9.233  21.012  0.00  0.00    +0.000 C 
BRANCH  11  17
ATOM     17  C   UNL     1      -0.637  11.601  22.100  0.00  0.00    +0.000 C 
BRANCH  17  18
ATOM     18  C   UNL     1      -1.554  12.514  22.896  0.00  0.00    +0.000 A 
ATOM     19  N   UNL     1      -2.761  12.121  23.273  0.00  0.00    +0.000 NA
ATOM     20  C   UNL     1      -3.434  13.163  23.876  0.00  0.00    +0.000 A 
ATOM     21  C   UNL     1      -2.735  14.344  23.974  0.00  0.00    +0.000 A 
ATOM     22  S   UNL     1      -1.196  14.161  23.248  0.00  0.00    +0.000 S 
ENDBRANCH  17  18
BRANCH  17  23
ATOM     23  O   UNL     1      -0.712  11.994  20.729  0.00  0.00    +0.000 OA
ATOM     24  H   UNL     1      -1.352  12.732  20.692  0.00  0.00    +0.000 HD
ENDBRANCH  17  23
ENDBRANCH  11  17
ENDBRANCH   1  15
BRANCH   7  25
ATOM     25  N   UNL     1       4.982   4.981  17.781  0.00  0.00    +0.000 N 
ATOM     26  C   UNL     1       6.110   4.569  18.623  0.00  0.00    +0.000 C 
ATOM     27  C   UNL     1       7.435   4.985  17.974  0.00  0.00    +0.000 C 
ATOM     28  O   UNL     1       7.539   4.500  16.623  0.00  0.00    +0.000 OA
ATOM     29  C   UNL     1       6.468   5.023  15.823  0.00  0.00    +0.000 C 
ATOM     30  C   UNL     1       5.099   4.592  16.365  0.00  0.00    +0.000 C 
ENDBRANCH   7  25
TORSDOF 5
ENDMDL
MODEL 8
REMARK VINA RESULT:      -7.5      2.253      3.790
REMARK  Name = 
REMARK  5 active torsions:
REMARK  status: ('A' for Active; 'I' for Inactive)
REMARK    1  A    between atoms: O_1  and  C_2
REMARK    2  A    between atoms: C_2  and  C_3
REMARK    3  A    between atoms: C_2  and  C_8
REMARK    4  A    between atoms: N_12  and  C_13
REMARK    5  A    between atoms: C_19  and  N_20
REMARK                            x       y       z     vdW  Elec       q    Type
REMARK                         _______ _______ _______ _____ _____    ______ ____
ROOT
ATOM      1  C   UNL     1       2.298   6.788  19.161  0.00  0.00    +0.000 A 
ATOM      2  N   UNL     1       1.921   5.991  20.181  0.00  0.00    +0.000 NA
ATOM      3  N   UNL     1       1.299   6.486  21.229  0.00  0.00    +0.000 NA
ATOM      4  N   UNL     1       1.066   7.766  21.357  0.00  0.00    +0.000 NA
ATOM      5  C   UNL     1       1.356   8.593  20.342  0.00  0.00    +0.000 A 
ATOM      6  C   UNL     1       1.090   9.970  20.451  0.00  0.00    +0.000 A 
ATOM      7  C   UNL     1       1.321  10.880  19.405  0.00  0.00    +0.000 A 
ATOM      8  C   UNL     1       1.787  10.354  18.204  0.00  0.00    +0.000 A 
ATOM      9  C   UNL     1       2.038   9.003  18.071  0.00  0.00    +0.000 A 
ATOM     10  C   UNL     1       1.911   8.125  19.166  0.00  0.00    +0.000 A 
ENDROOT
BRANCH   1  15
ATOM     11  C   UNL     1       3.788   4.106  17.092  0.00  0.00    +0.000 C 
ATOM     12  C   UNL     1       5.056   4.846  16.600  0.00  0.00    +0.000 C 
ATOM     13  C   UNL     1       5.442   6.069  17.426  0.00  0.00    +0.000 C 
ATOM     14  C   UNL     1       4.255   6.988  17.636  0.00  0.00    +0.000 C 
ATOM     15  N   UNL     1       3.136   6.243  18.193  0.00  0.00    +0.000 N 
ATOM     16  C   UNL     1       2.657   5.095  17.441  0.00  0.00    +0.000 C 
BRANCH  11  17
ATOM     17  C   UNL     1       4.134   3.080  18.190  0.00  0.00    +0.000 C 
BRANCH  17  18
ATOM     18  C   UNL     1       3.177   2.922  19.359  0.00  0.00    +0.000 A 
ATOM     19  N   UNL     1       3.587   3.065  20.610  0.00  0.00    +0.000 NA
ATOM     20  C   UNL     1       2.563   2.760  21.484  0.00  0.00    +0.000 A 
ATOM     21  C   UNL     1       1.370   2.402  20.899  0.00  0.00    +0.000 A 
ATOM     22  S   UNL     1       1.543   2.403  19.196  0.00  0.00    +0.000 S 
ENDBRANCH  17  18
BRANCH  17  23
ATOM     23  O   UNL     1       5.443   3.287  18.722  0.00  0.00    +0.000 OA
ATOM     24  H   UNL     1       5.811   4.058  18.246  0.00  0.00    +0.000 HD
ENDBRANCH  17  23
ENDBRANCH  11  17
ENDBRANCH   1  15
BRANCH   7  25
ATOM     25  N   UNL     1       1.113  12.235  19.503  0.00  0.00    +0.000 N 
ATOM     26  C   UNL     1       0.740  12.918  20.745  0.00  0.00    +0.000 C 
ATOM     27  C   UNL     1      -0.665  13.521  20.617  0.00  0.00    +0.000 C 
ATOM     28  O   UNL     1      -0.776  14.367  19.458  0.00  0.00    +0.000 OA
ATOM     29  C   UNL     1      -0.503  13.615  18.266  0.00  0.00    +0.000 C 
ATOM     30  C   UNL     1       0.916  13.033  18.280  0.00  0.00    +0.000 C 
ENDBRANCH   7  25
TORSDOF 5
ENDMDL
MODEL 9
REMARK VINA RESULT:      -7.5      3.357      8.844
REMARK  Name = 
REMARK  5 active torsions:
REMARK  status: ('A' for Active; 'I' for Inactive)
REMARK    1  A    between atoms: O_1  and  C_2
REMARK    2  A    between atoms: C_2  and  C_3
REMARK    3  A    between atoms: C_2  and  C_8
REMARK    4  A    between atoms: N_12  and  C_13
REMARK    5  A    between atoms: C_19  and  N_20
REMARK                            x       y       z     vdW  Elec       q    Type
REMARK                         _______ _______ _______ _____ _____    ______ ____
ROOT
ATOM      1  C   UNL     1       1.104  10.492  20.650  0.00  0.00    +0.000 A 
ATOM      2  N   UNL     1       0.881  10.403  21.977  0.00  0.00    +0.000 NA
ATOM      3  N   UNL     1       0.997   9.253  22.604  0.00  0.00    +0.000 NA
ATOM      4  N   UNL     1       1.279   8.144  21.973  0.00  0.00    +0.000 NA
ATOM      5  C   UNL     1       1.580   8.187  20.667  0.00  0.00    +0.000 A 
ATOM      6  C   UNL     1       1.910   7.007  19.976  0.00  0.00    +0.000 A 
ATOM      7  C   UNL     1       2.285   6.993  18.622  0.00  0.00    +0.000 A 
ATOM      8  C   UNL     1       2.374   8.224  17.979  0.00  0.00    +0.000 A 
ATOM      9  C   UNL     1       2.071   9.395  18.644  0.00  0.00    +0.000 A 
ATOM     10  C   UNL     1       1.584   9.378  19.967  0.00  0.00    +0.000 A 
ENDROOT
BRANCH   1  15
ATOM     11  C   UNL     1      -1.138  12.882  18.931  0.00  0.00    +0.000 C 
ATOM     12  C   UNL     1      -0.073  13.816  18.304  0.00  0.00    +0.000 C 
ATOM     13  C   UNL     1       1.327  13.217  18.213  0.00  0.00    +0.000 C 
ATOM     14  C   UNL     1       1.757  12.621  19.539  0.00  0.00    +0.000 C 
ATOM     15  N   UNL     1       0.755  11.680  20.016  0.00  0.00    +0.000 N 
ATOM     16  C   UNL     1      -0.599  12.179  20.194  0.00  0.00    +0.000 C 
BRANCH  11  17
ATOM     17  C   UNL     1      -1.757  11.953  17.867  0.00  0.00    +0.000 C 
BRANCH  17  18
ATOM     18  C   UNL     1      -3.262  11.747  17.876  0.00  0.00    +0.000 A 
ATOM     19  N   UNL     1      -3.974  11.907  18.981  0.00  0.00    +0.000 NA
ATOM     20  C   UNL     1      -5.288  11.551  18.756  0.00  0.00    +0.000 A 
ATOM     21  C   UNL     1      -5.581  11.138  17.476  0.00  0.00    +0.000 A 
ATOM     22  S   UNL     1      -4.155  11.151  16.529  0.00  0.00    +0.000 S 
ENDBRANCH  17  18
BRANCH  17  23
ATOM     23  O   UNL     1      -1.140  10.665  17.858  0.00  0.00    +0.000 OA
ATOM     24  H   UNL     1      -1.532  10.170  18.605  0.00  0.00    +0.000 HD
ENDBRANCH  17  23
ENDBRANCH  11  17
ENDBRANCH   1  15
BRANCH   7  25
ATOM     25  N   UNL     1       2.567   5.849  17.913  0.00  0.00    +0.000 N 
ATOM     26  C   UNL     1       1.672   4.690  17.839  0.00  0.00    +0.000 C 
ATOM     27  C   UNL     1       2.323   3.475  18.510  0.00  0.00    +0.000 C 
ATOM     28  O   UNL     1       3.630   3.207  17.973  0.00  0.00    +0.000 OA
ATOM     29  C   UNL     1       4.491   4.339  18.171  0.00  0.00    +0.000 C 
ATOM     30  C   UNL     1       3.947   5.589  17.467  0.00  0.00    +0.000 C 
ENDBRANCH   7  25
TORSDOF 5
ENDMDL
