MODEL 1
REMARK VINA RESULT:      -8.2      0.000      0.000
REMARK  Name = 
REMARK  6 active torsions:
REMARK  status: ('A' for Active; 'I' for Inactive)
REMARK    1  A    between atoms: C_2  and  O_3
REMARK    2  A    between atoms: C_2  and  C_20
REMARK    3  A    between atoms: O_3  and  C_4
REMARK    4  A    between atoms: C_8  and  O_9
REMARK    5  A    between atoms: O_9  and  C_10
REMARK    6  A    between atoms: C_10  and  C_12
REMARK                            x       y       z     vdW  Elec       q    Type
REMARK                         _______ _______ _______ _____ _____    ______ ____
ROOT
ATOM      1  C   UNL     1       6.680   5.034  15.931  0.00  0.00    +0.000 A 
ATOM      2  C   UNL     1       6.843   4.650  17.206  0.00  0.00    +0.000 A 
ATOM      3  C   UNL     1       5.940   5.178  18.258  0.00  0.00    +0.000 A 
ATOM      4  O   UNL     1       5.948   4.689  19.383  0.00  0.00    +0.000 OA
ATOM      5  C   UNL     1       4.979   6.239  17.848  0.00  0.00    +0.000 A 
ATOM      6  C   UNL     1       4.948   6.552  16.550  0.00  0.00    +0.000 A 
ATOM      7  O   UNL     1       5.747   5.999  15.577  0.00  0.00    +0.000 OA
ENDROOT
BRANCH   1   8
ATOM      8  O   UNL     1       7.459   4.377  14.927  0.00  0.00    +0.000 OA
BRANCH   8  10
ATOM      9  O   UNL     1       7.877   5.808  13.151  0.00  0.00    +0.000 OA
ATOM     10  C   UNL     1       7.370   4.808  13.633  0.00  0.00    +0.000 C 
BRANCH  10  11
ATOM     11  C   UNL     1       6.503   3.908  12.808  0.00  0.00    +0.000 A 
ATOM     12  C   UNL     1       7.136   2.921  12.033  0.00  0.00    +0.000 A 
ATOM     13  C   UNL     1       6.395   2.081  11.195  0.00  0.00    +0.000 A 
ATOM     14  C   UNL     1       5.012   2.219  11.125  0.00  0.00    +0.000 A 
ATOM     15  C   UNL     1       4.369   3.186  11.897  0.00  0.00    +0.000 A 
ATOM     16  C   UNL     1       5.110   4.028  12.736  0.00  0.00    +0.000 A 
ENDBRANCH  10  11
ENDBRANCH   8  10
ENDBRANCH   1   8
BRANCH   5  17
ATOM     17  O   UNL     1       4.051   6.790  18.754  0.00  0.00    +0.000 OA
BRANCH  17  18
ATOM     18  C   UNL     1       2.745   6.700  18.368  0.00  0.00    +0.000 C 
ATOM     19  O   UNL     1       2.118   7.523  17.714  0.00  0.00    +0.000 OA
BRANCH  18  20
ATOM     20  C   UNL     1       2.170   5.376  18.771  0.00  0.00    +0.000 A 
ATOM     21  C   UNL     1       1.880   5.167  20.130  0.00  0.00    +0.000 A 
ATOM     22  C   UNL     1       1.314   3.963  20.564  0.00  0.00    +0.000 A 
ATOM     23  C   UNL     1       1.027   2.955  19.647  0.00  0.00    +0.000 A 
ATOM     24  C   UNL     1       1.306   3.153  18.294  0.00  0.00    +0.000 A 
ATOM     25  C   UNL     1       1.877   4.355  17.857  0.00  0.00    +0.000 A 
ENDBRANCH  18  20
ENDBRANCH  17  18
ENDBRANCH   5  17
TORSDOF 6
ENDMDL
MODEL 2
REMARK VINA RESULT:      -8.2      3.485      7.443
REMARK  Name = 
REMARK  6 active torsions:
REMARK  status: ('A' for Active; 'I' for Inactive)
REMARK    1  A    between atoms: C_2  and  O_3
REMARK    2  A    between atoms: C_2  and  C_20
REMARK    3  A    between atoms: O_3  and  C_4
REMARK    4  A    between atoms: C_8  and  O_9
REMARK    5  A    between atoms: O_9  and  C_10
REMARK    6  A    between atoms: C_10  and  C_12
REMARK                            x       y       z     vdW  Elec       q    Type
REMARK                         _______ _______ _______ _____ _____    ______ ____
ROOT
ATOM      1  C   UNL     1       4.370   4.678  16.853  0.00  0.00    +0.000 A 
ATOM      2  C   UNL     1       5.444   4.539  16.062  0.00  0.00    +0.000 A 
ATOM      3  C   UNL     1       6.483   5.598  16.034  0.00  0.00    +0.000 A 
ATOM      4  O   UNL     1       7.556   5.398  15.475  0.00  0.00    +0.000 OA
ATOM      5  C   UNL     1       6.191   6.845  16.793  0.00  0.00    +0.000 A 
ATOM      6  C   UNL     1       5.065   6.863  17.510  0.00  0.00    +0.000 A 
ATOM      7  O   UNL     1       4.148   5.841  17.579  0.00  0.00    +0.000 OA
ENDROOT
BRANCH   1   8
ATOM      8  O   UNL     1       3.479   3.566  16.977  0.00  0.00    +0.000 OA
BRANCH   8  10
ATOM      9  O   UNL     1       1.260   4.223  17.117  0.00  0.00    +0.000 OA
ATOM     10  C   UNL     1       2.275   3.748  17.599  0.00  0.00    +0.000 C 
BRANCH  10  11
ATOM     11  C   UNL     1       2.324   3.323  19.034  0.00  0.00    +0.000 A 
ATOM     12  C   UNL     1       1.197   3.588  19.832  0.00  0.00    +0.000 A 
ATOM     13  C   UNL     1       1.193   3.272  21.194  0.00  0.00    +0.000 A 
ATOM     14  C   UNL     1       2.314   2.685  21.773  0.00  0.00    +0.000 A 
ATOM     15  C   UNL     1       3.435   2.406  20.990  0.00  0.00    +0.000 A 
ATOM     16  C   UNL     1       3.441   2.723  19.626  0.00  0.00    +0.000 A 
ENDBRANCH  10  11
ENDBRANCH   8  10
ENDBRANCH   1   8
BRANCH   5  17
ATOM     17  O   UNL     1       7.119   7.904  16.866  0.00  0.00    +0.000 OA
BRANCH  17  18
ATOM     18  C   UNL     1       7.889   7.920  17.993  0.00  0.00    +0.000 C 
ATOM     19  O   UNL     1       8.227   6.951  18.659  0.00  0.00    +0.000 OA
BRANCH  18  20
ATOM     20  C   UNL     1       8.375   9.309  18.276  0.00  0.00    +0.000 A 
ATOM     21  C   UNL     1       9.187   9.508  19.406  0.00  0.00    +0.000 A 
ATOM     22  C   UNL     1       9.696  10.776  19.707  0.00  0.00    +0.000 A 
ATOM     23  C   UNL     1       9.406  11.860  18.882  0.00  0.00    +0.000 A 
ATOM     24  C   UNL     1       8.604  11.674  17.755  0.00  0.00    +0.000 A 
ATOM     25  C   UNL     1       8.089  10.407  17.453  0.00  0.00    +0.000 A 
ENDBRANCH  18  20
ENDBRANCH  17  18
ENDBRANCH   5  17
TORSDOF 6
ENDMDL
MODEL 3
REMARK VINA RESULT:      -8.2      1.788      7.145
REMARK  Name = 
REMARK  6 active torsions:
REMARK  status: ('A' for Active; 'I' for Inactive)
REMARK    1  A    between atoms: C_2  and  O_3
REMARK    2  A    between atoms: C_2  and  C_20
REMARK    3  A    between atoms: O_3  and  C_4
REMARK    4  A    between atoms: C_8  and  O_9
REMARK    5  A    between atoms: O_9  and  C_10
REMARK    6  A    between atoms: C_10  and  C_12
REMARK                            x       y       z     vdW  Elec       q    Type
REMARK                         _______ _______ _______ _____ _____    ______ ____
ROOT
ATOM      1  C   UNL     1       5.613   4.235  18.404  0.00  0.00    +0.000 A 
ATOM      2  C   UNL     1       6.585   5.136  18.202  0.00  0.00    +0.000 A 
ATOM      3  C   UNL     1       6.786   5.718  16.851  0.00  0.00    +0.000 A 
ATOM      4  O   UNL     1       7.530   6.680  16.696  0.00  0.00    +0.000 OA
ATOM      5  C   UNL     1       5.971   5.143  15.745  0.00  0.00    +0.000 A 
ATOM      6  C   UNL     1       5.064   4.223  16.083  0.00  0.00    +0.000 A 
ATOM      7  O   UNL     1       4.845   3.748  17.354  0.00  0.00    +0.000 OA
ENDROOT
BRANCH   1   8
ATOM      8  O   UNL     1       5.346   3.825  19.748  0.00  0.00    +0.000 OA
BRANCH   8  10
ATOM      9  O   UNL     1       5.116   1.563  20.203  0.00  0.00    +0.000 OA
ATOM     10  C   UNL     1       4.653   2.665  19.961  0.00  0.00    +0.000 C 
BRANCH  10  11
ATOM     11  C   UNL     1       3.177   2.869  19.822  0.00  0.00    +0.000 A 
ATOM     12  C   UNL     1       2.572   3.844  20.635  0.00  0.00    +0.000 A 
ATOM     13  C   UNL     1       1.189   4.050  20.600  0.00  0.00    +0.000 A 
ATOM     14  C   UNL     1       0.395   3.284  19.751  0.00  0.00    +0.000 A 
ATOM     15  C   UNL     1       0.983   2.321  18.930  0.00  0.00    +0.000 A 
ATOM     16  C   UNL     1       2.369   2.113  18.964  0.00  0.00    +0.000 A 
ENDBRANCH  10  11
ENDBRANCH   8  10
ENDBRANCH   1   8
BRANCH   5  17
ATOM     17  O   UNL     1       6.052   5.639  14.428  0.00  0.00    +0.000 OA
BRANCH  17  18
ATOM     18  C   UNL     1       7.043   5.092  13.666  0.00  0.00    +0.000 C 
ATOM     19  O   UNL     1       8.239   5.342  13.735  0.00  0.00    +0.000 OA
BRANCH  18  20
ATOM     20  C   UNL     1       6.486   4.034  12.763  0.00  0.00    +0.000 A 
ATOM     21  C   UNL     1       7.389   3.158  12.136  0.00  0.00    +0.000 A 
ATOM     22  C   UNL     1       6.928   2.130  11.305  0.00  0.00    +0.000 A 
ATOM     23  C   UNL     1       5.562   1.961  11.095  0.00  0.00    +0.000 A 
ATOM     24  C   UNL     1       4.656   2.821  11.716  0.00  0.00    +0.000 A 
ATOM     25  C   UNL     1       5.113   3.854  12.544  0.00  0.00    +0.000 A 
ENDBRANCH  18  20
ENDBRANCH  17  18
ENDBRANCH   5  17
TORSDOF 6
ENDMDL
MODEL 4
REMARK VINA RESULT:      -8.0      1.769      7.092
REMARK  Name = 
REMARK  6 active torsions:
REMARK  status: ('A' for Active; 'I' for Inactive)
REMARK    1  A    between atoms: C_2  and  O_3
REMARK    2  A    between atoms: C_2  and  C_20
REMARK    3  A    between atoms: O_3  and  C_4
REMARK    4  A    between atoms: C_8  and  O_9
REMARK    5  A    between atoms: O_9  and  C_10
REMARK    6  A    between atoms: C_10  and  C_12
REMARK                            x       y       z     vdW  Elec       q    Type
REMARK                         _______ _______ _______ _____ _____    ______ ____
ROOT
ATOM      1  C   UNL     1       5.578   4.303  18.454  0.00  0.00    +0.000 A 
ATOM      2  C   UNL     1       6.334   5.392  18.250  0.00  0.00    +0.000 A 
ATOM      3  C   UNL     1       6.478   5.948  16.882  0.00  0.00    +0.000 A 
ATOM      4  O   UNL     1       6.995   7.046  16.711  0.00  0.00    +0.000 OA
ATOM      5  C   UNL     1       5.879   5.158  15.771  0.00  0.00    +0.000 A 
ATOM      6  C   UNL     1       5.182   4.072  16.113  0.00  0.00    +0.000 A 
ATOM      7  O   UNL     1       5.001   3.612  17.397  0.00  0.00    +0.000 OA
ENDROOT
BRANCH   1   8
ATOM      8  O   UNL     1       5.331   3.900  19.803  0.00  0.00    +0.000 OA
BRANCH   8  10
ATOM      9  O   UNL     1       5.097   1.635  20.241  0.00  0.00    +0.000 OA
ATOM     10  C   UNL     1       4.636   2.745  20.033  0.00  0.00    +0.000 C 
BRANCH  10  11
ATOM     11  C   UNL     1       3.157   2.965  19.961  0.00  0.00    +0.000 A 
ATOM     12  C   UNL     1       2.414   2.136  19.103  0.00  0.00    +0.000 A 
ATOM     13  C   UNL     1       1.037   2.321  18.941  0.00  0.00    +0.000 A 
ATOM     14  C   UNL     1       0.388   3.337  19.637  0.00  0.00    +0.000 A 
ATOM     15  C   UNL     1       1.111   4.160  20.500  0.00  0.00    +0.000 A 
ATOM     16  C   UNL     1       2.490   3.977  20.663  0.00  0.00    +0.000 A 
ENDBRANCH  10  11
ENDBRANCH   8  10
ENDBRANCH   1   8
BRANCH   5  17
ATOM     17  O   UNL     1       5.923   5.605  14.434  0.00  0.00    +0.000 OA
BRANCH  17  18
ATOM     18  C   UNL     1       6.960   5.112  13.696  0.00  0.00    +0.000 C 
ATOM     19  O   UNL     1       8.137   5.436  13.783  0.00  0.00    +0.000 OA
BRANCH  18  20
ATOM     20  C   UNL     1       6.486   4.012  12.796  0.00  0.00    +0.000 A 
ATOM     21  C   UNL     1       5.106   3.911  12.546  0.00  0.00    +0.000 A 
ATOM     22  C   UNL     1       4.605   2.924  11.691  0.00  0.00    +0.000 A 
ATOM     23  C   UNL     1       5.472   2.029  11.071  0.00  0.00    +0.000 A 
ATOM     24  C   UNL     1       6.844   2.122  11.308  0.00  0.00    +0.000 A 
ATOM     25  C   UNL     1       7.350   3.105  12.168  0.00  0.00    +0.000 A 
ENDBRANCH  18  20
ENDBRANCH  17  18
ENDBRANCH   5  17
TORSDOF 6
ENDMDL
MODEL 5
REMARK VINA RESULT:      -8.0      0.973      7.157
REMARK  Name = 
REMARK  6 active torsions:
REMARK  status: ('A' for Active; 'I' for Inactive)
REMARK    1  A    between atoms: C_2  and  O_3
REMARK    2  A    between atoms: C_2  and  C_20
REMARK    3  A    between atoms: O_3  and  C_4
REMARK    4  A    between atoms: C_8  and  O_9
REMARK    5  A    between atoms: O_9  and  C_10
REMARK    6  A    between atoms: C_10  and  C_12
REMARK                            x       y       z     vdW  Elec       q    Type
REMARK                         _______ _______ _______ _____ _____    ______ ____
ROOT
ATOM      1  C   UNL     1       4.921   5.632  18.090  0.00  0.00    +0.000 A 
ATOM      2  C   UNL     1       6.154   5.189  18.376  0.00  0.00    +0.000 A 
ATOM      3  C   UNL     1       6.979   4.561  17.314  0.00  0.00    +0.000 A 
ATOM      4  O   UNL     1       8.169   4.335  17.507  0.00  0.00    +0.000 OA
ATOM      5  C   UNL     1       6.317   4.323  16.002  0.00  0.00    +0.000 A 
ATOM      6  C   UNL     1       5.071   4.784  15.866  0.00  0.00    +0.000 A 
ATOM      7  O   UNL     1       4.347   5.427  16.842  0.00  0.00    +0.000 OA
ENDROOT
BRANCH   1   8
ATOM      8  O   UNL     1       4.226   6.377  19.094  0.00  0.00    +0.000 OA
BRANCH   8  10
ATOM      9  O   UNL     1       2.135   7.314  18.739  0.00  0.00    +0.000 OA
ATOM     10  C   UNL     1       2.858   6.393  19.079  0.00  0.00    +0.000 C 
BRANCH  10  11
ATOM     11  C   UNL     1       2.285   5.108  19.590  0.00  0.00    +0.000 A 
ATOM     12  C   UNL     1       1.587   4.296  18.680  0.00  0.00    +0.000 A 
ATOM     13  C   UNL     1       0.975   3.110  19.099  0.00  0.00    +0.000 A 
ATOM     14  C   UNL     1       1.057   2.722  20.434  0.00  0.00    +0.000 A 
ATOM     15  C   UNL     1       1.756   3.512  21.346  0.00  0.00    +0.000 A 
ATOM     16  C   UNL     1       2.369   4.701  20.927  0.00  0.00    +0.000 A 
ENDBRANCH  10  11
ENDBRANCH   8  10
ENDBRANCH   1   8
BRANCH   5  17
ATOM     17  O   UNL     1       7.012   3.765  14.910  0.00  0.00    +0.000 OA
BRANCH  17  18
ATOM     18  C   UNL     1       6.914   4.468  13.744  0.00  0.00    +0.000 C 
ATOM     19  O   UNL     1       7.413   5.559  13.505  0.00  0.00    +0.000 OA
BRANCH  18  20
ATOM     20  C   UNL     1       6.174   3.670  12.713  0.00  0.00    +0.000 A 
ATOM     21  C   UNL     1       6.850   2.605  12.092  0.00  0.00    +0.000 A 
ATOM     22  C   UNL     1       6.204   1.805  11.143  0.00  0.00    +0.000 A 
ATOM     23  C   UNL     1       4.876   2.054  10.806  0.00  0.00    +0.000 A 
ATOM     24  C   UNL     1       4.194   3.105  11.419  0.00  0.00    +0.000 A 
ATOM     25  C   UNL     1       4.838   3.911  12.366  0.00  0.00    +0.000 A 
ENDBRANCH  18  20
ENDBRANCH  17  18
ENDBRANCH   5  17
TORSDOF 6
ENDMDL
MODEL 6
REMARK VINA RESULT:      -7.8      1.198      1.885
REMARK  Name = 
REMARK  6 active torsions:
REMARK  status: ('A' for Active; 'I' for Inactive)
REMARK    1  A    between atoms: C_2  and  O_3
REMARK    2  A    between atoms: C_2  and  C_20
REMARK    3  A    between atoms: O_3  and  C_4
REMARK    4  A    between atoms: C_8  and  O_9
REMARK    5  A    between atoms: O_9  and  C_10
REMARK    6  A    between atoms: C_10  and  C_12
REMARK                            x       y       z     vdW  Elec       q    Type
REMARK                         _______ _______ _______ _____ _____    ______ ____
ROOT
ATOM      1  C   UNL     1       6.563   4.895  15.383  0.00  0.00    +0.000 A 
ATOM      2  C   UNL     1       6.052   3.836  16.028  0.00  0.00    +0.000 A 
ATOM      3  C   UNL     1       4.786   3.974  16.789  0.00  0.00    +0.000 A 
ATOM      4  O   UNL     1       4.207   2.979  17.213  0.00  0.00    +0.000 OA
ATOM      5  C   UNL     1       4.223   5.346  16.914  0.00  0.00    +0.000 A 
ATOM      6  C   UNL     1       4.855   6.317  16.249  0.00  0.00    +0.000 A 
ATOM      7  O   UNL     1       5.990   6.156  15.490  0.00  0.00    +0.000 OA
ENDROOT
BRANCH   1   8
ATOM      8  O   UNL     1       7.689   4.682  14.529  0.00  0.00    +0.000 OA
BRANCH   8  10
ATOM      9  O   UNL     1       7.967   5.992  12.636  0.00  0.00    +0.000 OA
ATOM     10  C   UNL     1       7.579   4.982  13.199  0.00  0.00    +0.000 C 
BRANCH  10  11
ATOM     11  C   UNL     1       6.853   3.909  12.448  0.00  0.00    +0.000 A 
ATOM     12  C   UNL     1       5.450   3.975  12.407  0.00  0.00    +0.000 A 
ATOM     13  C   UNL     1       4.702   2.978  11.773  0.00  0.00    +0.000 A 
ATOM     14  C   UNL     1       5.351   1.903  11.171  0.00  0.00    +0.000 A 
ATOM     15  C   UNL     1       6.744   1.830  11.194  0.00  0.00    +0.000 A 
ATOM     16  C   UNL     1       7.494   2.829  11.830  0.00  0.00    +0.000 A 
ENDBRANCH  10  11
ENDBRANCH   8  10
ENDBRANCH   1   8
BRANCH   5  17
ATOM     17  O   UNL     1       3.008   5.593  17.584  0.00  0.00    +0.000 OA
BRANCH  17  18
ATOM     18  C   UNL     1       3.125   5.823  18.924  0.00  0.00    +0.000 C 
ATOM     19  O   UNL     1       3.646   6.795  19.455  0.00  0.00    +0.000 OA
BRANCH  18  20
ATOM     20  C   UNL     1       2.425   4.751  19.703  0.00  0.00    +0.000 A 
ATOM     21  C   UNL     1       1.463   3.971  19.037  0.00  0.00    +0.000 A 
ATOM     22  C   UNL     1       0.798   2.936  19.702  0.00  0.00    +0.000 A 
ATOM     23  C   UNL     1       1.086   2.662  21.036  0.00  0.00    +0.000 A 
ATOM     24  C   UNL     1       2.042   3.426  21.706  0.00  0.00    +0.000 A 
ATOM     25  C   UNL     1       2.707   4.467  21.046  0.00  0.00    +0.000 A 
ENDBRANCH  18  20
ENDBRANCH  17  18
ENDBRANCH   5  17
TORSDOF 6
ENDMDL
MODEL 7
REMARK VINA RESULT:      -7.7      0.742      6.995
REMARK  Name = 
REMARK  6 active torsions:
REMARK  status: ('A' for Active; 'I' for Inactive)
REMARK    1  A    between atoms: C_2  and  O_3
REMARK    2  A    between atoms: C_2  and  C_20
REMARK    3  A    between atoms: O_3  and  C_4
REMARK    4  A    between atoms: C_8  and  O_9
REMARK    5  A    between atoms: O_9  and  C_10
REMARK    6  A    between atoms: C_10  and  C_12
REMARK                            x       y       z     vdW  Elec       q    Type
REMARK                         _______ _______ _______ _____ _____    ______ ____
ROOT
ATOM      1  C   UNL     1       4.951   6.337  17.445  0.00  0.00    +0.000 A 
ATOM      2  C   UNL     1       5.931   5.595  17.982  0.00  0.00    +0.000 A 
ATOM      3  C   UNL     1       6.921   4.928  17.100  0.00  0.00    +0.000 A 
ATOM      4  O   UNL     1       7.929   4.417  17.576  0.00  0.00    +0.000 OA
ATOM      5  C   UNL     1       6.672   5.004  15.634  0.00  0.00    +0.000 A 
ATOM      6  C   UNL     1       5.636   5.748  15.238  0.00  0.00    +0.000 A 
ATOM      7  O   UNL     1       4.771   6.418  16.071  0.00  0.00    +0.000 OA
ENDROOT
BRANCH   1   8
ATOM      8  O   UNL     1       4.123   7.095  18.330  0.00  0.00    +0.000 OA
BRANCH   8  10
ATOM      9  O   UNL     1       2.040   7.910  17.716  0.00  0.00    +0.000 OA
ATOM     10  C   UNL     1       2.765   7.042  18.175  0.00  0.00    +0.000 C 
BRANCH  10  11
ATOM     11  C   UNL     1       2.199   5.756  18.690  0.00  0.00    +0.000 A 
ATOM     12  C   UNL     1       2.109   5.593  20.083  0.00  0.00    +0.000 A 
ATOM     13  C   UNL     1       1.644   4.396  20.637  0.00  0.00    +0.000 A 
ATOM     14  C   UNL     1       1.262   3.349  19.804  0.00  0.00    +0.000 A 
ATOM     15  C   UNL     1       1.335   3.501  18.419  0.00  0.00    +0.000 A 
ATOM     16  C   UNL     1       1.801   4.699  17.862  0.00  0.00    +0.000 A 
ENDBRANCH  10  11
ENDBRANCH   8  10
ENDBRANCH   1   8
BRANCH   5  17
ATOM     17  O   UNL     1       7.563   4.437  14.699  0.00  0.00    +0.000 OA
BRANCH  17  18
ATOM     18  C   UNL     1       7.399   4.864  13.414  0.00  0.00    +0.000 C 
ATOM     19  O   UNL     1       7.833   5.900  12.928  0.00  0.00    +0.000 OA
BRANCH  18  20
ATOM     20  C   UNL     1       6.679   3.828  12.605  0.00  0.00    +0.000 A 
ATOM     21  C   UNL     1       5.280   3.922  12.505  0.00  0.00    +0.000 A 
ATOM     22  C   UNL     1       4.554   3.003  11.740  0.00  0.00    +0.000 A 
ATOM     23  C   UNL     1       5.214   1.981  11.062  0.00  0.00    +0.000 A 
ATOM     24  C   UNL     1       6.603   1.880  11.150  0.00  0.00    +0.000 A 
ATOM     25  C   UNL     1       7.333   2.796  11.919  0.00  0.00    +0.000 A 
ENDBRANCH  18  20
ENDBRANCH  17  18
ENDBRANCH   5  17
TORSDOF 6
ENDMDL
MODEL 8
REMARK VINA RESULT:      -7.7      1.024      7.188
REMARK  Name = 
REMARK  6 active torsions:
REMARK  status: ('A' for Active; 'I' for Inactive)
REMARK    1  A    between atoms: C_2  and  O_3
REMARK    2  A    between atoms: C_2  and  C_20
REMARK    3  A    between atoms: O_3  and  C_4
REMARK    4  A    between atoms: C_8  and  O_9
REMARK    5  A    between atoms: O_9  and  C_10
REMARK    6  A    between atoms: C_10  and  C_12
REMARK                            x       y       z     vdW  Elec       q    Type
REMARK                         _______ _______ _______ _____ _____    ______ ____
ROOT
ATOM      1  C   UNL     1       4.764   5.743  17.793  0.00  0.00    +0.000 A 
ATOM      2  C   UNL     1       5.960   6.329  17.639  0.00  0.00    +0.000 A 
ATOM      3  C   UNL     1       6.892   5.844  16.591  0.00  0.00    +0.000 A 
ATOM      4  O   UNL     1       7.894   6.491  16.307  0.00  0.00    +0.000 OA
ATOM      5  C   UNL     1       6.491   4.613  15.854  0.00  0.00    +0.000 A 
ATOM      6  C   UNL     1       5.287   4.111  16.134  0.00  0.00    +0.000 A 
ATOM      7  O   UNL     1       4.407   4.618  17.062  0.00  0.00    +0.000 OA
ENDROOT
BRANCH   1   8
ATOM      8  O   UNL     1       3.833   6.344  18.698  0.00  0.00    +0.000 OA
BRANCH   8  10
ATOM      9  O   UNL     1       1.720   6.785  17.850  0.00  0.00    +0.000 OA
ATOM     10  C   UNL     1       2.496   6.120  18.518  0.00  0.00    +0.000 C 
BRANCH  10  11
ATOM     11  C   UNL     1       2.023   4.933  19.297  0.00  0.00    +0.000 A 
ATOM     12  C   UNL     1       2.363   4.868  20.659  0.00  0.00    +0.000 A 
ATOM     13  C   UNL     1       2.005   3.762  21.437  0.00  0.00    +0.000 A 
ATOM     14  C   UNL     1       1.301   2.709  20.860  0.00  0.00    +0.000 A 
ATOM     15  C   UNL     1       0.946   2.765  19.512  0.00  0.00    +0.000 A 
ATOM     16  C   UNL     1       1.305   3.872  18.732  0.00  0.00    +0.000 A 
ENDBRANCH  10  11
ENDBRANCH   8  10
ENDBRANCH   1   8
BRANCH   5  17
ATOM     17  O   UNL     1       7.281   4.081  14.815  0.00  0.00    +0.000 OA
BRANCH  17  18
ATOM     18  C   UNL     1       7.089   4.657  13.592  0.00  0.00    +0.000 C 
ATOM     19  O   UNL     1       7.526   5.737  13.218  0.00  0.00    +0.000 OA
BRANCH  18  20
ATOM     20  C   UNL     1       6.332   3.731  12.690  0.00  0.00    +0.000 A 
ATOM     21  C   UNL     1       4.978   4.013  12.438  0.00  0.00    +0.000 A 
ATOM     22  C   UNL     1       4.226   3.203  11.581  0.00  0.00    +0.000 A 
ATOM     23  C   UNL     1       4.816   2.105  10.959  0.00  0.00    +0.000 A 
ATOM     24  C   UNL     1       6.160   1.818  11.198  0.00  0.00    +0.000 A 
ATOM     25  C   UNL     1       6.916   2.623  12.060  0.00  0.00    +0.000 A 
ENDBRANCH  18  20
ENDBRANCH  17  18
ENDBRANCH   5  17
TORSDOF 6
ENDMDL
MODEL 9
REMARK VINA RESULT:      -7.7      2.675      8.301
REMARK  Name = 
REMARK  6 active torsions:
REMARK  status: ('A' for Active; 'I' for Inactive)
REMARK    1  A    between atoms: C_2  and  O_3
REMARK    2  A    between atoms: C_2  and  C_20
REMARK    3  A    between atoms: O_3  and  C_4
REMARK    4  A    between atoms: C_8  and  O_9
REMARK    5  A    between atoms: O_9  and  C_10
REMARK    6  A    between atoms: C_10  and  C_12
REMARK                            x       y       z     vdW  Elec       q    Type
REMARK                         _______ _______ _______ _____ _____    ______ ____
ROOT
ATOM      1  C   UNL     1       3.155   6.119  19.010  0.00  0.00    +0.000 A 
ATOM      2  C   UNL     1       4.211   5.694  19.719  0.00  0.00    +0.000 A 
ATOM      3  C   UNL     1       5.380   5.102  19.022  0.00  0.00    +0.000 A 
ATOM      4  O   UNL     1       6.424   4.895  19.630  0.00  0.00    +0.000 OA
ATOM      5  C   UNL     1       5.244   4.876  17.557  0.00  0.00    +0.000 A 
ATOM      6  C   UNL     1       4.121   5.316  16.983  0.00  0.00    +0.000 A 
ATOM      7  O   UNL     1       3.077   5.927  17.637  0.00  0.00    +0.000 OA
ENDROOT
BRANCH   1   8
ATOM      8  O   UNL     1       2.126   6.832  19.701  0.00  0.00    +0.000 OA
BRANCH   8  10
ATOM      9  O   UNL     1       2.237   8.709  18.343  0.00  0.00    +0.000 OA
ATOM     10  C   UNL     1       1.872   8.131  19.354  0.00  0.00    +0.000 C 
BRANCH  10  11
ATOM     11  C   UNL     1       1.089   8.843  20.412  0.00  0.00    +0.000 A 
ATOM     12  C   UNL     1       0.213   9.863  20.001  0.00  0.00    +0.000 A 
ATOM     13  C   UNL     1      -0.508  10.610  20.938  0.00  0.00    +0.000 A 
ATOM     14  C   UNL     1      -0.363  10.344  22.296  0.00  0.00    +0.000 A 
ATOM     15  C   UNL     1       0.494   9.327  22.718  0.00  0.00    +0.000 A 
ATOM     16  C   UNL     1       1.218   8.578  21.780  0.00  0.00    +0.000 A 
ENDBRANCH  10  11
ENDBRANCH   8  10
ENDBRANCH   1   8
BRANCH   5  17
ATOM     17  O   UNL     1       6.300   4.352  16.785  0.00  0.00    +0.000 OA
BRANCH  17  18
ATOM     18  C   UNL     1       6.940   5.259  15.990  0.00  0.00    +0.000 C 
ATOM     19  O   UNL     1       7.526   6.267  16.359  0.00  0.00    +0.000 OA
BRANCH  18  20
ATOM     20  C   UNL     1       6.924   4.806  14.561  0.00  0.00    +0.000 A 
ATOM     21  C   UNL     1       5.994   3.818  14.191  0.00  0.00    +0.000 A 
ATOM     22  C   UNL     1       5.910   3.376  12.867  0.00  0.00    +0.000 A 
ATOM     23  C   UNL     1       6.748   3.916  11.895  0.00  0.00    +0.000 A 
ATOM     24  C   UNL     1       7.672   4.900  12.249  0.00  0.00    +0.000 A 
ATOM     25  C   UNL     1       7.762   5.342  13.575  0.00  0.00    +0.000 A 
ENDBRANCH  18  20
ENDBRANCH  17  18
ENDBRANCH   5  17
TORSDOF 6
ENDMDL
