MODEL 1
REMARK VINA RESULT:      -8.4      0.000      0.000
REMARK  Name = 
REMARK  3 active torsions:
REMARK  status: ('A' for Active; 'I' for Inactive)
REMARK    1  A    between atoms: C_1  and  C_2
REMARK    2  A    between atoms: C_8  and  C_9
REMARK    3  A    between atoms: C_8  and  C_18
REMARK                            x       y       z     vdW  Elec       q    Type
REMARK                         _______ _______ _______ _____ _____    ______ ____
ROOT
ATOM      1  C   UNL     1      -2.652  10.485  15.951  0.00  0.00    +0.000 C 
ATOM      2  C   UNL     1      -2.575  11.117  17.311  0.00  0.00    +0.000 A 
ATOM      3  C   UNL     1      -3.752  11.508  17.986  0.00  0.00    +0.000 A 
ATOM      4  C   UNL     1      -3.700  12.052  19.271  0.00  0.00    +0.000 A 
ATOM      5  C   UNL     1      -2.461  12.167  19.865  0.00  0.00    +0.000 A 
ATOM      6  C   UNL     1      -1.276  11.791  19.225  0.00  0.00    +0.000 A 
ATOM      7  C   UNL     1      -1.323  11.289  17.928  0.00  0.00    +0.000 A 
ATOM      8  C   UNL     1      -0.110  11.967  20.193  0.00  0.00    +0.000 C 
ATOM      9  C   UNL     1      -0.833  12.600  21.428  0.00  0.00    +0.000 C 
ATOM     10  O   UNL     1      -0.349  13.011  22.474  0.00  0.00    +0.000 OA
ATOM     11  N   UNL     1      -2.198  12.646  21.138  0.00  0.00    +0.000 N 
ATOM     12  H   UNL     1      -2.877  13.012  21.787  0.00  0.00    +0.000 HD
ENDROOT
BRANCH   8  13
ATOM     13  C   UNL     1       0.872  12.934  19.546  0.00  0.00    +0.000 A 
ATOM     14  C   UNL     1       2.216  12.709  19.280  0.00  0.00    +0.000 A 
ATOM     15  N   UNL     1       2.781  13.861  18.808  0.00  0.00    +0.000 N 
ATOM     16  C   UNL     1       1.832  14.848  18.708  0.00  0.00    +0.000 A 
ATOM     17  C   UNL     1       1.967  16.180  18.289  0.00  0.00    +0.000 A 
ATOM     18  C   UNL     1       0.824  16.982  18.291  0.00  0.00    +0.000 A 
ATOM     19  C   UNL     1      -0.404  16.469  18.692  0.00  0.00    +0.000 A 
ATOM     20  C   UNL     1      -0.517  15.140  19.114  0.00  0.00    +0.000 A 
ATOM     21  C   UNL     1       0.622  14.301  19.137  0.00  0.00    +0.000 A 
ATOM     22  H   UNL     1       3.759  13.981  18.583  0.00  0.00    +0.000 HD
ENDBRANCH   8  13
BRANCH   8  23
ATOM     23  C   UNL     1       0.418  10.571  20.544  0.00  0.00    +0.000 A 
ATOM     24  C   UNL     1       0.386   9.910  21.768  0.00  0.00    +0.000 A 
ATOM     25  N   UNL     1       0.949   8.674  21.633  0.00  0.00    +0.000 N 
ATOM     26  C   UNL     1       1.410   8.503  20.354  0.00  0.00    +0.000 A 
ATOM     27  C   UNL     1       2.066   7.407  19.783  0.00  0.00    +0.000 A 
ATOM     28  C   UNL     1       2.443   7.502  18.442  0.00  0.00    +0.000 A 
ATOM     29  C   UNL     1       2.172   8.652  17.707  0.00  0.00    +0.000 A 
ATOM     30  C   UNL     1       1.513   9.739  18.295  0.00  0.00    +0.000 A 
ATOM     31  C   UNL     1       1.113   9.671  19.649  0.00  0.00    +0.000 A 
ATOM     32  H   UNL     1       1.033   7.988  22.370  0.00  0.00    +0.000 HD
ENDBRANCH   8  23
TORSDOF 2
ENDMDL
MODEL 2
REMARK VINA RESULT:      -8.0      2.112      4.503
REMARK  Name = 
REMARK  3 active torsions:
REMARK  status: ('A' for Active; 'I' for Inactive)
REMARK    1  A    between atoms: C_1  and  C_2
REMARK    2  A    between atoms: C_8  and  C_9
REMARK    3  A    between atoms: C_8  and  C_18
REMARK                            x       y       z     vdW  Elec       q    Type
REMARK                         _______ _______ _______ _____ _____    ______ ____
ROOT
ATOM      1  C   UNL     1       3.716  14.204  21.236  0.00  0.00    +0.000 C 
ATOM      2  C   UNL     1       2.601  13.656  20.392  0.00  0.00    +0.000 A 
ATOM      3  C   UNL     1       2.452  14.063  19.049  0.00  0.00    +0.000 A 
ATOM      4  C   UNL     1       1.451  13.527  18.237  0.00  0.00    +0.000 A 
ATOM      5  C   UNL     1       0.631  12.566  18.789  0.00  0.00    +0.000 A 
ATOM      6  C   UNL     1       0.748  12.140  20.116  0.00  0.00    +0.000 A 
ATOM      7  C   UNL     1       1.719  12.706  20.938  0.00  0.00    +0.000 A 
ATOM      8  C   UNL     1      -0.250  11.014  20.368  0.00  0.00    +0.000 C 
ATOM      9  C   UNL     1      -1.005  10.965  18.998  0.00  0.00    +0.000 C 
ATOM     10  O   UNL     1      -1.964  10.278  18.675  0.00  0.00    +0.000 OA
ATOM     11  N   UNL     1      -0.395  11.889  18.149  0.00  0.00    +0.000 N 
ATOM     12  H   UNL     1      -0.703  12.038  17.201  0.00  0.00    +0.000 HD
ENDROOT
BRANCH   8  13
ATOM     13  C   UNL     1      -1.157  11.460  21.506  0.00  0.00    +0.000 A 
ATOM     14  C   UNL     1      -1.161  10.981  22.810  0.00  0.00    +0.000 A 
ATOM     15  N   UNL     1      -2.202  11.546  23.494  0.00  0.00    +0.000 N 
ATOM     16  C   UNL     1      -2.874  12.431  22.688  0.00  0.00    +0.000 A 
ATOM     17  C   UNL     1      -4.003  13.214  22.967  0.00  0.00    +0.000 A 
ATOM     18  C   UNL     1      -4.494  14.035  21.948  0.00  0.00    +0.000 A 
ATOM     19  C   UNL     1      -3.875  14.071  20.704  0.00  0.00    +0.000 A 
ATOM     20  C   UNL     1      -2.755  13.276  20.443  0.00  0.00    +0.000 A 
ATOM     21  C   UNL     1      -2.237  12.423  21.446  0.00  0.00    +0.000 A 
ATOM     22  H   UNL     1      -2.457  11.331  24.448  0.00  0.00    +0.000 HD
ENDBRANCH   8  13
BRANCH   8  23
ATOM     23  C   UNL     1       0.550   9.723  20.581  0.00  0.00    +0.000 A 
ATOM     24  C   UNL     1       0.747   9.005  21.756  0.00  0.00    +0.000 A 
ATOM     25  N   UNL     1       1.508   7.902  21.493  0.00  0.00    +0.000 N 
ATOM     26  C   UNL     1       1.874   7.886  20.173  0.00  0.00    +0.000 A 
ATOM     27  C   UNL     1       2.662   6.960  19.479  0.00  0.00    +0.000 A 
ATOM     28  C   UNL     1       2.892   7.193  18.122  0.00  0.00    +0.000 A 
ATOM     29  C   UNL     1       2.354   8.310  17.489  0.00  0.00    +0.000 A 
ATOM     30  C   UNL     1       1.567   9.225  18.201  0.00  0.00    +0.000 A 
ATOM     31  C   UNL     1       1.311   9.014  19.575  0.00  0.00    +0.000 A 
ATOM     32  H   UNL     1       1.780   7.206  22.172  0.00  0.00    +0.000 HD
ENDBRANCH   8  23
TORSDOF 2
ENDMDL
MODEL 3
REMARK VINA RESULT:      -7.9      1.733      5.609
REMARK  Name = 
REMARK  3 active torsions:
REMARK  status: ('A' for Active; 'I' for Inactive)
REMARK    1  A    between atoms: C_1  and  C_2
REMARK    2  A    between atoms: C_8  and  C_9
REMARK    3  A    between atoms: C_8  and  C_18
REMARK                            x       y       z     vdW  Elec       q    Type
REMARK                         _______ _______ _______ _____ _____    ______ ____
ROOT
ATOM      1  C   UNL     1       1.231   8.007  21.209  0.00  0.00    +0.000 C 
ATOM      2  C   UNL     1       0.349   9.179  21.530  0.00  0.00    +0.000 A 
ATOM      3  C   UNL     1      -0.209   9.324  22.819  0.00  0.00    +0.000 A 
ATOM      4  C   UNL     1      -0.991  10.432  23.147  0.00  0.00    +0.000 A 
ATOM      5  C   UNL     1      -1.175  11.393  22.175  0.00  0.00    +0.000 A 
ATOM      6  C   UNL     1      -0.639  11.281  20.888  0.00  0.00    +0.000 A 
ATOM      7  C   UNL     1       0.105  10.155  20.547  0.00  0.00    +0.000 A 
ATOM      8  C   UNL     1      -0.958  12.549  20.103  0.00  0.00    +0.000 C 
ATOM      9  C   UNL     1      -1.846  13.327  21.131  0.00  0.00    +0.000 C 
ATOM     10  O   UNL     1      -2.434  14.390  20.987  0.00  0.00    +0.000 OA
ATOM     11  N   UNL     1      -1.884  12.576  22.306  0.00  0.00    +0.000 N 
ATOM     12  H   UNL     1      -2.393  12.875  23.124  0.00  0.00    +0.000 HD
ENDROOT
BRANCH   8  13
ATOM     13  C   UNL     1      -1.743  12.132  18.868  0.00  0.00    +0.000 A 
ATOM     14  C   UNL     1      -1.247  11.934  17.587  0.00  0.00    +0.000 A 
ATOM     15  N   UNL     1      -2.286  11.685  16.734  0.00  0.00    +0.000 N 
ATOM     16  C   UNL     1      -3.472  11.668  17.425  0.00  0.00    +0.000 A 
ATOM     17  C   UNL     1      -4.778  11.468  16.954  0.00  0.00    +0.000 A 
ATOM     18  C   UNL     1      -5.819  11.509  17.885  0.00  0.00    +0.000 A 
ATOM     19  C   UNL     1      -5.560  11.735  19.231  0.00  0.00    +0.000 A 
ATOM     20  C   UNL     1      -4.251  11.940  19.680  0.00  0.00    +0.000 A 
ATOM     21  C   UNL     1      -3.173  11.919  18.764  0.00  0.00    +0.000 A 
ATOM     22  H   UNL     1      -2.202  11.554  15.736  0.00  0.00    +0.000 HD
ENDBRANCH   8  13
BRANCH   8  23
ATOM     23  C   UNL     1       0.361  13.296  19.869  0.00  0.00    +0.000 A 
ATOM     24  C   UNL     1       1.654  12.909  20.208  0.00  0.00    +0.000 A 
ATOM     25  N   UNL     1       2.539  13.863  19.795  0.00  0.00    +0.000 N 
ATOM     26  C   UNL     1       1.867  14.915  19.229  0.00  0.00    +0.000 A 
ATOM     27  C   UNL     1       2.368  16.107  18.694  0.00  0.00    +0.000 A 
ATOM     28  C   UNL     1       1.449  17.027  18.186  0.00  0.00    +0.000 A 
ATOM     29  C   UNL     1       0.084  16.760  18.216  0.00  0.00    +0.000 A 
ATOM     30  C   UNL     1      -0.399  15.561  18.756  0.00  0.00    +0.000 A 
ATOM     31  C   UNL     1       0.506  14.607  19.273  0.00  0.00    +0.000 A 
ATOM     32  H   UNL     1       3.541  13.815  19.906  0.00  0.00    +0.000 HD
ENDBRANCH   8  23
TORSDOF 2
ENDMDL
MODEL 4
REMARK VINA RESULT:      -7.9      1.849      5.737
REMARK  Name = 
REMARK  3 active torsions:
REMARK  status: ('A' for Active; 'I' for Inactive)
REMARK    1  A    between atoms: C_1  and  C_2
REMARK    2  A    between atoms: C_8  and  C_9
REMARK    3  A    between atoms: C_8  and  C_18
REMARK                            x       y       z     vdW  Elec       q    Type
REMARK                         _______ _______ _______ _____ _____    ______ ____
ROOT
ATOM      1  C   UNL     1       4.270  14.355  19.624  0.00  0.00    +0.000 C 
ATOM      2  C   UNL     1       2.992  14.101  20.371  0.00  0.00    +0.000 A 
ATOM      3  C   UNL     1       2.555  14.998  21.369  0.00  0.00    +0.000 A 
ATOM      4  C   UNL     1       1.345  14.801  22.038  0.00  0.00    +0.000 A 
ATOM      5  C   UNL     1       0.582  13.714  21.667  0.00  0.00    +0.000 A 
ATOM      6  C   UNL     1       0.985  12.805  20.684  0.00  0.00    +0.000 A 
ATOM      7  C   UNL     1       2.211  12.977  20.048  0.00  0.00    +0.000 A 
ATOM      8  C   UNL     1      -0.127  11.784  20.464  0.00  0.00    +0.000 C 
ATOM      9  C   UNL     1      -1.158  12.217  21.559  0.00  0.00    +0.000 C 
ATOM     10  O   UNL     1      -2.215  11.685  21.871  0.00  0.00    +0.000 OA
ATOM     11  N   UNL     1      -0.656  13.361  22.179  0.00  0.00    +0.000 N 
ATOM     12  H   UNL     1      -1.148  13.835  22.921  0.00  0.00    +0.000 HD
ENDROOT
BRANCH   8  13
ATOM     13  C   UNL     1       0.461  10.408  20.743  0.00  0.00    +0.000 A 
ATOM     14  C   UNL     1       0.568   9.777  21.975  0.00  0.00    +0.000 A 
ATOM     15  N   UNL     1       1.261   8.608  21.824  0.00  0.00    +0.000 N 
ATOM     16  C   UNL     1       1.585   8.416  20.504  0.00  0.00    +0.000 A 
ATOM     17  C   UNL     1       2.299   7.370  19.901  0.00  0.00    +0.000 A 
ATOM     18  C   UNL     1       2.495   7.428  18.519  0.00  0.00    +0.000 A 
ATOM     19  C   UNL     1       1.992   8.486  17.773  0.00  0.00    +0.000 A 
ATOM     20  C   UNL     1       1.289   9.524  18.394  0.00  0.00    +0.000 A 
ATOM     21  C   UNL     1       1.082   9.506  19.793  0.00  0.00    +0.000 A 
ATOM     22  H   UNL     1       1.519   7.982  22.574  0.00  0.00    +0.000 HD
ENDBRANCH   8  13
BRANCH   8  23
ATOM     23  C   UNL     1      -0.707  12.022  19.064  0.00  0.00    +0.000 A 
ATOM     24  C   UNL     1      -0.461  13.073  18.187  0.00  0.00    +0.000 A 
ATOM     25  N   UNL     1      -1.171  12.881  17.036  0.00  0.00    +0.000 N 
ATOM     26  C   UNL     1      -1.934  11.747  17.137  0.00  0.00    +0.000 A 
ATOM     27  C   UNL     1      -2.821  11.186  16.211  0.00  0.00    +0.000 A 
ATOM     28  C   UNL     1      -3.488  10.016  16.579  0.00  0.00    +0.000 A 
ATOM     29  C   UNL     1      -3.273   9.435  17.825  0.00  0.00    +0.000 A 
ATOM     30  C   UNL     1      -2.381  10.012  18.738  0.00  0.00    +0.000 A 
ATOM     31  C   UNL     1      -1.686  11.193  18.394  0.00  0.00    +0.000 A 
ATOM     32  H   UNL     1      -1.155  13.492  16.233  0.00  0.00    +0.000 HD
ENDBRANCH   8  23
TORSDOF 2
ENDMDL
MODEL 5
REMARK VINA RESULT:      -7.9      5.338     10.068
REMARK  Name = 
REMARK  3 active torsions:
REMARK  status: ('A' for Active; 'I' for Inactive)
REMARK    1  A    between atoms: C_1  and  C_2
REMARK    2  A    between atoms: C_8  and  C_9
REMARK    3  A    between atoms: C_8  and  C_18
REMARK                            x       y       z     vdW  Elec       q    Type
REMARK                         _______ _______ _______ _____ _____    ______ ____
ROOT
ATOM      1  C   UNL     1       4.806   3.771  13.016  0.00  0.00    +0.000 C 
ATOM      2  C   UNL     1       5.568   4.171  14.247  0.00  0.00    +0.000 A 
ATOM      3  C   UNL     1       6.956   4.420  14.181  0.00  0.00    +0.000 A 
ATOM      4  C   UNL     1       7.669   4.839  15.305  0.00  0.00    +0.000 A 
ATOM      5  C   UNL     1       6.962   5.027  16.474  0.00  0.00    +0.000 A 
ATOM      6  C   UNL     1       5.588   4.789  16.575  0.00  0.00    +0.000 A 
ATOM      7  C   UNL     1       4.885   4.329  15.466  0.00  0.00    +0.000 A 
ATOM      8  C   UNL     1       5.117   5.180  17.972  0.00  0.00    +0.000 C 
ATOM      9  C   UNL     1       6.471   5.570  18.652  0.00  0.00    +0.000 C 
ATOM     10  O   UNL     1       6.682   5.896  19.813  0.00  0.00    +0.000 OA
ATOM     11  N   UNL     1       7.471   5.468  17.684  0.00  0.00    +0.000 N 
ATOM     12  H   UNL     1       8.439   5.675  17.882  0.00  0.00    +0.000 HD
ENDROOT
BRANCH   8  13
ATOM     13  C   UNL     1       4.494   3.943  18.603  0.00  0.00    +0.000 A 
ATOM     14  C   UNL     1       5.150   2.942  19.308  0.00  0.00    +0.000 A 
ATOM     15  N   UNL     1       4.263   1.945  19.606  0.00  0.00    +0.000 N 
ATOM     16  C   UNL     1       3.009   2.275  19.154  0.00  0.00    +0.000 A 
ATOM     17  C   UNL     1       1.812   1.549  19.228  0.00  0.00    +0.000 A 
ATOM     18  C   UNL     1       0.666   2.124  18.673  0.00  0.00    +0.000 A 
ATOM     19  C   UNL     1       0.719   3.377  18.075  0.00  0.00    +0.000 A 
ATOM     20  C   UNL     1       1.924   4.083  18.004  0.00  0.00    +0.000 A 
ATOM     21  C   UNL     1       3.108   3.526  18.544  0.00  0.00    +0.000 A 
ATOM     22  H   UNL     1       4.494   1.079  20.072  0.00  0.00    +0.000 HD
ENDBRANCH   8  13
BRANCH   8  23
ATOM     23  C   UNL     1       4.218   6.415  17.832  0.00  0.00    +0.000 A 
ATOM     24  C   UNL     1       4.164   7.339  16.793  0.00  0.00    +0.000 A 
ATOM     25  N   UNL     1       3.205   8.273  17.063  0.00  0.00    +0.000 N 
ATOM     26  C   UNL     1       2.644   8.030  18.289  0.00  0.00    +0.000 A 
ATOM     27  C   UNL     1       1.646   8.739  18.968  0.00  0.00    +0.000 A 
ATOM     28  C   UNL     1       1.263   8.275  20.227  0.00  0.00    +0.000 A 
ATOM     29  C   UNL     1       1.858   7.147  20.782  0.00  0.00    +0.000 A 
ATOM     30  C   UNL     1       2.855   6.450  20.088  0.00  0.00    +0.000 A 
ATOM     31  C   UNL     1       3.261   6.890  18.808  0.00  0.00    +0.000 A 
ATOM     32  H   UNL     1       2.955   9.043  16.460  0.00  0.00    +0.000 HD
ENDBRANCH   8  23
TORSDOF 2
ENDMDL
MODEL 6
REMARK VINA RESULT:      -7.8      1.652      5.675
REMARK  Name = 
REMARK  3 active torsions:
REMARK  status: ('A' for Active; 'I' for Inactive)
REMARK    1  A    between atoms: C_1  and  C_2
REMARK    2  A    between atoms: C_8  and  C_9
REMARK    3  A    between atoms: C_8  and  C_18
REMARK                            x       y       z     vdW  Elec       q    Type
REMARK                         _______ _______ _______ _____ _____    ______ ____
ROOT
ATOM      1  C   UNL     1       0.797   7.703  20.703  0.00  0.00    +0.000 C 
ATOM      2  C   UNL     1       0.192   8.891  21.396  0.00  0.00    +0.000 A 
ATOM      3  C   UNL     1       0.080   8.918  22.803  0.00  0.00    +0.000 A 
ATOM      4  C   UNL     1      -0.436  10.033  23.466  0.00  0.00    +0.000 A 
ATOM      5  C   UNL     1      -0.804  11.117  22.696  0.00  0.00    +0.000 A 
ATOM      6  C   UNL     1      -0.708  11.124  21.302  0.00  0.00    +0.000 A 
ATOM      7  C   UNL     1      -0.235   9.995  20.638  0.00  0.00    +0.000 A 
ATOM      8  C   UNL     1      -1.112  12.499  20.781  0.00  0.00    +0.000 C 
ATOM      9  C   UNL     1      -1.547  13.210  22.106  0.00  0.00    +0.000 C 
ATOM     10  O   UNL     1      -2.031  14.323  22.257  0.00  0.00    +0.000 OA
ATOM     11  N   UNL     1      -1.302  12.324  23.157  0.00  0.00    +0.000 N 
ATOM     12  H   UNL     1      -1.498  12.558  24.118  0.00  0.00    +0.000 HD
ENDROOT
BRANCH   8  13
ATOM     13  C   UNL     1      -2.283  12.297  19.829  0.00  0.00    +0.000 A 
ATOM     14  C   UNL     1      -3.563  12.821  19.952  0.00  0.00    +0.000 A 
ATOM     15  N   UNL     1      -4.355  12.310  18.962  0.00  0.00    +0.000 N 
ATOM     16  C   UNL     1      -3.623  11.485  18.146  0.00  0.00    +0.000 A 
ATOM     17  C   UNL     1      -4.029  10.744  17.027  0.00  0.00    +0.000 A 
ATOM     18  C   UNL     1      -3.066   9.970  16.374  0.00  0.00    +0.000 A 
ATOM     19  C   UNL     1      -1.751   9.944  16.823  0.00  0.00    +0.000 A 
ATOM     20  C   UNL     1      -1.368  10.684  17.947  0.00  0.00    +0.000 A 
ATOM     21  C   UNL     1      -2.318  11.469  18.640  0.00  0.00    +0.000 A 
ATOM     22  H   UNL     1      -5.343  12.494  18.854  0.00  0.00    +0.000 HD
ENDBRANCH   8  13
BRANCH   8  23
ATOM     23  C   UNL     1       0.143  13.168  20.207  0.00  0.00    +0.000 A 
ATOM     24  C   UNL     1       1.454  12.702  20.205  0.00  0.00    +0.000 A 
ATOM     25  N   UNL     1       2.257  13.605  19.570  0.00  0.00    +0.000 N 
ATOM     26  C   UNL     1       1.525  14.698  19.187  0.00  0.00    +0.000 A 
ATOM     27  C   UNL     1       1.941  15.862  18.529  0.00  0.00    +0.000 A 
ATOM     28  C   UNL     1       0.978  16.838  18.267  0.00  0.00    +0.000 A 
ATOM     29  C   UNL     1      -0.346  16.653  18.651  0.00  0.00    +0.000 A 
ATOM     30  C   UNL     1      -0.743  15.481  19.308  0.00  0.00    +0.000 A 
ATOM     31  C   UNL     1       0.206  14.471  19.582  0.00  0.00    +0.000 A 
ATOM     32  H   UNL     1       3.250  13.497  19.418  0.00  0.00    +0.000 HD
ENDBRANCH   8  23
TORSDOF 2
ENDMDL
MODEL 7
REMARK VINA RESULT:      -7.8      2.085      4.133
REMARK  Name = 
REMARK  3 active torsions:
REMARK  status: ('A' for Active; 'I' for Inactive)
REMARK    1  A    between atoms: C_1  and  C_2
REMARK    2  A    between atoms: C_8  and  C_9
REMARK    3  A    between atoms: C_8  and  C_18
REMARK                            x       y       z     vdW  Elec       q    Type
REMARK                         _______ _______ _______ _____ _____    ______ ____
ROOT
ATOM      1  C   UNL     1      -5.089  12.846  22.717  0.00  0.00    +0.000 C 
ATOM      2  C   UNL     1      -3.652  13.230  22.511  0.00  0.00    +0.000 A 
ATOM      3  C   UNL     1      -3.082  14.292  23.246  0.00  0.00    +0.000 A 
ATOM      4  C   UNL     1      -1.735  14.630  23.101  0.00  0.00    +0.000 A 
ATOM      5  C   UNL     1      -0.977  13.871  22.235  0.00  0.00    +0.000 A 
ATOM      6  C   UNL     1      -1.509  12.814  21.491  0.00  0.00    +0.000 A 
ATOM      7  C   UNL     1      -2.862  12.505  21.602  0.00  0.00    +0.000 A 
ATOM      8  C   UNL     1      -0.385  12.139  20.710  0.00  0.00    +0.000 C 
ATOM      9  C   UNL     1       0.827  13.063  21.064  0.00  0.00    +0.000 C 
ATOM     10  O   UNL     1       1.976  13.017  20.644  0.00  0.00    +0.000 OA
ATOM     11  N   UNL     1       0.375  14.019  21.975  0.00  0.00    +0.000 N 
ATOM     12  H   UNL     1       0.980  14.729  22.359  0.00  0.00    +0.000 HD
ENDROOT
BRANCH   8  13
ATOM     13  C   UNL     1      -0.751  12.214  19.235  0.00  0.00    +0.000 A 
ATOM     14  C   UNL     1      -0.375  13.196  18.327  0.00  0.00    +0.000 A 
ATOM     15  N   UNL     1      -1.004  12.971  17.134  0.00  0.00    +0.000 N 
ATOM     16  C   UNL     1      -1.764  11.831  17.206  0.00  0.00    +0.000 A 
ATOM     17  C   UNL     1      -2.581  11.237  16.233  0.00  0.00    +0.000 A 
ATOM     18  C   UNL     1      -3.258  10.065  16.577  0.00  0.00    +0.000 A 
ATOM     19  C   UNL     1      -3.118   9.509  17.843  0.00  0.00    +0.000 A 
ATOM     20  C   UNL     1      -2.304  10.121  18.803  0.00  0.00    +0.000 A 
ATOM     21  C   UNL     1      -1.613  11.315  18.494  0.00  0.00    +0.000 A 
ATOM     22  H   UNL     1      -0.940  13.567  16.321  0.00  0.00    +0.000 HD
ENDBRANCH   8  13
BRANCH   8  23
ATOM     23  C   UNL     1      -0.179  10.741  21.305  0.00  0.00    +0.000 A 
ATOM     24  C   UNL     1      -0.625  10.238  22.523  0.00  0.00    +0.000 A 
ATOM     25  N   UNL     1      -0.237   8.935  22.649  0.00  0.00    +0.000 N 
ATOM     26  C   UNL     1       0.510   8.560  21.562  0.00  0.00    +0.000 A 
ATOM     27  C   UNL     1       1.122   7.333  21.284  0.00  0.00    +0.000 A 
ATOM     28  C   UNL     1       1.843   7.223  20.093  0.00  0.00    +0.000 A 
ATOM     29  C   UNL     1       1.945   8.302  19.220  0.00  0.00    +0.000 A 
ATOM     30  C   UNL     1       1.325   9.522  19.516  0.00  0.00    +0.000 A 
ATOM     31  C   UNL     1       0.583   9.664  20.710  0.00  0.00    +0.000 A 
ATOM     32  H   UNL     1      -0.448   8.337  23.433  0.00  0.00    +0.000 HD
ENDBRANCH   8  23
TORSDOF 2
ENDMDL
MODEL 8
REMARK VINA RESULT:      -7.7      1.185      1.806
REMARK  Name = 
REMARK  3 active torsions:
REMARK  status: ('A' for Active; 'I' for Inactive)
REMARK    1  A    between atoms: C_1  and  C_2
REMARK    2  A    between atoms: C_8  and  C_9
REMARK    3  A    between atoms: C_8  and  C_18
REMARK                            x       y       z     vdW  Elec       q    Type
REMARK                         _______ _______ _______ _____ _____    ______ ____
ROOT
ATOM      1  C   UNL     1      -2.923  10.507  15.704  0.00  0.00    +0.000 C 
ATOM      2  C   UNL     1      -3.052  11.146  17.058  0.00  0.00    +0.000 A 
ATOM      3  C   UNL     1      -4.325  11.392  17.615  0.00  0.00    +0.000 A 
ATOM      4  C   UNL     1      -4.461  11.941  18.891  0.00  0.00    +0.000 A 
ATOM      5  C   UNL     1      -3.307  12.207  19.597  0.00  0.00    +0.000 A 
ATOM      6  C   UNL     1      -2.030  11.977  19.075  0.00  0.00    +0.000 A 
ATOM      7  C   UNL     1      -1.894  11.471  17.786  0.00  0.00    +0.000 A 
ATOM      8  C   UNL     1      -0.991  12.296  20.145  0.00  0.00    +0.000 C 
ATOM      9  C   UNL     1      -1.898  12.838  21.299  0.00  0.00    +0.000 C 
ATOM     10  O   UNL     1      -1.568  13.306  22.380  0.00  0.00    +0.000 OA
ATOM     11  N   UNL     1      -3.224  12.717  20.882  0.00  0.00    +0.000 N 
ATOM     12  H   UNL     1      -4.001  12.998  21.461  0.00  0.00    +0.000 HD
ENDROOT
BRANCH   8  13
ATOM     13  C   UNL     1      -0.076  13.374  19.581  0.00  0.00    +0.000 A 
ATOM     14  C   UNL     1      -0.323  14.194  18.488  0.00  0.00    +0.000 A 
ATOM     15  N   UNL     1       0.789  14.944  18.226  0.00  0.00    +0.000 N 
ATOM     16  C   UNL     1       1.769  14.677  19.150  0.00  0.00    +0.000 A 
ATOM     17  C   UNL     1       3.066  15.200  19.255  0.00  0.00    +0.000 A 
ATOM     18  C   UNL     1       3.869  14.744  20.303  0.00  0.00    +0.000 A 
ATOM     19  C   UNL     1       3.390  13.806  21.210  0.00  0.00    +0.000 A 
ATOM     20  C   UNL     1       2.096  13.291  21.083  0.00  0.00    +0.000 A 
ATOM     21  C   UNL     1       1.258  13.720  20.027  0.00  0.00    +0.000 A 
ATOM     22  H   UNL     1       0.890  15.588  17.454  0.00  0.00    +0.000 HD
ENDBRANCH   8  13
BRANCH   8  23
ATOM     23  C   UNL     1      -0.332  10.975  20.563  0.00  0.00    +0.000 A 
ATOM     24  C   UNL     1      -0.400  10.317  21.786  0.00  0.00    +0.000 A 
ATOM     25  N   UNL     1       0.319   9.158  21.721  0.00  0.00    +0.000 N 
ATOM     26  C   UNL     1       0.916   9.043  20.493  0.00  0.00    +0.000 A 
ATOM     27  C   UNL     1       1.752   8.034  20.001  0.00  0.00    +0.000 A 
ATOM     28  C   UNL     1       2.239   8.173  18.700  0.00  0.00    +0.000 A 
ATOM     29  C   UNL     1       1.902   9.280  17.927  0.00  0.00    +0.000 A 
ATOM     30  C   UNL     1       1.063  10.279  18.437  0.00  0.00    +0.000 A 
ATOM     31  C   UNL     1       0.548  10.165  19.748  0.00  0.00    +0.000 A 
ATOM     32  H   UNL     1       0.416   8.489  22.471  0.00  0.00    +0.000 HD
ENDBRANCH   8  23
TORSDOF 2
ENDMDL
MODEL 9
REMARK VINA RESULT:      -7.6      1.539      6.002
REMARK  Name = 
REMARK  3 active torsions:
REMARK  status: ('A' for Active; 'I' for Inactive)
REMARK    1  A    between atoms: C_1  and  C_2
REMARK    2  A    between atoms: C_8  and  C_9
REMARK    3  A    between atoms: C_8  and  C_18
REMARK                            x       y       z     vdW  Elec       q    Type
REMARK                         _______ _______ _______ _____ _____    ______ ____
ROOT
ATOM      1  C   UNL     1      -1.467  14.425  24.272  0.00  0.00    +0.000 C 
ATOM      2  C   UNL     1      -1.839  13.919  22.908  0.00  0.00    +0.000 A 
ATOM      3  C   UNL     1      -3.119  14.178  22.373  0.00  0.00    +0.000 A 
ATOM      4  C   UNL     1      -3.464  13.757  21.088  0.00  0.00    +0.000 A 
ATOM      5  C   UNL     1      -2.498  13.103  20.352  0.00  0.00    +0.000 A 
ATOM      6  C   UNL     1      -1.221  12.828  20.851  0.00  0.00    +0.000 A 
ATOM      7  C   UNL     1      -0.892  13.210  22.148  0.00  0.00    +0.000 A 
ATOM      8  C   UNL     1      -0.386  12.178  19.752  0.00  0.00    +0.000 C 
ATOM      9  C   UNL     1      -1.443  12.044  18.606  0.00  0.00    +0.000 C 
ATOM     10  O   UNL     1      -1.322  11.518  17.508  0.00  0.00    +0.000 OA
ATOM     11  N   UNL     1      -2.625  12.635  19.054  0.00  0.00    +0.000 N 
ATOM     12  H   UNL     1      -3.457  12.679  18.486  0.00  0.00    +0.000 HD
ENDROOT
BRANCH   8  13
ATOM     13  C   UNL     1       0.070  10.822  20.272  0.00  0.00    +0.000 A 
ATOM     14  C   UNL     1      -0.104  10.315  21.554  0.00  0.00    +0.000 A 
ATOM     15  N   UNL     1       0.552   9.120  21.657  0.00  0.00    +0.000 N 
ATOM     16  C   UNL     1       1.127   8.788  20.456  0.00  0.00    +0.000 A 
ATOM     17  C   UNL     1       1.901   7.670  20.113  0.00  0.00    +0.000 A 
ATOM     18  C   UNL     1       2.375   7.584  18.802  0.00  0.00    +0.000 A 
ATOM     19  C   UNL     1       2.082   8.575  17.873  0.00  0.00    +0.000 A 
ATOM     20  C   UNL     1       1.315   9.687  18.237  0.00  0.00    +0.000 A 
ATOM     21  C   UNL     1       0.829   9.815  19.559  0.00  0.00    +0.000 A 
ATOM     22  H   UNL     1       0.623   8.565  22.499  0.00  0.00    +0.000 HD
ENDBRANCH   8  13
BRANCH   8  23
ATOM     23  C   UNL     1       0.710  13.173  19.351  0.00  0.00    +0.000 A 
ATOM     24  C   UNL     1       2.085  12.972  19.281  0.00  0.00    +0.000 A 
ATOM     25  N   UNL     1       2.692  14.119  18.857  0.00  0.00    +0.000 N 
ATOM     26  C   UNL     1       1.760  15.110  18.689  0.00  0.00    +0.000 A 
ATOM     27  C   UNL     1       1.937  16.440  18.288  0.00  0.00    +0.000 A 
ATOM     28  C   UNL     1       0.803  17.250  18.209  0.00  0.00    +0.000 A 
ATOM     29  C   UNL     1      -0.456  16.745  18.521  0.00  0.00    +0.000 A 
ATOM     30  C   UNL     1      -0.613  15.411  18.919  0.00  0.00    +0.000 A 
ATOM     31  C   UNL     1       0.515  14.564  19.003  0.00  0.00    +0.000 A 
ATOM     32  H   UNL     1       3.684  14.233  18.707  0.00  0.00    +0.000 HD
ENDBRANCH   8  23
TORSDOF 2
ENDMDL
