MODEL 1
REMARK VINA RESULT:      -7.4      0.000      0.000
REMARK  Name = 
REMARK  3 active torsions:
REMARK  status: ('A' for Active; 'I' for Inactive)
REMARK    1  A    between atoms: C_1  and  C_2
REMARK    2  A    between atoms: C_7  and  N_8
REMARK    3  A    between atoms: C_9  and  C_11
REMARK                            x       y       z     vdW  Elec       q    Type
REMARK                         _______ _______ _______ _____ _____    ______ ____
ROOT
ATOM      1  N   UNL     1       4.212   6.769  17.677  0.00  0.00    +0.000 N 
ATOM      2  C   UNL     1       2.973   6.517  18.231  0.00  0.00    +0.000 C 
ATOM      3  O   UNL     1       2.485   5.395  18.325  0.00  0.00    +0.000 OA
ATOM      4  H   UNL     1       4.494   7.742  17.586  0.00  0.00    +0.000 HD
ENDROOT
BRANCH   2   5
ATOM      5  C   UNL     1       2.232   7.708  18.739  0.00  0.00    +0.000 A 
ATOM      6  C   UNL     1       1.861   8.726  17.877  0.00  0.00    +0.000 A 
ATOM      7  C   UNL     1       1.123   9.789  18.387  0.00  0.00    +0.000 A 
ATOM      8  C   UNL     1       0.800   9.788  19.740  0.00  0.00    +0.000 A 
ATOM      9  N   UNL     1      -0.004  10.833  20.271  0.00  0.00    +0.000 N 
ATOM     10  C   UNL     1      -0.384  10.995  21.589  0.00  0.00    +0.000 A 
ATOM     11  C   UNL     1      -1.211  12.091  21.636  0.00  0.00    +0.000 A 
ATOM     12  C   UNL     1      -1.275  12.545  20.310  0.00  0.00    +0.000 A 
ATOM     13  N   UNL     1      -0.533  11.810  19.480  0.00  0.00    +0.000 NA
ATOM     14  N   UNL     1       1.208   8.789  20.566  0.00  0.00    +0.000 NA
ATOM     15  N   UNL     1       1.926   7.732  20.060  0.00  0.00    +0.000 NA
ENDBRANCH   2   5
BRANCH   1  22
ATOM     16  C   UNL     1       6.334   5.313  19.206  0.00  0.00    +0.000 C 
ATOM     17  C   UNL     1       6.416   5.633  17.710  0.00  0.00    +0.000 C 
ATOM     18  C   UNL     1       7.273   4.571  17.004  0.00  0.00    +0.000 C 
ATOM     19  C   UNL     1       7.384   4.839  15.508  0.00  0.00    +0.000 C 
ATOM     20  C   UNL     1       6.009   4.931  14.857  0.00  0.00    +0.000 C 
ATOM     21  C   UNL     1       5.132   5.971  15.546  0.00  0.00    +0.000 C 
ATOM     22  C   UNL     1       5.018   5.724  17.059  0.00  0.00    +0.000 C 
ENDBRANCH   1  22
TORSDOF 2
ENDMDL
MODEL 2
REMARK VINA RESULT:      -7.1      0.872      1.012
REMARK  Name = 
REMARK  3 active torsions:
REMARK  status: ('A' for Active; 'I' for Inactive)
REMARK    1  A    between atoms: C_1  and  C_2
REMARK    2  A    between atoms: C_7  and  N_8
REMARK    3  A    between atoms: C_9  and  C_11
REMARK                            x       y       z     vdW  Elec       q    Type
REMARK                         _______ _______ _______ _____ _____    ______ ____
ROOT
ATOM      1  N   UNL     1       4.426   6.202  18.028  0.00  0.00    +0.000 N 
ATOM      2  C   UNL     1       3.087   5.985  18.292  0.00  0.00    +0.000 C 
ATOM      3  O   UNL     1       2.482   4.974  17.951  0.00  0.00    +0.000 OA
ATOM      4  H   UNL     1       4.814   7.103  18.294  0.00  0.00    +0.000 HD
ENDROOT
BRANCH   2   5
ATOM      5  C   UNL     1       2.389   7.067  19.044  0.00  0.00    +0.000 A 
ATOM      6  C   UNL     1       2.106   8.278  18.434  0.00  0.00    +0.000 A 
ATOM      7  C   UNL     1       1.402   9.235  19.159  0.00  0.00    +0.000 A 
ATOM      8  C   UNL     1       1.025   8.938  20.465  0.00  0.00    +0.000 A 
ATOM      9  N   UNL     1       0.254   9.877  21.203  0.00  0.00    +0.000 N 
ATOM     10  C   UNL     1      -0.170   9.751  22.511  0.00  0.00    +0.000 A 
ATOM     11  C   UNL     1      -0.942  10.853  22.791  0.00  0.00    +0.000 A 
ATOM     12  C   UNL     1      -0.929  11.605  21.607  0.00  0.00    +0.000 A 
ATOM     13  N   UNL     1      -0.191  11.040  20.649  0.00  0.00    +0.000 NA
ATOM     14  N   UNL     1       1.347   7.753  21.045  0.00  0.00    +0.000 NA
ATOM     15  N   UNL     1       2.030   6.802  20.325  0.00  0.00    +0.000 NA
ENDBRANCH   2   5
BRANCH   1  22
ATOM     16  C   UNL     1       7.181   5.379  18.863  0.00  0.00    +0.000 C 
ATOM     17  C   UNL     1       6.734   5.545  17.407  0.00  0.00    +0.000 C 
ATOM     18  C   UNL     1       7.556   4.607  16.508  0.00  0.00    +0.000 C 
ATOM     19  C   UNL     1       7.148   4.728  15.044  0.00  0.00    +0.000 C 
ATOM     20  C   UNL     1       5.658   4.470  14.860  0.00  0.00    +0.000 C 
ATOM     21  C   UNL     1       4.817   5.380  15.749  0.00  0.00    +0.000 C 
ATOM     22  C   UNL     1       5.223   5.280  17.230  0.00  0.00    +0.000 C 
ENDBRANCH   1  22
TORSDOF 2
ENDMDL
MODEL 3
REMARK VINA RESULT:      -7.1      0.946      1.097
REMARK  Name = 
REMARK  3 active torsions:
REMARK  status: ('A' for Active; 'I' for Inactive)
REMARK    1  A    between atoms: C_1  and  C_2
REMARK    2  A    between atoms: C_7  and  N_8
REMARK    3  A    between atoms: C_9  and  C_11
REMARK                            x       y       z     vdW  Elec       q    Type
REMARK                         _______ _______ _______ _____ _____    ______ ____
ROOT
ATOM      1  N   UNL     1       4.242   6.741  17.721  0.00  0.00    +0.000 N 
ATOM      2  C   UNL     1       3.257   6.584  18.677  0.00  0.00    +0.000 C 
ATOM      3  O   UNL     1       3.108   5.561  19.338  0.00  0.00    +0.000 OA
ATOM      4  H   UNL     1       4.234   7.603  17.181  0.00  0.00    +0.000 HD
ENDROOT
BRANCH   2   5
ATOM      5  C   UNL     1       2.357   7.754  18.883  0.00  0.00    +0.000 A 
ATOM      6  C   UNL     1       2.009   8.572  17.821  0.00  0.00    +0.000 A 
ATOM      7  C   UNL     1       1.122   9.618  18.053  0.00  0.00    +0.000 A 
ATOM      8  C   UNL     1       0.633   9.804  19.342  0.00  0.00    +0.000 A 
ATOM      9  N   UNL     1      -0.320  10.829  19.590  0.00  0.00    +0.000 N 
ATOM     10  C   UNL     1      -0.876  11.163  20.809  0.00  0.00    +0.000 A 
ATOM     11  C   UNL     1      -1.795  12.156  20.573  0.00  0.00    +0.000 A 
ATOM     12  C   UNL     1      -1.731  12.377  19.189  0.00  0.00    +0.000 A 
ATOM     13  N   UNL     1      -0.829  11.600  18.588  0.00  0.00    +0.000 NA
ATOM     14  N   UNL     1       1.019   9.004  20.370  0.00  0.00    +0.000 NA
ATOM     15  N   UNL     1       1.886   7.962  20.138  0.00  0.00    +0.000 NA
ENDBRANCH   2   5
BRANCH   1  22
ATOM     16  C   UNL     1       7.200   7.156  17.531  0.00  0.00    +0.000 C 
ATOM     17  C   UNL     1       6.404   6.201  16.636  0.00  0.00    +0.000 C 
ATOM     18  C   UNL     1       7.310   5.043  16.187  0.00  0.00    +0.000 C 
ATOM     19  C   UNL     1       6.565   4.057  15.295  0.00  0.00    +0.000 C 
ATOM     20  C   UNL     1       5.317   3.519  15.984  0.00  0.00    +0.000 C 
ATOM     21  C   UNL     1       4.403   4.648  16.451  0.00  0.00    +0.000 C 
ATOM     22  C   UNL     1       5.142   5.660  17.343  0.00  0.00    +0.000 C 
ENDBRANCH   1  22
TORSDOF 2
ENDMDL
MODEL 4
REMARK VINA RESULT:      -7.0      1.118      1.496
REMARK  Name = 
REMARK  3 active torsions:
REMARK  status: ('A' for Active; 'I' for Inactive)
REMARK    1  A    between atoms: C_1  and  C_2
REMARK    2  A    between atoms: C_7  and  N_8
REMARK    3  A    between atoms: C_9  and  C_11
REMARK                            x       y       z     vdW  Elec       q    Type
REMARK                         _______ _______ _______ _____ _____    ______ ____
ROOT
ATOM      1  N   UNL     1       4.256   6.388  18.213  0.00  0.00    +0.000 N 
ATOM      2  C   UNL     1       3.028   6.090  18.771  0.00  0.00    +0.000 C 
ATOM      3  O   UNL     1       2.568   4.954  18.834  0.00  0.00    +0.000 OA
ATOM      4  H   UNL     1       4.514   7.370  18.150  0.00  0.00    +0.000 HD
ENDROOT
BRANCH   2   5
ATOM      5  C   UNL     1       2.265   7.246  19.321  0.00  0.00    +0.000 A 
ATOM      6  C   UNL     1       1.830   7.241  20.636  0.00  0.00    +0.000 A 
ATOM      7  C   UNL     1       1.171   8.367  21.119  0.00  0.00    +0.000 A 
ATOM      8  C   UNL     1       0.968   9.441  20.259  0.00  0.00    +0.000 A 
ATOM      9  N   UNL     1       0.350  10.624  20.748  0.00  0.00    +0.000 N 
ATOM     10  C   UNL     1       0.048  11.760  20.022  0.00  0.00    +0.000 A 
ATOM     11  C   UNL     1      -0.471  12.675  20.905  0.00  0.00    +0.000 A 
ATOM     12  C   UNL     1      -0.463  12.017  22.144  0.00  0.00    +0.000 A 
ATOM     13  N   UNL     1       0.007  10.771  22.059  0.00  0.00    +0.000 NA
ATOM     14  N   UNL     1       1.378   9.401  18.965  0.00  0.00    +0.000 NA
ATOM     15  N   UNL     1       2.041   8.295  18.491  0.00  0.00    +0.000 NA
ENDBRANCH   2   5
BRANCH   1  22
ATOM     16  C   UNL     1       6.889   5.529  19.350  0.00  0.00    +0.000 C 
ATOM     17  C   UNL     1       6.580   5.603  17.852  0.00  0.00    +0.000 C 
ATOM     18  C   UNL     1       7.437   4.573  17.099  0.00  0.00    +0.000 C 
ATOM     19  C   UNL     1       7.166   4.600  15.600  0.00  0.00    +0.000 C 
ATOM     20  C   UNL     1       5.688   4.383  15.300  0.00  0.00    +0.000 C 
ATOM     21  C   UNL     1       4.811   5.386  16.043  0.00  0.00    +0.000 C 
ATOM     22  C   UNL     1       5.080   5.382  17.557  0.00  0.00    +0.000 C 
ENDBRANCH   1  22
TORSDOF 2
ENDMDL
MODEL 5
REMARK VINA RESULT:      -6.9      1.195      1.507
REMARK  Name = 
REMARK  3 active torsions:
REMARK  status: ('A' for Active; 'I' for Inactive)
REMARK    1  A    between atoms: C_1  and  C_2
REMARK    2  A    between atoms: C_7  and  N_8
REMARK    3  A    between atoms: C_9  and  C_11
REMARK                            x       y       z     vdW  Elec       q    Type
REMARK                         _______ _______ _______ _____ _____    ______ ____
ROOT
ATOM      1  N   UNL     1       4.204   6.891  17.470  0.00  0.00    +0.000 N 
ATOM      2  C   UNL     1       2.994   6.692  18.106  0.00  0.00    +0.000 C 
ATOM      3  O   UNL     1       2.522   5.584  18.339  0.00  0.00    +0.000 OA
ATOM      4  H   UNL     1       4.471   7.851  17.265  0.00  0.00    +0.000 HD
ENDROOT
BRANCH   2   5
ATOM      5  C   UNL     1       2.266   7.925  18.521  0.00  0.00    +0.000 A 
ATOM      6  C   UNL     1       1.700   8.019  19.782  0.00  0.00    +0.000 A 
ATOM      7  C   UNL     1       1.080   9.211  20.142  0.00  0.00    +0.000 A 
ATOM      8  C   UNL     1       1.046  10.251  19.219  0.00  0.00    +0.000 A 
ATOM      9  N   UNL     1       0.471  11.497  19.587  0.00  0.00    +0.000 N 
ATOM     10  C   UNL     1       0.330  12.612  18.783  0.00  0.00    +0.000 A 
ATOM     11  C   UNL     1      -0.207  13.605  19.565  0.00  0.00    +0.000 A 
ATOM     12  C   UNL     1      -0.374  13.014  20.826  0.00  0.00    +0.000 A 
ATOM     13  N   UNL     1       0.008  11.736  20.847  0.00  0.00    +0.000 NA
ATOM     14  N   UNL     1       1.582  10.116  17.978  0.00  0.00    +0.000 NA
ATOM     15  N   UNL     1       2.206   8.943  17.626  0.00  0.00    +0.000 NA
ENDBRANCH   2   5
BRANCH   1  22
ATOM     16  C   UNL     1       6.169   5.386  19.154  0.00  0.00    +0.000 C 
ATOM     17  C   UNL     1       6.345   5.656  17.656  0.00  0.00    +0.000 C 
ATOM     18  C   UNL     1       7.187   4.533  17.028  0.00  0.00    +0.000 C 
ATOM     19  C   UNL     1       7.390   4.749  15.534  0.00  0.00    +0.000 C 
ATOM     20  C   UNL     1       6.058   4.885  14.807  0.00  0.00    +0.000 C 
ATOM     21  C   UNL     1       5.195   5.986  15.416  0.00  0.00    +0.000 C 
ATOM     22  C   UNL     1       4.990   5.791  16.928  0.00  0.00    +0.000 C 
ENDBRANCH   1  22
TORSDOF 2
ENDMDL
MODEL 6
REMARK VINA RESULT:      -6.7      1.747      2.563
REMARK  Name = 
REMARK  3 active torsions:
REMARK  status: ('A' for Active; 'I' for Inactive)
REMARK    1  A    between atoms: C_1  and  C_2
REMARK    2  A    between atoms: C_7  and  N_8
REMARK    3  A    between atoms: C_9  and  C_11
REMARK                            x       y       z     vdW  Elec       q    Type
REMARK                         _______ _______ _______ _____ _____    ______ ____
ROOT
ATOM      1  N   UNL     1       2.410   6.948  18.549  0.00  0.00    +0.000 N 
ATOM      2  C   UNL     1       2.190   8.245  18.130  0.00  0.00    +0.000 C 
ATOM      3  O   UNL     1       2.630   8.704  17.080  0.00  0.00    +0.000 OA
ATOM      4  H   UNL     1       2.058   6.689  19.468  0.00  0.00    +0.000 HD
ENDROOT
BRANCH   2   5
ATOM      5  C   UNL     1       1.359   9.090  19.034  0.00  0.00    +0.000 A 
ATOM      6  C   UNL     1       0.667  10.182  18.538  0.00  0.00    +0.000 A 
ATOM      7  C   UNL     1      -0.140  10.906  19.410  0.00  0.00    +0.000 A 
ATOM      8  C   UNL     1      -0.207  10.509  20.742  0.00  0.00    +0.000 A 
ATOM      9  N   UNL     1      -1.071  11.197  21.637  0.00  0.00    +0.000 N 
ATOM     10  C   UNL     1      -1.229  10.951  22.986  0.00  0.00    +0.000 A 
ATOM     11  C   UNL     1      -2.212  11.798  23.437  0.00  0.00    +0.000 A 
ATOM     12  C   UNL     1      -2.592  12.534  22.305  0.00  0.00    +0.000 A 
ATOM     13  N   UNL     1      -1.896  12.199  21.218  0.00  0.00    +0.000 NA
ATOM     14  N   UNL     1       0.510   9.452  21.204  0.00  0.00    +0.000 NA
ATOM     15  N   UNL     1       1.297   8.728  20.340  0.00  0.00    +0.000 NA
ENDBRANCH   2   5
BRANCH   1  22
ATOM     16  C   UNL     1       1.475   4.218  17.751  0.00  0.00    +0.000 C 
ATOM     17  C   UNL     1       2.919   4.557  18.135  0.00  0.00    +0.000 C 
ATOM     18  C   UNL     1       3.880   3.603  17.409  0.00  0.00    +0.000 C 
ATOM     19  C   UNL     1       5.335   3.899  17.751  0.00  0.00    +0.000 C 
ATOM     20  C   UNL     1       5.693   5.348  17.446  0.00  0.00    +0.000 C 
ATOM     21  C   UNL     1       4.747   6.319  18.145  0.00  0.00    +0.000 C 
ATOM     22  C   UNL     1       3.272   6.028  17.821  0.00  0.00    +0.000 C 
ENDBRANCH   1  22
TORSDOF 2
ENDMDL
MODEL 7
REMARK VINA RESULT:      -6.7      1.331      1.750
REMARK  Name = 
REMARK  3 active torsions:
REMARK  status: ('A' for Active; 'I' for Inactive)
REMARK    1  A    between atoms: C_1  and  C_2
REMARK    2  A    between atoms: C_7  and  N_8
REMARK    3  A    between atoms: C_9  and  C_11
REMARK                            x       y       z     vdW  Elec       q    Type
REMARK                         _______ _______ _______ _____ _____    ______ ____
ROOT
ATOM      1  N   UNL     1       4.026   6.665  17.906  0.00  0.00    +0.000 N 
ATOM      2  C   UNL     1       3.230   6.515  19.025  0.00  0.00    +0.000 C 
ATOM      3  O   UNL     1       3.309   5.561  19.792  0.00  0.00    +0.000 OA
ATOM      4  H   UNL     1       3.833   7.458  17.299  0.00  0.00    +0.000 HD
ENDROOT
BRANCH   2   5
ATOM      5  C   UNL     1       2.243   7.605  19.273  0.00  0.00    +0.000 A 
ATOM      6  C   UNL     1       1.669   7.763  20.523  0.00  0.00    +0.000 A 
ATOM      7  C   UNL     1       0.797   8.829  20.721  0.00  0.00    +0.000 A 
ATOM      8  C   UNL     1       0.532   9.680  19.653  0.00  0.00    +0.000 A 
ATOM      9  N   UNL     1      -0.309  10.810  19.848  0.00  0.00    +0.000 N 
ATOM     10  C   UNL     1      -0.695  11.727  18.891  0.00  0.00    +0.000 A 
ATOM     11  C   UNL     1      -1.443  12.685  19.532  0.00  0.00    +0.000 A 
ATOM     12  C   UNL     1      -1.474  12.273  20.872  0.00  0.00    +0.000 A 
ATOM     13  N   UNL     1      -0.815  11.131  21.073  0.00  0.00    +0.000 NA
ATOM     14  N   UNL     1       1.086   9.478  18.430  0.00  0.00    +0.000 NA
ATOM     15  N   UNL     1       1.958   8.433  18.237  0.00  0.00    +0.000 NA
ENDBRANCH   2   5
BRANCH   1  22
ATOM     16  C   UNL     1       6.916   7.301  17.453  0.00  0.00    +0.000 C 
ATOM     17  C   UNL     1       6.127   6.258  16.655  0.00  0.00    +0.000 C 
ATOM     18  C   UNL     1       7.082   5.160  16.161  0.00  0.00    +0.000 C 
ATOM     19  C   UNL     1       6.347   4.091  15.362  0.00  0.00    +0.000 C 
ATOM     20  C   UNL     1       5.208   3.481  16.169  0.00  0.00    +0.000 C 
ATOM     21  C   UNL     1       4.249   4.550  16.683  0.00  0.00    +0.000 C 
ATOM     22  C   UNL     1       4.975   5.645  17.481  0.00  0.00    +0.000 C 
ENDBRANCH   1  22
TORSDOF 2
ENDMDL
MODEL 8
REMARK VINA RESULT:      -6.6      1.842      8.328
REMARK  Name = 
REMARK  3 active torsions:
REMARK  status: ('A' for Active; 'I' for Inactive)
REMARK    1  A    between atoms: C_1  and  C_2
REMARK    2  A    between atoms: C_7  and  N_8
REMARK    3  A    between atoms: C_9  and  C_11
REMARK                            x       y       z     vdW  Elec       q    Type
REMARK                         _______ _______ _______ _____ _____    ______ ____
ROOT
ATOM      1  N   UNL     1       0.858   9.433  19.128  0.00  0.00    +0.000 N 
ATOM      2  C   UNL     1       1.454   8.385  19.802  0.00  0.00    +0.000 C 
ATOM      3  O   UNL     1       1.227   8.116  20.978  0.00  0.00    +0.000 OA
ATOM      4  H   UNL     1       1.167   9.611  18.176  0.00  0.00    +0.000 HD
ENDROOT
BRANCH   2   5
ATOM      5  C   UNL     1       2.409   7.560  19.009  0.00  0.00    +0.000 A 
ATOM      6  C   UNL     1       2.692   6.257  19.382  0.00  0.00    +0.000 A 
ATOM      7  C   UNL     1       3.546   5.509  18.578  0.00  0.00    +0.000 A 
ATOM      8  C   UNL     1       4.087   6.106  17.443  0.00  0.00    +0.000 A 
ATOM      9  N   UNL     1       4.914   5.343  16.575  0.00  0.00    +0.000 N 
ATOM     10  C   UNL     1       5.551   5.790  15.435  0.00  0.00    +0.000 A 
ATOM     11  C   UNL     1       6.179   4.705  14.873  0.00  0.00    +0.000 A 
ATOM     12  C   UNL     1       5.886   3.639  15.736  0.00  0.00    +0.000 A 
ATOM     13  N   UNL     1       5.145   4.014  16.780  0.00  0.00    +0.000 NA
ATOM     14  N   UNL     1       3.815   7.397  17.123  0.00  0.00    +0.000 NA
ATOM     15  N   UNL     1       2.961   8.133  17.910  0.00  0.00    +0.000 NA
ENDBRANCH   2   5
BRANCH   1  22
ATOM     16  C   UNL     1      -1.835  10.106  18.006  0.00  0.00    +0.000 C 
ATOM     17  C   UNL     1      -0.948  11.094  18.771  0.00  0.00    +0.000 C 
ATOM     18  C   UNL     1      -1.831  12.135  19.477  0.00  0.00    +0.000 C 
ATOM     19  C   UNL     1      -0.998  13.143  20.259  0.00  0.00    +0.000 C 
ATOM     20  C   UNL     1      -0.088  12.449  21.265  0.00  0.00    +0.000 C 
ATOM     21  C   UNL     1       0.793  11.401  20.594  0.00  0.00    +0.000 C 
ATOM     22  C   UNL     1      -0.030  10.381  19.788  0.00  0.00    +0.000 C 
ENDBRANCH   1  22
TORSDOF 2
ENDMDL
MODEL 9
REMARK VINA RESULT:      -6.6      1.789      2.843
REMARK  Name = 
REMARK  3 active torsions:
REMARK  status: ('A' for Active; 'I' for Inactive)
REMARK    1  A    between atoms: C_1  and  C_2
REMARK    2  A    between atoms: C_7  and  N_8
REMARK    3  A    between atoms: C_9  and  C_11
REMARK                            x       y       z     vdW  Elec       q    Type
REMARK                         _______ _______ _______ _____ _____    ______ ____
ROOT
ATOM      1  N   UNL     1       2.369   7.053  18.503  0.00  0.00    +0.000 N 
ATOM      2  C   UNL     1       2.060   8.353  18.152  0.00  0.00    +0.000 C 
ATOM      3  O   UNL     1       2.441   8.885  17.114  0.00  0.00    +0.000 OA
ATOM      4  H   UNL     1       2.060   6.731  19.417  0.00  0.00    +0.000 HD
ENDROOT
BRANCH   2   5
ATOM      5  C   UNL     1       1.206   9.103  19.117  0.00  0.00    +0.000 A 
ATOM      6  C   UNL     1       1.254   8.815  20.470  0.00  0.00    +0.000 A 
ATOM      7  C   UNL     1       0.480   9.580  21.337  0.00  0.00    +0.000 A 
ATOM      8  C   UNL     1      -0.314  10.591  20.806  0.00  0.00    +0.000 A 
ATOM      9  N   UNL     1      -1.067  11.424  21.678  0.00  0.00    +0.000 N 
ATOM     10  C   UNL     1      -1.924  12.443  21.312  0.00  0.00    +0.000 A 
ATOM     11  C   UNL     1      -2.376  13.023  22.473  0.00  0.00    +0.000 A 
ATOM     12  C   UNL     1      -1.758  12.294  23.499  0.00  0.00    +0.000 A 
ATOM     13  N   UNL     1      -0.985  11.311  23.034  0.00  0.00    +0.000 NA
ATOM     14  N   UNL     1      -0.363  10.826  19.469  0.00  0.00    +0.000 NA
ATOM     15  N   UNL     1       0.411  10.080  18.613  0.00  0.00    +0.000 NA
ENDBRANCH   2   5
BRANCH   1  22
ATOM     16  C   UNL     1       1.616   4.273  17.686  0.00  0.00    +0.000 C 
ATOM     17  C   UNL     1       3.046   4.721  18.004  0.00  0.00    +0.000 C 
ATOM     18  C   UNL     1       4.042   3.864  17.207  0.00  0.00    +0.000 C 
ATOM     19  C   UNL     1       5.485   4.271  17.482  0.00  0.00    +0.000 C 
ATOM     20  C   UNL     1       5.708   5.751  17.195  0.00  0.00    +0.000 C 
ATOM     21  C   UNL     1       4.725   6.626  17.965  0.00  0.00    +0.000 C 
ATOM     22  C   UNL     1       3.263   6.221  17.709  0.00  0.00    +0.000 C 
ENDBRANCH   1  22
TORSDOF 2
ENDMDL
