MODEL 1
REMARK VINA RESULT:      -8.4      0.000      0.000
REMARK  Name = 
REMARK  5 active torsions:
REMARK  status: ('A' for Active; 'I' for Inactive)
REMARK    1  A    between atoms: C_1  and  C_2
REMARK    2  A    between atoms: C_4  and  C_5
REMARK    3  A    between atoms: C_14  and  C_15
REMARK    4  A    between atoms: N_17  and  C_18
REMARK    5  A    between atoms: C_19  and  C_20
REMARK                            x       y       z     vdW  Elec       q    Type
REMARK                         _______ _______ _______ _____ _____    ______ ____
ROOT
ATOM      1  C   UNL     1       0.355  10.844  19.016  0.00  0.00    +0.000 C 
ATOM      2  O   UNL     1       0.601  11.947  18.533  0.00  0.00    +0.000 OA
ATOM      3  N   UNL     1      -0.804  10.549  19.727  0.00  0.00    +0.000 N 
ATOM      4  H   UNL     1      -1.092   9.570  19.697  0.00  0.00    +0.000 HD
ENDROOT
BRANCH   1  12
ATOM      5  C   UNL     1       1.878   5.886  20.686  0.00  0.00    +0.000 C 
ATOM      6  C   UNL     1       2.531   6.494  19.485  0.00  0.00    +0.000 A 
ATOM      7  C   UNL     1       3.460   5.845  18.764  0.00  0.00    +0.000 A 
ATOM      8  C   UNL     1       4.056   6.588  17.603  0.00  0.00    +0.000 A 
ATOM      9  N   UNL     1       3.684   7.779  17.221  0.00  0.00    +0.000 NA
ATOM     10  C   UNL     1       2.719   8.398  17.968  0.00  0.00    +0.000 A 
ATOM     11  N   UNL     1       2.180   9.590  17.811  0.00  0.00    +0.000 NA
ATOM     12  C   UNL     1       1.262   9.681  18.839  0.00  0.00    +0.000 A 
ATOM     13  N   UNL     1       1.232   8.605  19.643  0.00  0.00    +0.000 NA
ATOM     14  N   UNL     1       2.150   7.784  19.089  0.00  0.00    +0.000 N 
BRANCH   8  15
ATOM     15  C   UNL     1       5.140   5.874  16.855  0.00  0.00    +0.000 A 
ATOM     16  C   UNL     1       6.144   5.215  17.576  0.00  0.00    +0.000 A 
ATOM     17  C   UNL     1       7.156   4.524  16.902  0.00  0.00    +0.000 A 
ATOM     18  C   UNL     1       7.170   4.483  15.508  0.00  0.00    +0.000 A 
ATOM     19  C   UNL     1       6.171   5.130  14.784  0.00  0.00    +0.000 A 
ATOM     20  C   UNL     1       5.155   5.818  15.454  0.00  0.00    +0.000 A 
ENDBRANCH   8  15
ENDBRANCH   1  12
BRANCH   3  21
ATOM     21  C   UNL     1      -1.779  11.514  20.020  0.00  0.00    +0.000 A 
ATOM     22  C   UNL     1      -2.906  11.693  19.226  0.00  0.00    +0.000 A 
ATOM     23  S   UNL     1      -3.935  12.916  19.843  0.00  0.00    +0.000 S 
ATOM     24  C   UNL     1      -2.929  13.194  21.175  0.00  0.00    +0.000 A 
ATOM     25  N   UNL     1      -3.290  14.102  22.106  0.00  0.00    +0.000 NA
ATOM     26  C   UNL     1      -2.425  14.213  23.131  0.00  0.00    +0.000 A 
ATOM     27  C   UNL     1      -1.255  13.490  23.267  0.00  0.00    +0.000 A 
ATOM     28  C   UNL     1      -0.923  12.565  22.278  0.00  0.00    +0.000 A 
ATOM     29  C   UNL     1      -1.786  12.400  21.168  0.00  0.00    +0.000 A 
BRANCH  22  30
ATOM     30  C   UNL     1      -3.229  11.033  17.973  0.00  0.00    +0.000 C 
ATOM     31  N   UNL     1      -3.701  11.816  16.960  0.00  0.00    +0.000 N 
ATOM     32  O   UNL     1      -3.077   9.827  17.782  0.00  0.00    +0.000 OA
ATOM     33  H   UNL     1      -3.773  12.821  17.052  0.00  0.00    +0.000 HD
ATOM     34  H   UNL     1      -3.855  11.392  16.052  0.00  0.00    +0.000 HD
ENDBRANCH  22  30
ENDBRANCH   3  21
TORSDOF 4
ENDMDL
MODEL 2
REMARK VINA RESULT:      -8.2      2.359      3.004
REMARK  Name = 
REMARK  5 active torsions:
REMARK  status: ('A' for Active; 'I' for Inactive)
REMARK    1  A    between atoms: C_1  and  C_2
REMARK    2  A    between atoms: C_4  and  C_5
REMARK    3  A    between atoms: C_14  and  C_15
REMARK    4  A    between atoms: N_17  and  C_18
REMARK    5  A    between atoms: C_19  and  C_20
REMARK                            x       y       z     vdW  Elec       q    Type
REMARK                         _______ _______ _______ _____ _____    ______ ____
ROOT
ATOM      1  C   UNL     1       0.517  10.767  19.567  0.00  0.00    +0.000 C 
ATOM      2  O   UNL     1      -0.503  11.067  18.949  0.00  0.00    +0.000 OA
ATOM      3  N   UNL     1       1.014  11.497  20.643  0.00  0.00    +0.000 N 
ATOM      4  H   UNL     1       1.565  10.957  21.312  0.00  0.00    +0.000 HD
ENDROOT
BRANCH   1  12
ATOM      5  C   UNL     1       1.822   5.654  20.922  0.00  0.00    +0.000 C 
ATOM      6  C   UNL     1       2.379   6.251  19.668  0.00  0.00    +0.000 A 
ATOM      7  C   UNL     1       3.165   5.559  18.827  0.00  0.00    +0.000 A 
ATOM      8  C   UNL     1       3.682   6.293  17.624  0.00  0.00    +0.000 A 
ATOM      9  N   UNL     1       3.365   7.522  17.318  0.00  0.00    +0.000 NA
ATOM     10  C   UNL     1       2.544   8.186  18.189  0.00  0.00    +0.000 A 
ATOM     11  N   UNL     1       2.087   9.420  18.126  0.00  0.00    +0.000 NA
ATOM     12  C   UNL     1       1.303   9.545  19.256  0.00  0.00    +0.000 A 
ATOM     13  N   UNL     1       1.280   8.449  20.030  0.00  0.00    +0.000 NA
ATOM     14  N   UNL     1       2.060   7.580  19.352  0.00  0.00    +0.000 N 
BRANCH   8  15
ATOM     15  C   UNL     1       4.613   5.526  16.737  0.00  0.00    +0.000 A 
ATOM     16  C   UNL     1       4.696   4.135  16.878  0.00  0.00    +0.000 A 
ATOM     17  C   UNL     1       5.543   3.392  16.048  0.00  0.00    +0.000 A 
ATOM     18  C   UNL     1       6.306   4.032  15.072  0.00  0.00    +0.000 A 
ATOM     19  C   UNL     1       6.223   5.414  14.920  0.00  0.00    +0.000 A 
ATOM     20  C   UNL     1       5.375   6.159  15.744  0.00  0.00    +0.000 A 
ENDBRANCH   8  15
ENDBRANCH   1  12
BRANCH   3  21
ATOM     21  C   UNL     1       0.429  12.693  21.082  0.00  0.00    +0.000 A 
ATOM     22  C   UNL     1      -0.459  12.733  22.151  0.00  0.00    +0.000 A 
ATOM     23  S   UNL     1      -0.987  14.330  22.483  0.00  0.00    +0.000 S 
ATOM     24  C   UNL     1      -0.028  14.982  21.252  0.00  0.00    +0.000 A 
ATOM     25  N   UNL     1      -0.006  16.318  21.060  0.00  0.00    +0.000 NA
ATOM     26  C   UNL     1       0.816  16.719  20.072  0.00  0.00    +0.000 A 
ATOM     27  C   UNL     1       1.588  15.881  19.290  0.00  0.00    +0.000 A 
ATOM     28  C   UNL     1       1.531  14.509  19.524  0.00  0.00    +0.000 A 
ATOM     29  C   UNL     1       0.683  14.016  20.545  0.00  0.00    +0.000 A 
BRANCH  22  30
ATOM     30  C   UNL     1      -0.995  11.616  22.910  0.00  0.00    +0.000 C 
ATOM     31  N   UNL     1      -2.329  11.638  23.193  0.00  0.00    +0.000 N 
ATOM     32  O   UNL     1      -0.315  10.660  23.281  0.00  0.00    +0.000 OA
ATOM     33  H   UNL     1      -2.936  12.370  22.846  0.00  0.00    +0.000 HD
ATOM     34  H   UNL     1      -2.741  10.832  23.649  0.00  0.00    +0.000 HD
ENDBRANCH  22  30
ENDBRANCH   3  21
TORSDOF 4
ENDMDL
MODEL 3
REMARK VINA RESULT:      -8.1      3.294      9.930
REMARK  Name = 
REMARK  5 active torsions:
REMARK  status: ('A' for Active; 'I' for Inactive)
REMARK    1  A    between atoms: C_1  and  C_2
REMARK    2  A    between atoms: C_4  and  C_5
REMARK    3  A    between atoms: C_14  and  C_15
REMARK    4  A    between atoms: N_17  and  C_18
REMARK    5  A    between atoms: C_19  and  C_20
REMARK                            x       y       z     vdW  Elec       q    Type
REMARK                         _______ _______ _______ _____ _____    ______ ____
ROOT
ATOM      1  C   UNL     1       2.069   7.792  18.878  0.00  0.00    +0.000 C 
ATOM      2  O   UNL     1       1.969   7.527  17.682  0.00  0.00    +0.000 OA
ATOM      3  N   UNL     1       2.814   7.037  19.779  0.00  0.00    +0.000 N 
ATOM      4  H   UNL     1       3.168   7.553  20.585  0.00  0.00    +0.000 HD
ENDROOT
BRANCH   1  12
ATOM      5  C   UNL     1       1.050  13.132  18.516  0.00  0.00    +0.000 C 
ATOM      6  C   UNL     1       0.473  12.344  19.649  0.00  0.00    +0.000 A 
ATOM      7  C   UNL     1      -0.333  12.895  20.572  0.00  0.00    +0.000 A 
ATOM      8  C   UNL     1      -0.815  11.995  21.674  0.00  0.00    +0.000 A 
ATOM      9  N   UNL     1      -0.554  10.719  21.750  0.00  0.00    +0.000 NA
ATOM     10  C   UNL     1       0.252  10.191  20.778  0.00  0.00    +0.000 A 
ATOM     11  N   UNL     1       0.675   8.952  20.628  0.00  0.00    +0.000 NA
ATOM     12  C   UNL     1       1.440   8.995  19.480  0.00  0.00    +0.000 A 
ATOM     13  N   UNL     1       1.532  10.217  18.929  0.00  0.00    +0.000 NA
ATOM     14  N   UNL     1       0.772  10.978  19.746  0.00  0.00    +0.000 N 
BRANCH   8  15
ATOM     15  C   UNL     1      -1.653  12.645  22.732  0.00  0.00    +0.000 A 
ATOM     16  C   UNL     1      -1.232  13.862  23.283  0.00  0.00    +0.000 A 
ATOM     17  C   UNL     1      -2.007  14.499  24.257  0.00  0.00    +0.000 A 
ATOM     18  C   UNL     1      -3.206  13.929  24.682  0.00  0.00    +0.000 A 
ATOM     19  C   UNL     1      -3.636  12.723  24.134  0.00  0.00    +0.000 A 
ATOM     20  C   UNL     1      -2.867  12.085  23.158  0.00  0.00    +0.000 A 
ENDBRANCH   8  15
ENDBRANCH   1  12
BRANCH   3  21
ATOM     21  C   UNL     1       3.469   5.852  19.414  0.00  0.00    +0.000 A 
ATOM     22  C   UNL     1       3.036   4.603  19.846  0.00  0.00    +0.000 A 
ATOM     23  S   UNL     1       4.006   3.338  19.219  0.00  0.00    +0.000 S 
ATOM     24  C   UNL     1       4.977   4.415  18.347  0.00  0.00    +0.000 A 
ATOM     25  N   UNL     1       5.968   3.936  17.565  0.00  0.00    +0.000 NA
ATOM     26  C   UNL     1       6.651   4.886  16.900  0.00  0.00    +0.000 A 
ATOM     27  C   UNL     1       6.405   6.244  16.976  0.00  0.00    +0.000 A 
ATOM     28  C   UNL     1       5.373   6.691  17.800  0.00  0.00    +0.000 A 
ATOM     29  C   UNL     1       4.616   5.746  18.533  0.00  0.00    +0.000 A 
BRANCH  22  30
ATOM     30  C   UNL     1       1.957   4.304  20.772  0.00  0.00    +0.000 C 
ATOM     31  N   UNL     1       2.265   3.542  21.861  0.00  0.00    +0.000 N 
ATOM     32  O   UNL     1       0.807   4.718  20.631  0.00  0.00    +0.000 OA
ATOM     33  H   UNL     1       3.212   3.241  22.051  0.00  0.00    +0.000 HD
ATOM     34  H   UNL     1       1.550   3.389  22.563  0.00  0.00    +0.000 HD
ENDBRANCH  22  30
ENDBRANCH   3  21
TORSDOF 4
ENDMDL
MODEL 4
REMARK VINA RESULT:      -8.1      3.386      9.864
REMARK  Name = 
REMARK  5 active torsions:
REMARK  status: ('A' for Active; 'I' for Inactive)
REMARK    1  A    between atoms: C_1  and  C_2
REMARK    2  A    between atoms: C_4  and  C_5
REMARK    3  A    between atoms: C_14  and  C_15
REMARK    4  A    between atoms: N_17  and  C_18
REMARK    5  A    between atoms: C_19  and  C_20
REMARK                            x       y       z     vdW  Elec       q    Type
REMARK                         _______ _______ _______ _____ _____    ______ ____
ROOT
ATOM      1  C   UNL     1       2.249   7.064  19.860  0.00  0.00    +0.000 C 
ATOM      2  O   UNL     1       2.525   6.225  20.716  0.00  0.00    +0.000 OA
ATOM      3  N   UNL     1       2.634   6.968  18.527  0.00  0.00    +0.000 N 
ATOM      4  H   UNL     1       2.022   7.447  17.865  0.00  0.00    +0.000 HD
ENDROOT
BRANCH   1  12
ATOM      5  C   UNL     1      -0.920  11.071  17.964  0.00  0.00    +0.000 C 
ATOM      6  C   UNL     1      -0.723  10.920  19.440  0.00  0.00    +0.000 A 
ATOM      7  C   UNL     1      -1.336  11.714  20.333  0.00  0.00    +0.000 A 
ATOM      8  C   UNL     1      -1.022  11.471  21.782  0.00  0.00    +0.000 A 
ATOM      9  N   UNL     1      -0.254  10.511  22.218  0.00  0.00    +0.000 NA
ATOM     10  C   UNL     1       0.335   9.710  21.278  0.00  0.00    +0.000 A 
ATOM     11  N   UNL     1       1.153   8.690  21.444  0.00  0.00    +0.000 NA
ATOM     12  C   UNL     1       1.415   8.257  20.160  0.00  0.00    +0.000 A 
ATOM     13  N   UNL     1       0.816   8.985  19.204  0.00  0.00    +0.000 NA
ATOM     14  N   UNL     1       0.122   9.904  19.909  0.00  0.00    +0.000 N 
BRANCH   8  15
ATOM     15  C   UNL     1      -1.659  12.412  22.757  0.00  0.00    +0.000 A 
ATOM     16  C   UNL     1      -0.976  13.579  23.124  0.00  0.00    +0.000 A 
ATOM     17  C   UNL     1      -1.558  14.484  24.018  0.00  0.00    +0.000 A 
ATOM     18  C   UNL     1      -2.824  14.233  24.545  0.00  0.00    +0.000 A 
ATOM     19  C   UNL     1      -3.513  13.079  24.180  0.00  0.00    +0.000 A 
ATOM     20  C   UNL     1      -2.937  12.174  23.284  0.00  0.00    +0.000 A 
ENDBRANCH   8  15
ENDBRANCH   1  12
BRANCH   3  21
ATOM     21  C   UNL     1       3.442   5.929  18.045  0.00  0.00    +0.000 A 
ATOM     22  C   UNL     1       2.941   4.654  17.804  0.00  0.00    +0.000 A 
ATOM     23  S   UNL     1       4.145   3.600  17.189  0.00  0.00    +0.000 S 
ATOM     24  C   UNL     1       5.321   4.817  17.200  0.00  0.00    +0.000 A 
ATOM     25  N   UNL     1       6.561   4.550  16.741  0.00  0.00    +0.000 NA
ATOM     26  C   UNL     1       7.398   5.604  16.771  0.00  0.00    +0.000 A 
ATOM     27  C   UNL     1       7.071   6.867  17.226  0.00  0.00    +0.000 A 
ATOM     28  C   UNL     1       5.777   7.094  17.693  0.00  0.00    +0.000 A 
ATOM     29  C   UNL     1       4.846   6.028  17.694  0.00  0.00    +0.000 A 
BRANCH  22  30
ATOM     30  C   UNL     1       1.605   4.154  18.076  0.00  0.00    +0.000 C 
ATOM     31  N   UNL     1       1.356   3.694  19.336  0.00  0.00    +0.000 N 
ATOM     32  O   UNL     1       0.700   4.147  17.242  0.00  0.00    +0.000 OA
ATOM     33  H   UNL     1       2.051   3.747  20.070  0.00  0.00    +0.000 HD
ATOM     34  H   UNL     1       0.410   3.417  19.573  0.00  0.00    +0.000 HD
ENDBRANCH  22  30
ENDBRANCH   3  21
TORSDOF 4
ENDMDL
MODEL 5
REMARK VINA RESULT:      -8.1      1.785      2.287
REMARK  Name = 
REMARK  5 active torsions:
REMARK  status: ('A' for Active; 'I' for Inactive)
REMARK    1  A    between atoms: C_1  and  C_2
REMARK    2  A    between atoms: C_4  and  C_5
REMARK    3  A    between atoms: C_14  and  C_15
REMARK    4  A    between atoms: N_17  and  C_18
REMARK    5  A    between atoms: C_19  and  C_20
REMARK                            x       y       z     vdW  Elec       q    Type
REMARK                         _______ _______ _______ _____ _____    ______ ____
ROOT
ATOM      1  C   UNL     1       0.257  10.452  19.418  0.00  0.00    +0.000 C 
ATOM      2  O   UNL     1      -0.880  10.470  18.952  0.00  0.00    +0.000 OA
ATOM      3  N   UNL     1       0.764  11.436  20.261  0.00  0.00    +0.000 N 
ATOM      4  H   UNL     1       1.498  11.122  20.898  0.00  0.00    +0.000 HD
ENDROOT
BRANCH   1  12
ATOM      5  C   UNL     1       1.989   5.478  20.811  0.00  0.00    +0.000 C 
ATOM      6  C   UNL     1       2.594   6.167  19.628  0.00  0.00    +0.000 A 
ATOM      7  C   UNL     1       3.529   5.587  18.857  0.00  0.00    +0.000 A 
ATOM      8  C   UNL     1       4.073   6.406  17.722  0.00  0.00    +0.000 A 
ATOM      9  N   UNL     1       3.652   7.600  17.407  0.00  0.00    +0.000 NA
ATOM     10  C   UNL     1       2.683   8.147  18.204  0.00  0.00    +0.000 A 
ATOM     11  N   UNL     1       2.098   9.325  18.117  0.00  0.00    +0.000 NA
ATOM     12  C   UNL     1       1.201   9.333  19.165  0.00  0.00    +0.000 A 
ATOM     13  N   UNL     1       1.226   8.219  19.916  0.00  0.00    +0.000 NA
ATOM     14  N   UNL     1       2.160   7.460  19.304  0.00  0.00    +0.000 N 
BRANCH   8  15
ATOM     15  C   UNL     1       5.165   5.770  16.919  0.00  0.00    +0.000 A 
ATOM     16  C   UNL     1       6.226   5.143  17.587  0.00  0.00    +0.000 A 
ATOM     17  C   UNL     1       7.247   4.523  16.860  0.00  0.00    +0.000 A 
ATOM     18  C   UNL     1       7.214   4.521  15.466  0.00  0.00    +0.000 A 
ATOM     19  C   UNL     1       6.159   5.134  14.794  0.00  0.00    +0.000 A 
ATOM     20  C   UNL     1       5.135   5.751  15.517  0.00  0.00    +0.000 A 
ENDBRANCH   8  15
ENDBRANCH   1  12
BRANCH   3  21
ATOM     21  C   UNL     1       0.039  12.585  20.606  0.00  0.00    +0.000 A 
ATOM     22  C   UNL     1       0.211  13.795  19.943  0.00  0.00    +0.000 A 
ATOM     23  S   UNL     1      -0.829  15.012  20.556  0.00  0.00    +0.000 S 
ATOM     24  C   UNL     1      -1.537  13.952  21.668  0.00  0.00    +0.000 A 
ATOM     25  N   UNL     1      -2.537  14.389  22.463  0.00  0.00    +0.000 NA
ATOM     26  C   UNL     1      -3.039  13.447  23.283  0.00  0.00    +0.000 A 
ATOM     27  C   UNL     1      -2.603  12.137  23.352  0.00  0.00    +0.000 A 
ATOM     28  C   UNL     1      -1.565  11.734  22.514  0.00  0.00    +0.000 A 
ATOM     29  C   UNL     1      -0.988  12.674  21.628  0.00  0.00    +0.000 A 
BRANCH  22  30
ATOM     30  C   UNL     1       1.173  14.115  18.903  0.00  0.00    +0.000 C 
ATOM     31  N   UNL     1       1.526  15.425  18.762  0.00  0.00    +0.000 N 
ATOM     32  O   UNL     1       1.689  13.269  18.173  0.00  0.00    +0.000 OA
ATOM     33  H   UNL     1       1.179  16.141  19.387  0.00  0.00    +0.000 HD
ATOM     34  H   UNL     1       2.256  15.661  18.099  0.00  0.00    +0.000 HD
ENDBRANCH  22  30
ENDBRANCH   3  21
TORSDOF 4
ENDMDL
MODEL 6
REMARK VINA RESULT:      -8.0      3.599      9.649
REMARK  Name = 
REMARK  5 active torsions:
REMARK  status: ('A' for Active; 'I' for Inactive)
REMARK    1  A    between atoms: C_1  and  C_2
REMARK    2  A    between atoms: C_4  and  C_5
REMARK    3  A    between atoms: C_14  and  C_15
REMARK    4  A    between atoms: N_17  and  C_18
REMARK    5  A    between atoms: C_19  and  C_20
REMARK                            x       y       z     vdW  Elec       q    Type
REMARK                         _______ _______ _______ _____ _____    ______ ____
ROOT
ATOM      1  C   UNL     1       2.211   7.539  18.910  0.00  0.00    +0.000 C 
ATOM      2  O   UNL     1       2.210   7.252  17.715  0.00  0.00    +0.000 OA
ATOM      3  N   UNL     1       2.904   6.820  19.879  0.00  0.00    +0.000 N 
ATOM      4  H   UNL     1       3.181   7.360  20.700  0.00  0.00    +0.000 HD
ENDROOT
BRANCH   1  12
ATOM      5  C   UNL     1      -0.401   9.881  23.079  0.00  0.00    +0.000 C 
ATOM      6  C   UNL     1      -0.147  10.666  21.831  0.00  0.00    +0.000 A 
ATOM      7  C   UNL     1      -0.503  11.956  21.706  0.00  0.00    +0.000 A 
ATOM      8  C   UNL     1      -0.218  12.612  20.385  0.00  0.00    +0.000 A 
ATOM      9  N   UNL     1       0.403  12.033  19.394  0.00  0.00    +0.000 NA
ATOM     10  C   UNL     1       0.768  10.726  19.568  0.00  0.00    +0.000 A 
ATOM     11  N   UNL     1       1.386   9.914  18.734  0.00  0.00    +0.000 NA
ATOM     12  C   UNL     1       1.504   8.734  19.440  0.00  0.00    +0.000 A 
ATOM     13  N   UNL     1       0.958   8.772  20.666  0.00  0.00    +0.000 NA
ATOM     14  N   UNL     1       0.496  10.038  20.755  0.00  0.00    +0.000 N 
BRANCH   8  15
ATOM     15  C   UNL     1      -0.686  14.027  20.242  0.00  0.00    +0.000 A 
ATOM     16  C   UNL     1      -0.149  14.821  19.220  0.00  0.00    +0.000 A 
ATOM     17  C   UNL     1      -0.584  16.140  19.051  0.00  0.00    +0.000 A 
ATOM     18  C   UNL     1      -1.558  16.671  19.896  0.00  0.00    +0.000 A 
ATOM     19  C   UNL     1      -2.103  15.885  20.909  0.00  0.00    +0.000 A 
ATOM     20  C   UNL     1      -1.674  14.566  21.079  0.00  0.00    +0.000 A 
ENDBRANCH   8  15
ENDBRANCH   1  12
BRANCH   3  21
ATOM     21  C   UNL     1       3.618   5.649  19.588  0.00  0.00    +0.000 A 
ATOM     22  C   UNL     1       3.171   4.393  19.981  0.00  0.00    +0.000 A 
ATOM     23  S   UNL     1       4.226   3.147  19.460  0.00  0.00    +0.000 S 
ATOM     24  C   UNL     1       5.256   4.242  18.684  0.00  0.00    +0.000 A 
ATOM     25  N   UNL     1       6.330   3.784  18.008  0.00  0.00    +0.000 NA
ATOM     26  C   UNL     1       7.055   4.746  17.408  0.00  0.00    +0.000 A 
ATOM     27  C   UNL     1       6.774   6.098  17.453  0.00  0.00    +0.000 A 
ATOM     28  C   UNL     1       5.656   6.525  18.167  0.00  0.00    +0.000 A 
ATOM     29  C   UNL     1       4.850   5.566  18.826  0.00  0.00    +0.000 A 
BRANCH  22  30
ATOM     30  C   UNL     1       2.012   4.073  20.797  0.00  0.00    +0.000 C 
ATOM     31  N   UNL     1       2.228   3.334  21.923  0.00  0.00    +0.000 N 
ATOM     32  O   UNL     1       0.871   4.450  20.532  0.00  0.00    +0.000 OA
ATOM     33  H   UNL     1       3.159   3.064  22.213  0.00  0.00    +0.000 HD
ATOM     34  H   UNL     1       1.449   3.168  22.550  0.00  0.00    +0.000 HD
ENDBRANCH  22  30
ENDBRANCH   3  21
TORSDOF 4
ENDMDL
MODEL 7
REMARK VINA RESULT:      -8.0      3.297      9.864
REMARK  Name = 
REMARK  5 active torsions:
REMARK  status: ('A' for Active; 'I' for Inactive)
REMARK    1  A    between atoms: C_1  and  C_2
REMARK    2  A    between atoms: C_4  and  C_5
REMARK    3  A    between atoms: C_14  and  C_15
REMARK    4  A    between atoms: N_17  and  C_18
REMARK    5  A    between atoms: C_19  and  C_20
REMARK                            x       y       z     vdW  Elec       q    Type
REMARK                         _______ _______ _______ _____ _____    ______ ____
ROOT
ATOM      1  C   UNL     1       2.167   7.666  18.818  0.00  0.00    +0.000 C 
ATOM      2  O   UNL     1       2.460   7.517  17.633  0.00  0.00    +0.000 OA
ATOM      3  N   UNL     1       2.651   6.860  19.843  0.00  0.00    +0.000 N 
ATOM      4  H   UNL     1       2.702   7.309  20.759  0.00  0.00    +0.000 HD
ENDROOT
BRANCH   1  12
ATOM      5  C   UNL     1      -1.551  11.450  17.574  0.00  0.00    +0.000 C 
ATOM      6  C   UNL     1      -1.126  11.271  18.998  0.00  0.00    +0.000 A 
ATOM      7  C   UNL     1      -1.660  11.983  20.004  0.00  0.00    +0.000 A 
ATOM      8  C   UNL     1      -1.116  11.724  21.380  0.00  0.00    +0.000 A 
ATOM      9  N   UNL     1      -0.219  10.818  21.659  0.00  0.00    +0.000 NA
ATOM     10  C   UNL     1       0.284  10.098  20.609  0.00  0.00    +0.000 A 
ATOM     11  N   UNL     1       1.195   9.146  20.612  0.00  0.00    +0.000 NA
ATOM     12  C   UNL     1       1.297   8.775  19.286  0.00  0.00    +0.000 A 
ATOM     13  N   UNL     1       0.508   9.479  18.459  0.00  0.00    +0.000 NA
ATOM     14  N   UNL     1      -0.144  10.315  19.296  0.00  0.00    +0.000 N 
BRANCH   8  15
ATOM     15  C   UNL     1      -1.673  12.578  22.476  0.00  0.00    +0.000 A 
ATOM     16  C   UNL     1      -2.920  12.252  23.027  0.00  0.00    +0.000 A 
ATOM     17  C   UNL     1      -3.453  13.022  24.066  0.00  0.00    +0.000 A 
ATOM     18  C   UNL     1      -2.745  14.115  24.564  0.00  0.00    +0.000 A 
ATOM     19  C   UNL     1      -1.502  14.441  24.028  0.00  0.00    +0.000 A 
ATOM     20  C   UNL     1      -0.963  13.673  22.992  0.00  0.00    +0.000 A 
ENDBRANCH   8  15
ENDBRANCH   1  12
BRANCH   3  21
ATOM     21  C   UNL     1       3.472   5.747  19.609  0.00  0.00    +0.000 A 
ATOM     22  C   UNL     1       3.114   4.466  20.014  0.00  0.00    +0.000 A 
ATOM     23  S   UNL     1       4.291   3.303  19.566  0.00  0.00    +0.000 S 
ATOM     24  C   UNL     1       5.258   4.465  18.806  0.00  0.00    +0.000 A 
ATOM     25  N   UNL     1       6.394   4.085  18.184  0.00  0.00    +0.000 NA
ATOM     26  C   UNL     1       7.061   5.092  17.592  0.00  0.00    +0.000 A 
ATOM     27  C   UNL     1       6.667   6.417  17.593  0.00  0.00    +0.000 A 
ATOM     28  C   UNL     1       5.487   6.762  18.251  0.00  0.00    +0.000 A 
ATOM     29  C   UNL     1       4.737   5.752  18.900  0.00  0.00    +0.000 A 
BRANCH  22  30
ATOM     30  C   UNL     1       1.953   4.066  20.790  0.00  0.00    +0.000 C 
ATOM     31  N   UNL     1       2.178   3.320  21.910  0.00  0.00    +0.000 N 
ATOM     32  O   UNL     1       0.801   4.383  20.497  0.00  0.00    +0.000 OA
ATOM     33  H   UNL     1       3.115   3.099  22.223  0.00  0.00    +0.000 HD
ATOM     34  H   UNL     1       1.393   3.099  22.511  0.00  0.00    +0.000 HD
ENDBRANCH  22  30
ENDBRANCH   3  21
TORSDOF 4
ENDMDL
MODEL 8
REMARK VINA RESULT:      -8.0      3.331      4.144
REMARK  Name = 
REMARK  5 active torsions:
REMARK  status: ('A' for Active; 'I' for Inactive)
REMARK    1  A    between atoms: C_1  and  C_2
REMARK    2  A    between atoms: C_4  and  C_5
REMARK    3  A    between atoms: C_14  and  C_15
REMARK    4  A    between atoms: N_17  and  C_18
REMARK    5  A    between atoms: C_19  and  C_20
REMARK                            x       y       z     vdW  Elec       q    Type
REMARK                         _______ _______ _______ _____ _____    ______ ____
ROOT
ATOM      1  C   UNL     1       0.163  10.556  22.284  0.00  0.00    +0.000 C 
ATOM      2  O   UNL     1       0.022  10.389  23.494  0.00  0.00    +0.000 OA
ATOM      3  N   UNL     1      -0.087  11.760  21.633  0.00  0.00    +0.000 N 
ATOM      4  H   UNL     1       0.448  11.906  20.776  0.00  0.00    +0.000 HD
ENDROOT
BRANCH   1  12
ATOM      5  C   UNL     1       2.326   9.211  17.467  0.00  0.00    +0.000 C 
ATOM      6  C   UNL     1       2.128   8.156  18.509  0.00  0.00    +0.000 A 
ATOM      7  C   UNL     1       2.504   6.879  18.322  0.00  0.00    +0.000 A 
ATOM      8  C   UNL     1       2.214   5.918  19.439  0.00  0.00    +0.000 A 
ATOM      9  N   UNL     1       1.688   6.256  20.584  0.00  0.00    +0.000 NA
ATOM     10  C   UNL     1       1.339   7.570  20.744  0.00  0.00    +0.000 A 
ATOM     11  N   UNL     1       0.786   8.166  21.781  0.00  0.00    +0.000 NA
ATOM     12  C   UNL     1       0.675   9.485  21.390  0.00  0.00    +0.000 A 
ATOM     13  N   UNL     1       1.109   9.725  20.142  0.00  0.00    +0.000 NA
ATOM     14  N   UNL     1       1.539   8.513  19.730  0.00  0.00    +0.000 N 
BRANCH   8  15
ATOM     15  C   UNL     1       2.576   4.487  19.183  0.00  0.00    +0.000 A 
ATOM     16  C   UNL     1       3.875   4.052  19.474  0.00  0.00    +0.000 A 
ATOM     17  C   UNL     1       4.233   2.716  19.263  0.00  0.00    +0.000 A 
ATOM     18  C   UNL     1       3.297   1.809  18.768  0.00  0.00    +0.000 A 
ATOM     19  C   UNL     1       2.001   2.232  18.484  0.00  0.00    +0.000 A 
ATOM     20  C   UNL     1       1.638   3.565  18.696  0.00  0.00    +0.000 A 
ENDBRANCH   8  15
ENDBRANCH   1  12
BRANCH   3  21
ATOM     21  C   UNL     1      -0.594  12.887  22.294  0.00  0.00    +0.000 A 
ATOM     22  C   UNL     1       0.037  14.125  22.238  0.00  0.00    +0.000 A 
ATOM     23  S   UNL     1      -0.824  15.322  23.111  0.00  0.00    +0.000 S 
ATOM     24  C   UNL     1      -2.049  14.235  23.538  0.00  0.00    +0.000 A 
ATOM     25  N   UNL     1      -3.107  14.670  24.254  0.00  0.00    +0.000 NA
ATOM     26  C   UNL     1      -4.028  13.723  24.506  0.00  0.00    +0.000 A 
ATOM     27  C   UNL     1      -3.947  12.405  24.096  0.00  0.00    +0.000 A 
ATOM     28  C   UNL     1      -2.834  12.002  23.361  0.00  0.00    +0.000 A 
ATOM     29  C   UNL     1      -1.823  12.947  23.063  0.00  0.00    +0.000 A 
BRANCH  22  30
ATOM     30  C   UNL     1       1.307  14.451  21.612  0.00  0.00    +0.000 C 
ATOM     31  N   UNL     1       1.287  14.739  20.278  0.00  0.00    +0.000 N 
ATOM     32  O   UNL     1       2.373  14.500  22.224  0.00  0.00    +0.000 OA
ATOM     33  H   UNL     1       0.422  14.779  19.754  0.00  0.00    +0.000 HD
ATOM     34  H   UNL     1       2.145  15.049  19.836  0.00  0.00    +0.000 HD
ENDBRANCH  22  30
ENDBRANCH   3  21
TORSDOF 4
ENDMDL
MODEL 9
REMARK VINA RESULT:      -7.9      3.634      9.930
REMARK  Name = 
REMARK  5 active torsions:
REMARK  status: ('A' for Active; 'I' for Inactive)
REMARK    1  A    between atoms: C_1  and  C_2
REMARK    2  A    between atoms: C_4  and  C_5
REMARK    3  A    between atoms: C_14  and  C_15
REMARK    4  A    between atoms: N_17  and  C_18
REMARK    5  A    between atoms: C_19  and  C_20
REMARK                            x       y       z     vdW  Elec       q    Type
REMARK                         _______ _______ _______ _____ _____    ______ ____
ROOT
ATOM      1  C   UNL     1       1.963   6.992  20.100  0.00  0.00    +0.000 C 
ATOM      2  O   UNL     1       2.226   6.146  20.953  0.00  0.00    +0.000 OA
ATOM      3  N   UNL     1       2.151   6.800  18.735  0.00  0.00    +0.000 N 
ATOM      4  H   UNL     1       1.532   7.346  18.134  0.00  0.00    +0.000 HD
ENDROOT
BRANCH   1  12
ATOM      5  C   UNL     1       1.034  12.163  18.658  0.00  0.00    +0.000 C 
ATOM      6  C   UNL     1       0.449  11.634  19.930  0.00  0.00    +0.000 A 
ATOM      7  C   UNL     1      -0.341  12.376  20.723  0.00  0.00    +0.000 A 
ATOM      8  C   UNL     1      -0.831  11.729  21.987  0.00  0.00    +0.000 A 
ATOM      9  N   UNL     1      -0.592  10.490  22.320  0.00  0.00    +0.000 NA
ATOM     10  C   UNL     1       0.199   9.761  21.475  0.00  0.00    +0.000 A 
ATOM     11  N   UNL     1       0.599   8.510  21.580  0.00  0.00    +0.000 NA
ATOM     12  C   UNL     1       1.358   8.304  20.445  0.00  0.00    +0.000 A 
ATOM     13  N   UNL     1       1.468   9.386  19.656  0.00  0.00    +0.000 NA
ATOM     14  N   UNL     1       0.726  10.311  20.302  0.00  0.00    +0.000 N 
BRANCH   8  15
ATOM     15  C   UNL     1      -1.652  12.596  22.891  0.00  0.00    +0.000 A 
ATOM     16  C   UNL     1      -2.909  12.142  23.313  0.00  0.00    +0.000 A 
ATOM     17  C   UNL     1      -3.686  12.923  24.174  0.00  0.00    +0.000 A 
ATOM     18  C   UNL     1      -3.213  14.155  24.623  0.00  0.00    +0.000 A 
ATOM     19  C   UNL     1      -1.961  14.610  24.215  0.00  0.00    +0.000 A 
ATOM     20  C   UNL     1      -1.180  13.832  23.357  0.00  0.00    +0.000 A 
ENDBRANCH   8  15
ENDBRANCH   1  12
BRANCH   3  21
ATOM     21  C   UNL     1       2.728   5.638  18.206  0.00  0.00    +0.000 A 
ATOM     22  C   UNL     1       3.906   5.666  17.467  0.00  0.00    +0.000 A 
ATOM     23  S   UNL     1       4.391   4.097  16.978  0.00  0.00    +0.000 S 
ATOM     24  C   UNL     1       3.081   3.367  17.762  0.00  0.00    +0.000 A 
ATOM     25  N   UNL     1       2.962   2.022  17.749  0.00  0.00    +0.000 NA
ATOM     26  C   UNL     1       1.898   1.558  18.430  0.00  0.00    +0.000 A 
ATOM     27  C   UNL     1       0.977   2.342  19.098  0.00  0.00    +0.000 A 
ATOM     28  C   UNL     1       1.140   3.726  19.080  0.00  0.00    +0.000 A 
ATOM     29  C   UNL     1       2.236   4.284  18.378  0.00  0.00    +0.000 A 
BRANCH  22  30
ATOM     30  C   UNL     1       4.666   6.829  17.044  0.00  0.00    +0.000 C 
ATOM     31  N   UNL     1       5.617   6.637  16.084  0.00  0.00    +0.000 N 
ATOM     32  O   UNL     1       4.478   7.961  17.488  0.00  0.00    +0.000 OA
ATOM     33  H   UNL     1       5.754   5.737  15.643  0.00  0.00    +0.000 HD
ATOM     34  H   UNL     1       6.102   7.446  15.714  0.00  0.00    +0.000 HD
ENDBRANCH  22  30
ENDBRANCH   3  21
TORSDOF 4
ENDMDL
