MODEL 1
REMARK VINA RESULT:      -7.1      0.000      0.000
REMARK  Name = 
REMARK  5 active torsions:
REMARK  status: ('A' for Active; 'I' for Inactive)
REMARK    1  A    between atoms: C_2  and  C_3
REMARK    2  A    between atoms: C_3  and  N_4
REMARK    3  A    between atoms: C_5  and  P_6
REMARK    4  A    between atoms: P_6  and  C_7
REMARK    5  A    between atoms: P_6  and  O_9
REMARK                            x       y       z     vdW  Elec       q    Type
REMARK                         _______ _______ _______ _____ _____    ______ ____
ROOT
ATOM      1  N   UNL     1       4.595   4.341  17.750  0.00  0.00    +0.000 N 
ATOM      2  C   UNL     1       5.370   5.002  18.693  0.00  0.00    +0.000 A 
ATOM      3  N   UNL     1       4.611   5.325  19.734  0.00  0.00    +0.000 NA
ATOM      4  C   UNL     1       3.388   4.757  19.515  0.00  0.00    +0.000 A 
ATOM      5  C   UNL     1       2.273   4.707  20.366  0.00  0.00    +0.000 A 
ATOM      6  C   UNL     1       1.135   4.014  19.943  0.00  0.00    +0.000 A 
ATOM      7  C   UNL     1       1.100   3.404  18.688  0.00  0.00    +0.000 A 
ATOM      8  C   UNL     1       2.199   3.457  17.822  0.00  0.00    +0.000 A 
ATOM      9  C   UNL     1       3.339   4.134  18.275  0.00  0.00    +0.000 A 
ENDROOT
BRANCH   2  10
ATOM     10  P   UNL     1       7.100   5.367  18.760  0.00  0.00    +0.000 P 
ATOM     11  C   UNL     1       7.370   6.820  17.766  0.00  0.00    +0.000 C 
ATOM     12  O   UNL     1       7.633   5.491  20.159  0.00  0.00    +0.000 OA
BRANCH  10  13
ATOM     13  O   UNL     1       7.913   4.208  17.976  0.00  0.00    +0.000 OA
ATOM     14  H   UNL     1       7.331   3.624  17.457  0.00  0.00    +0.000 HD
ENDBRANCH  10  13
ENDBRANCH   2  10
BRANCH   1  15
ATOM     15  C   UNL     1       5.114   3.789  16.506  0.00  0.00    +0.000 C 
BRANCH  15  17
ATOM     16  C   UNL     1       6.355   4.923  14.630  0.00  0.00    +0.000 C 
ATOM     17  C   UNL     1       5.287   4.825  15.432  0.00  0.00    +0.000 C 
ENDBRANCH  15  17
ENDBRANCH   1  15
TORSDOF 4
ENDMDL
MODEL 2
REMARK VINA RESULT:      -7.0      1.094      1.094
REMARK  Name = 
REMARK  5 active torsions:
REMARK  status: ('A' for Active; 'I' for Inactive)
REMARK    1  A    between atoms: C_2  and  C_3
REMARK    2  A    between atoms: C_3  and  N_4
REMARK    3  A    between atoms: C_5  and  P_6
REMARK    4  A    between atoms: P_6  and  C_7
REMARK    5  A    between atoms: P_6  and  O_9
REMARK                            x       y       z     vdW  Elec       q    Type
REMARK                         _______ _______ _______ _____ _____    ______ ____
ROOT
ATOM      1  N   UNL     1       4.700   4.608  17.478  0.00  0.00    +0.000 N 
ATOM      2  C   UNL     1       5.725   4.619  18.415  0.00  0.00    +0.000 A 
ATOM      3  N   UNL     1       5.302   4.040  19.532  0.00  0.00    +0.000 NA
ATOM      4  C   UNL     1       4.056   3.545  19.267  0.00  0.00    +0.000 A 
ATOM      5  C   UNL     1       3.229   2.753  20.079  0.00  0.00    +0.000 A 
ATOM      6  C   UNL     1       2.005   2.314  19.567  0.00  0.00    +0.000 A 
ATOM      7  C   UNL     1       1.602   2.678  18.281  0.00  0.00    +0.000 A 
ATOM      8  C   UNL     1       2.408   3.481  17.464  0.00  0.00    +0.000 A 
ATOM      9  C   UNL     1       3.643   3.888  17.986  0.00  0.00    +0.000 A 
ENDROOT
BRANCH   2  10
ATOM     10  P   UNL     1       7.409   5.154  18.322  0.00  0.00    +0.000 P 
ATOM     11  C   UNL     1       7.416   6.723  17.478  0.00  0.00    +0.000 C 
ATOM     12  O   UNL     1       8.101   5.188  19.655  0.00  0.00    +0.000 OA
BRANCH  10  13
ATOM     13  O   UNL     1       8.219   4.175  17.321  0.00  0.00    +0.000 OA
ATOM     14  H   UNL     1       8.310   3.270  17.670  0.00  0.00    +0.000 HD
ENDBRANCH  10  13
ENDBRANCH   2  10
BRANCH   1  15
ATOM     15  C   UNL     1       4.831   5.107  16.115  0.00  0.00    +0.000 C 
BRANCH  15  17
ATOM     16  C   UNL     1       6.332   4.381  14.227  0.00  0.00    +0.000 C 
ATOM     17  C   UNL     1       5.431   4.099  15.177  0.00  0.00    +0.000 C 
ENDBRANCH  15  17
ENDBRANCH   1  15
TORSDOF 4
ENDMDL
MODEL 3
REMARK VINA RESULT:      -6.7      1.509      1.646
REMARK  Name = 
REMARK  5 active torsions:
REMARK  status: ('A' for Active; 'I' for Inactive)
REMARK    1  A    between atoms: C_2  and  C_3
REMARK    2  A    between atoms: C_3  and  N_4
REMARK    3  A    between atoms: C_5  and  P_6
REMARK    4  A    between atoms: P_6  and  C_7
REMARK    5  A    between atoms: P_6  and  O_9
REMARK                            x       y       z     vdW  Elec       q    Type
REMARK                         _______ _______ _______ _____ _____    ______ ____
ROOT
ATOM      1  N   UNL     1       4.737   4.386  17.145  0.00  0.00    +0.000 N 
ATOM      2  C   UNL     1       5.775   4.561  18.052  0.00  0.00    +0.000 A 
ATOM      3  N   UNL     1       5.395   4.115  19.243  0.00  0.00    +0.000 NA
ATOM      4  C   UNL     1       4.168   3.538  19.070  0.00  0.00    +0.000 A 
ATOM      5  C   UNL     1       3.391   2.824  19.994  0.00  0.00    +0.000 A 
ATOM      6  C   UNL     1       2.179   2.271  19.568  0.00  0.00    +0.000 A 
ATOM      7  C   UNL     1       1.740   2.448  18.255  0.00  0.00    +0.000 A 
ATOM      8  C   UNL     1       2.498   3.171  17.325  0.00  0.00    +0.000 A 
ATOM      9  C   UNL     1       3.721   3.694  17.764  0.00  0.00    +0.000 A 
ENDROOT
BRANCH   2  10
ATOM     10  P   UNL     1       7.432   5.151  17.856  0.00  0.00    +0.000 P 
ATOM     11  C   UNL     1       7.918   5.880  19.408  0.00  0.00    +0.000 C 
ATOM     12  O   UNL     1       8.387   4.102  17.362  0.00  0.00    +0.000 OA
BRANCH  10  13
ATOM     13  O   UNL     1       7.428   6.401  16.829  0.00  0.00    +0.000 OA
ATOM     14  H   UNL     1       7.166   6.146  15.925  0.00  0.00    +0.000 HD
ENDBRANCH  10  13
ENDBRANCH   2  10
BRANCH   1  15
ATOM     15  C   UNL     1       4.825   4.710  15.728  0.00  0.00    +0.000 C 
BRANCH  15  17
ATOM     16  C   UNL     1       6.393   4.104  13.851  0.00  0.00    +0.000 C 
ATOM     17  C   UNL     1       5.731   3.781  14.970  0.00  0.00    +0.000 C 
ENDBRANCH  15  17
ENDBRANCH   1  15
TORSDOF 4
ENDMDL
MODEL 4
REMARK VINA RESULT:      -6.6      1.171      1.361
REMARK  Name = 
REMARK  5 active torsions:
REMARK  status: ('A' for Active; 'I' for Inactive)
REMARK    1  A    between atoms: C_2  and  C_3
REMARK    2  A    between atoms: C_3  and  N_4
REMARK    3  A    between atoms: C_5  and  P_6
REMARK    4  A    between atoms: P_6  and  C_7
REMARK    5  A    between atoms: P_6  and  O_9
REMARK                            x       y       z     vdW  Elec       q    Type
REMARK                         _______ _______ _______ _____ _____    ______ ____
ROOT
ATOM      1  N   UNL     1       4.779   4.198  17.074  0.00  0.00    +0.000 N 
ATOM      2  C   UNL     1       5.614   4.978  17.863  0.00  0.00    +0.000 A 
ATOM      3  N   UNL     1       4.926   5.447  18.897  0.00  0.00    +0.000 NA
ATOM      4  C   UNL     1       3.691   4.864  18.840  0.00  0.00    +0.000 A 
ATOM      5  C   UNL     1       2.636   4.941  19.761  0.00  0.00    +0.000 A 
ATOM      6  C   UNL     1       1.473   4.204  19.515  0.00  0.00    +0.000 A 
ATOM      7  C   UNL     1       1.356   3.427  18.362  0.00  0.00    +0.000 A 
ATOM      8  C   UNL     1       2.395   3.351  17.426  0.00  0.00    +0.000 A 
ATOM      9  C   UNL     1       3.561   4.076  17.704  0.00  0.00    +0.000 A 
ENDROOT
BRANCH   2  10
ATOM     10  P   UNL     1       7.345   5.336  17.764  0.00  0.00    +0.000 P 
ATOM     11  C   UNL     1       7.847   5.953  19.358  0.00  0.00    +0.000 C 
ATOM     12  O   UNL     1       8.169   4.176  17.283  0.00  0.00    +0.000 OA
BRANCH  10  13
ATOM     13  O   UNL     1       7.565   6.598  16.776  0.00  0.00    +0.000 OA
ATOM     14  H   UNL     1       8.506   6.779  16.598  0.00  0.00    +0.000 HD
ENDBRANCH  10  13
ENDBRANCH   2  10
BRANCH   1  15
ATOM     15  C   UNL     1       5.215   3.476  15.886  0.00  0.00    +0.000 C 
BRANCH  15  17
ATOM     16  C   UNL     1       6.097   3.998  13.585  0.00  0.00    +0.000 C 
ATOM     17  C   UNL     1       5.499   4.380  14.721  0.00  0.00    +0.000 C 
ENDBRANCH  15  17
ENDBRANCH   1  15
TORSDOF 4
ENDMDL
MODEL 5
REMARK VINA RESULT:      -6.6      1.093      1.309
REMARK  Name = 
REMARK  5 active torsions:
REMARK  status: ('A' for Active; 'I' for Inactive)
REMARK    1  A    between atoms: C_2  and  C_3
REMARK    2  A    between atoms: C_3  and  N_4
REMARK    3  A    between atoms: C_5  and  P_6
REMARK    4  A    between atoms: P_6  and  C_7
REMARK    5  A    between atoms: P_6  and  O_9
REMARK                            x       y       z     vdW  Elec       q    Type
REMARK                         _______ _______ _______ _____ _____    ______ ____
ROOT
ATOM      1  N   UNL     1       4.572   5.279  17.668  0.00  0.00    +0.000 N 
ATOM      2  C   UNL     1       5.496   5.392  18.699  0.00  0.00    +0.000 A 
ATOM      3  N   UNL     1       4.901   5.113  19.852  0.00  0.00    +0.000 NA
ATOM      4  C   UNL     1       3.636   4.696  19.547  0.00  0.00    +0.000 A 
ATOM      5  C   UNL     1       2.646   4.181  20.398  0.00  0.00    +0.000 A 
ATOM      6  C   UNL     1       1.433   3.763  19.844  0.00  0.00    +0.000 A 
ATOM      7  C   UNL     1       1.202   3.878  18.472  0.00  0.00    +0.000 A 
ATOM      8  C   UNL     1       2.174   4.403  17.611  0.00  0.00    +0.000 A 
ATOM      9  C   UNL     1       3.393   4.792  18.183  0.00  0.00    +0.000 A 
ENDROOT
BRANCH   2  10
ATOM     10  P   UNL     1       7.234   5.730  18.702  0.00  0.00    +0.000 P 
ATOM     11  C   UNL     1       8.028   4.408  17.809  0.00  0.00    +0.000 C 
ATOM     12  O   UNL     1       7.579   7.096  18.182  0.00  0.00    +0.000 OA
BRANCH  10  13
ATOM     13  O   UNL     1       7.798   5.571  20.209  0.00  0.00    +0.000 OA
ATOM     14  H   UNL     1       8.685   5.167  20.240  0.00  0.00    +0.000 HD
ENDBRANCH  10  13
ENDBRANCH   2  10
BRANCH   1  15
ATOM     15  C   UNL     1       4.893   5.457  16.258  0.00  0.00    +0.000 C 
BRANCH  15  17
ATOM     16  C   UNL     1       6.126   4.054  14.569  0.00  0.00    +0.000 C 
ATOM     17  C   UNL     1       5.245   4.169  15.570  0.00  0.00    +0.000 C 
ENDBRANCH  15  17
ENDBRANCH   1  15
TORSDOF 4
ENDMDL
MODEL 6
REMARK VINA RESULT:      -6.5      1.960      2.756
REMARK  Name = 
REMARK  5 active torsions:
REMARK  status: ('A' for Active; 'I' for Inactive)
REMARK    1  A    between atoms: C_2  and  C_3
REMARK    2  A    between atoms: C_3  and  N_4
REMARK    3  A    between atoms: C_5  and  P_6
REMARK    4  A    between atoms: P_6  and  C_7
REMARK    5  A    between atoms: P_6  and  O_9
REMARK                            x       y       z     vdW  Elec       q    Type
REMARK                         _______ _______ _______ _____ _____    ______ ____
ROOT
ATOM      1  N   UNL     1       3.992   5.321  18.446  0.00  0.00    +0.000 N 
ATOM      2  C   UNL     1       5.226   4.687  18.394  0.00  0.00    +0.000 A 
ATOM      3  N   UNL     1       5.236   3.677  19.255  0.00  0.00    +0.000 NA
ATOM      4  C   UNL     1       3.970   3.584  19.761  0.00  0.00    +0.000 A 
ATOM      5  C   UNL     1       3.431   2.615  20.621  0.00  0.00    +0.000 A 
ATOM      6  C   UNL     1       2.078   2.695  20.963  0.00  0.00    +0.000 A 
ATOM      7  C   UNL     1       1.284   3.735  20.476  0.00  0.00    +0.000 A 
ATOM      8  C   UNL     1       1.810   4.719  19.629  0.00  0.00    +0.000 A 
ATOM      9  C   UNL     1       3.162   4.605  19.278  0.00  0.00    +0.000 A 
ENDROOT
BRANCH   2  10
ATOM     10  P   UNL     1       6.645   4.937  17.365  0.00  0.00    +0.000 P 
ATOM     11  C   UNL     1       6.286   4.198  15.784  0.00  0.00    +0.000 C 
ATOM     12  O   UNL     1       7.071   6.374  17.272  0.00  0.00    +0.000 OA
BRANCH  10  13
ATOM     13  O   UNL     1       7.872   4.049  17.935  0.00  0.00    +0.000 OA
ATOM     14  H   UNL     1       8.595   3.946  17.290  0.00  0.00    +0.000 HD
ENDBRANCH  10  13
ENDBRANCH   2  10
BRANCH   1  15
ATOM     15  C   UNL     1       3.608   6.436  17.590  0.00  0.00    +0.000 C 
BRANCH  15  17
ATOM     16  C   UNL     1       2.304   8.585  17.757  0.00  0.00    +0.000 C 
ATOM     17  C   UNL     1       2.869   7.514  18.331  0.00  0.00    +0.000 C 
ENDBRANCH  15  17
ENDBRANCH   1  15
TORSDOF 4
ENDMDL
MODEL 7
REMARK VINA RESULT:      -6.5      2.199      3.355
REMARK  Name = 
REMARK  5 active torsions:
REMARK  status: ('A' for Active; 'I' for Inactive)
REMARK    1  A    between atoms: C_2  and  C_3
REMARK    2  A    between atoms: C_3  and  N_4
REMARK    3  A    between atoms: C_5  and  P_6
REMARK    4  A    between atoms: P_6  and  C_7
REMARK    5  A    between atoms: P_6  and  O_9
REMARK                            x       y       z     vdW  Elec       q    Type
REMARK                         _______ _______ _______ _____ _____    ______ ____
ROOT
ATOM      1  N   UNL     1       3.942   5.321  17.973  0.00  0.00    +0.000 N 
ATOM      2  C   UNL     1       4.652   4.691  16.959  0.00  0.00    +0.000 A 
ATOM      3  N   UNL     1       4.240   3.433  16.853  0.00  0.00    +0.000 NA
ATOM      4  C   UNL     1       3.181   3.297  17.705  0.00  0.00    +0.000 A 
ATOM      5  C   UNL     1       2.325   2.199  17.882  0.00  0.00    +0.000 A 
ATOM      6  C   UNL     1       1.262   2.312  18.783  0.00  0.00    +0.000 A 
ATOM      7  C   UNL     1       1.071   3.487  19.511  0.00  0.00    +0.000 A 
ATOM      8  C   UNL     1       1.924   4.587  19.357  0.00  0.00    +0.000 A 
ATOM      9  C   UNL     1       2.968   4.463  18.430  0.00  0.00    +0.000 A 
ENDROOT
BRANCH   2  10
ATOM     10  P   UNL     1       5.860   5.287  15.811  0.00  0.00    +0.000 P 
ATOM     11  C   UNL     1       6.174   3.975  14.649  0.00  0.00    +0.000 C 
ATOM     12  O   UNL     1       5.478   6.586  15.160  0.00  0.00    +0.000 OA
BRANCH  10  13
ATOM     13  O   UNL     1       7.272   5.467  16.579  0.00  0.00    +0.000 OA
ATOM     14  H   UNL     1       7.253   6.180  17.244  0.00  0.00    +0.000 HD
ENDBRANCH  10  13
ENDBRANCH   2  10
BRANCH   1  15
ATOM     15  C   UNL     1       4.092   6.726  18.326  0.00  0.00    +0.000 C 
BRANCH  15  17
ATOM     16  C   UNL     1       2.120   8.287  18.169  0.00  0.00    +0.000 C 
ATOM     17  C   UNL     1       3.131   7.620  17.595  0.00  0.00    +0.000 C 
ENDBRANCH  15  17
ENDBRANCH   1  15
TORSDOF 4
ENDMDL
MODEL 8
REMARK VINA RESULT:      -6.5      2.764      4.860
REMARK  Name = 
REMARK  5 active torsions:
REMARK  status: ('A' for Active; 'I' for Inactive)
REMARK    1  A    between atoms: C_2  and  C_3
REMARK    2  A    between atoms: C_3  and  N_4
REMARK    3  A    between atoms: C_5  and  P_6
REMARK    4  A    between atoms: P_6  and  C_7
REMARK    5  A    between atoms: P_6  and  O_9
REMARK                            x       y       z     vdW  Elec       q    Type
REMARK                         _______ _______ _______ _____ _____    ______ ____
ROOT
ATOM      1  N   UNL     1       4.669   4.992  18.019  0.00  0.00    +0.000 N 
ATOM      2  C   UNL     1       5.023   4.008  18.933  0.00  0.00    +0.000 A 
ATOM      3  N   UNL     1       6.284   4.191  19.306  0.00  0.00    +0.000 NA
ATOM      4  C   UNL     1       6.694   5.363  18.734  0.00  0.00    +0.000 A 
ATOM      5  C   UNL     1       7.902   6.054  18.907  0.00  0.00    +0.000 A 
ATOM      6  C   UNL     1       8.077   7.277  18.253  0.00  0.00    +0.000 A 
ATOM      7  C   UNL     1       7.077   7.788  17.424  0.00  0.00    +0.000 A 
ATOM      8  C   UNL     1       5.871   7.103  17.228  0.00  0.00    +0.000 A 
ATOM      9  C   UNL     1       5.706   5.892  17.913  0.00  0.00    +0.000 A 
ENDROOT
BRANCH   2  10
ATOM     10  P   UNL     1       4.094   2.707  19.692  0.00  0.00    +0.000 P 
ATOM     11  C   UNL     1       3.342   1.763  18.382  0.00  0.00    +0.000 C 
ATOM     12  O   UNL     1       4.901   1.872  20.645  0.00  0.00    +0.000 OA
BRANCH  10  13
ATOM     13  O   UNL     1       2.833   3.349  20.476  0.00  0.00    +0.000 OA
ATOM     14  H   UNL     1       2.795   4.320  20.401  0.00  0.00    +0.000 HD
ENDBRANCH  10  13
ENDBRANCH   2  10
BRANCH   1  15
ATOM     15  C   UNL     1       3.338   5.135  17.444  0.00  0.00    +0.000 C 
BRANCH  15  17
ATOM     16  C   UNL     1       2.352   7.351  18.124  0.00  0.00    +0.000 C 
ATOM     17  C   UNL     1       2.439   6.021  18.258  0.00  0.00    +0.000 C 
ENDBRANCH  15  17
ENDBRANCH   1  15
TORSDOF 4
ENDMDL
MODEL 9
REMARK VINA RESULT:      -6.5      1.979      2.646
REMARK  Name = 
REMARK  5 active torsions:
REMARK  status: ('A' for Active; 'I' for Inactive)
REMARK    1  A    between atoms: C_2  and  C_3
REMARK    2  A    between atoms: C_3  and  N_4
REMARK    3  A    between atoms: C_5  and  P_6
REMARK    4  A    between atoms: P_6  and  C_7
REMARK    5  A    between atoms: P_6  and  O_9
REMARK                            x       y       z     vdW  Elec       q    Type
REMARK                         _______ _______ _______ _____ _____    ______ ____
ROOT
ATOM      1  N   UNL     1       4.059   5.410  18.293  0.00  0.00    +0.000 N 
ATOM      2  C   UNL     1       5.286   4.952  18.755  0.00  0.00    +0.000 A 
ATOM      3  N   UNL     1       5.121   3.772  19.340  0.00  0.00    +0.000 NA
ATOM      4  C   UNL     1       3.817   3.416  19.138  0.00  0.00    +0.000 A 
ATOM      5  C   UNL     1       3.170   2.213  19.460  0.00  0.00    +0.000 A 
ATOM      6  C   UNL     1       1.828   2.055  19.102  0.00  0.00    +0.000 A 
ATOM      7  C   UNL     1       1.138   3.084  18.459  0.00  0.00    +0.000 A 
ATOM      8  C   UNL     1       1.765   4.296  18.144  0.00  0.00    +0.000 A 
ATOM      9  C   UNL     1       3.118   4.425  18.488  0.00  0.00    +0.000 A 
ENDROOT
BRANCH   2  10
ATOM     10  P   UNL     1       6.926   5.603  18.608  0.00  0.00    +0.000 P 
ATOM     11  C   UNL     1       7.863   4.452  17.623  0.00  0.00    +0.000 C 
ATOM     12  O   UNL     1       6.967   7.010  18.086  0.00  0.00    +0.000 OA
BRANCH  10  13
ATOM     13  O   UNL     1       7.646   5.546  20.056  0.00  0.00    +0.000 OA
ATOM     14  H   UNL     1       7.801   4.635  20.365  0.00  0.00    +0.000 HD
ENDBRANCH  10  13
ENDBRANCH   2  10
BRANCH   1  15
ATOM     15  C   UNL     1       3.875   6.647  17.546  0.00  0.00    +0.000 C 
BRANCH  15  17
ATOM     16  C   UNL     1       2.090   8.416  17.718  0.00  0.00    +0.000 C 
ATOM     17  C   UNL     1       3.038   7.656  18.281  0.00  0.00    +0.000 C 
ENDBRANCH  15  17
ENDBRANCH   1  15
TORSDOF 4
ENDMDL
