MODEL 1
REMARK VINA RESULT:      -8.7      0.000      0.000
REMARK  Name = 
REMARK  8 active torsions:
REMARK  status: ('A' for Active; 'I' for Inactive)
REMARK    1  A    between atoms: C_1  and  O_2
REMARK    2  A    between atoms: O_2  and  C_3
REMARK    3  A    between atoms: C_3  and  C_4
REMARK    4  A    between atoms: C_9  and  C_10
REMARK    5  A    between atoms: C_12  and  C_13
REMARK    6  A    between atoms: C_16  and  C_17
REMARK    7  A    between atoms: C_18  and  N_19
REMARK    8  A    between atoms: C_20  and  C_22
REMARK                            x       y       z     vdW  Elec       q    Type
REMARK                         _______ _______ _______ _____ _____    ______ ____
ROOT
ATOM      1  C   UNL     1       1.300   8.775  20.136  0.00  0.00    +0.000 A 
ATOM      2  C   UNL     1       0.689   8.210  21.252  0.00  0.00    +0.000 A 
ATOM      3  C   UNL     1      -0.106   8.990  22.078  0.00  0.00    +0.000 A 
ATOM      4  C   UNL     1      -0.325  10.360  21.823  0.00  0.00    +0.000 A 
ATOM      5  C   UNL     1      -1.153  11.064  22.862  0.00  0.00    +0.000 C 
ATOM      6  C   UNL     1       0.259  10.952  20.684  0.00  0.00    +0.000 A 
ATOM      7  C   UNL     1       1.091  10.146  19.872  0.00  0.00    +0.000 A 
ENDROOT
BRANCH   1  10
ATOM      8  C   UNL     1       3.321   6.324  18.647  0.00  0.00    +0.000 A 
ATOM      9  N   UNL     1       2.745   6.793  19.728  0.00  0.00    +0.000 NA
ATOM     10  C   UNL     1       2.140   7.943  19.280  0.00  0.00    +0.000 A 
ATOM     11  N   UNL     1       2.373   8.200  17.981  0.00  0.00    +0.000 NA
ATOM     12  O   UNL     1       3.160   7.133  17.562  0.00  0.00    +0.000 OA
BRANCH   8  15
ATOM     13  C   UNL     1       2.654   3.239  18.480  0.00  0.00    +0.000 C 
ATOM     14  C   UNL     1       3.512   3.928  19.589  0.00  0.00    +0.000 C 
ATOM     15  C   UNL     1       4.022   4.978  18.582  0.00  0.00    +0.000 C 
ATOM     16  C   UNL     1       3.462   4.086  17.446  0.00  0.00    +0.000 C 
BRANCH  13  17
ATOM     17  C   UNL     1       1.142   3.585  18.538  0.00  0.00    +0.000 C 
ATOM     18  F   UNL     1       0.825   4.215  19.699  0.00  0.00    +0.000 F 
ATOM     19  F   UNL     1       0.770   4.417  17.533  0.00  0.00    +0.000 F 
ATOM     20  F   UNL     1       0.358   2.481  18.479  0.00  0.00    +0.000 F 
ENDBRANCH  13  17
BRANCH  13  22
ATOM     21  C   UNL     1       4.060   1.158  18.588  0.00  0.00    +0.000 C 
ATOM     22  O   UNL     1       2.806   1.784  18.384  0.00  0.00    +0.000 OA
ENDBRANCH  13  22
ENDBRANCH   8  15
ENDBRANCH   1  10
BRANCH   6  23
ATOM     23  N   UNL     1       0.150  12.319  20.271  0.00  0.00    +0.000 N 
ATOM     24  C   UNL     1       0.903  13.412  20.687  0.00  0.00    +0.000 C 
ATOM     25  O   UNL     1       1.709  13.375  21.603  0.00  0.00    +0.000 OA
ATOM     26  H   UNL     1      -0.683  12.541  19.750  0.00  0.00    +0.000 HD
BRANCH  24  27
ATOM     27  C   UNL     1       0.640  14.663  19.991  0.00  0.00    +0.000 A 
ATOM     28  C   UNL     1      -0.510  15.432  19.904  0.00  0.00    +0.000 A 
ATOM     29  N   UNL     1      -0.357  16.504  19.064  0.00  0.00    +0.000 NA
ATOM     30  C   UNL     1       0.870  16.410  18.607  0.00  0.00    +0.000 A 
ATOM     31  C   UNL     1       1.571  17.210  17.652  0.00  0.00    +0.000 A 
ATOM     32  C   UNL     1       2.851  16.927  17.346  0.00  0.00    +0.000 A 
ATOM     33  C   UNL     1       3.553  15.830  17.988  0.00  0.00    +0.000 A 
ATOM     34  C   UNL     1       2.895  15.063  18.874  0.00  0.00    +0.000 A 
ATOM     35  N   UNL     1       1.550  15.330  19.169  0.00  0.00    +0.000 N 
ENDBRANCH  24  27
ENDBRANCH   6  23
TORSDOF 6
ENDMDL
MODEL 2
REMARK VINA RESULT:      -8.6      1.374      2.186
REMARK  Name = 
REMARK  8 active torsions:
REMARK  status: ('A' for Active; 'I' for Inactive)
REMARK    1  A    between atoms: C_1  and  O_2
REMARK    2  A    between atoms: O_2  and  C_3
REMARK    3  A    between atoms: C_3  and  C_4
REMARK    4  A    between atoms: C_9  and  C_10
REMARK    5  A    between atoms: C_12  and  C_13
REMARK    6  A    between atoms: C_16  and  C_17
REMARK    7  A    between atoms: C_18  and  N_19
REMARK    8  A    between atoms: C_20  and  C_22
REMARK                            x       y       z     vdW  Elec       q    Type
REMARK                         _______ _______ _______ _____ _____    ______ ____
ROOT
ATOM      1  C   UNL     1       0.732   9.239  21.133  0.00  0.00    +0.000 A 
ATOM      2  C   UNL     1      -0.139   9.186  22.218  0.00  0.00    +0.000 A 
ATOM      3  C   UNL     1      -0.756  10.341  22.671  0.00  0.00    +0.000 A 
ATOM      4  C   UNL     1      -0.533  11.593  22.061  0.00  0.00    +0.000 A 
ATOM      5  C   UNL     1      -1.228  12.747  22.729  0.00  0.00    +0.000 C 
ATOM      6  C   UNL     1       0.322  11.672  20.942  0.00  0.00    +0.000 A 
ATOM      7  C   UNL     1       0.965  10.487  20.515  0.00  0.00    +0.000 A 
ENDROOT
BRANCH   1  10
ATOM      8  C   UNL     1       1.909   5.985  20.557  0.00  0.00    +0.000 A 
ATOM      9  N   UNL     1       1.255   6.817  21.332  0.00  0.00    +0.000 NA
ATOM     10  C   UNL     1       1.380   8.016  20.672  0.00  0.00    +0.000 A 
ATOM     11  N   UNL     1       2.124   7.937  19.555  0.00  0.00    +0.000 NA
ATOM     12  O   UNL     1       2.481   6.596  19.481  0.00  0.00    +0.000 OA
BRANCH   8  15
ATOM     13  C   UNL     1       2.242   3.291  18.938  0.00  0.00    +0.000 C 
ATOM     14  C   UNL     1       1.037   3.657  19.862  0.00  0.00    +0.000 C 
ATOM     15  C   UNL     1       1.957   4.484  20.783  0.00  0.00    +0.000 C 
ATOM     16  C   UNL     1       3.169   3.828  20.075  0.00  0.00    +0.000 C 
BRANCH  13  17
ATOM     17  C   UNL     1       2.309   4.114  17.624  0.00  0.00    +0.000 C 
ATOM     18  F   UNL     1       3.427   4.885  17.580  0.00  0.00    +0.000 F 
ATOM     19  F   UNL     1       2.345   3.319  16.524  0.00  0.00    +0.000 F 
ATOM     20  F   UNL     1       1.259   4.961  17.493  0.00  0.00    +0.000 F 
ENDBRANCH  13  17
BRANCH  13  22
ATOM     21  C   UNL     1       3.644   1.269  18.424  0.00  0.00    +0.000 C 
ATOM     22  O   UNL     1       2.375   1.867  18.615  0.00  0.00    +0.000 OA
ENDBRANCH  13  22
ENDBRANCH   8  15
ENDBRANCH   1  10
BRANCH   6  23
ATOM     23  N   UNL     1       0.666  12.849  20.202  0.00  0.00    +0.000 N 
ATOM     24  C   UNL     1       1.497  13.898  20.580  0.00  0.00    +0.000 C 
ATOM     25  O   UNL     1       1.963  14.029  21.701  0.00  0.00    +0.000 OA
ATOM     26  H   UNL     1       0.102  13.017  19.384  0.00  0.00    +0.000 HD
BRANCH  24  27
ATOM     27  C   UNL     1       1.756  14.901  19.557  0.00  0.00    +0.000 A 
ATOM     28  C   UNL     1       2.906  15.193  18.841  0.00  0.00    +0.000 A 
ATOM     29  N   UNL     1       2.748  16.285  18.026  0.00  0.00    +0.000 NA
ATOM     30  C   UNL     1       1.518  16.694  18.235  0.00  0.00    +0.000 A 
ATOM     31  C   UNL     1       0.812  17.821  17.712  0.00  0.00    +0.000 A 
ATOM     32  C   UNL     1      -0.470  18.034  18.063  0.00  0.00    +0.000 A 
ATOM     33  C   UNL     1      -1.169  17.122  18.950  0.00  0.00    +0.000 A 
ATOM     34  C   UNL     1      -0.506  16.070  19.459  0.00  0.00    +0.000 A 
ATOM     35  N   UNL     1       0.841  15.863  19.127  0.00  0.00    +0.000 N 
ENDBRANCH  24  27
ENDBRANCH   6  23
TORSDOF 6
ENDMDL
MODEL 3
REMARK VINA RESULT:      -8.4      0.907      1.115
REMARK  Name = 
REMARK  8 active torsions:
REMARK  status: ('A' for Active; 'I' for Inactive)
REMARK    1  A    between atoms: C_1  and  O_2
REMARK    2  A    between atoms: O_2  and  C_3
REMARK    3  A    between atoms: C_3  and  C_4
REMARK    4  A    between atoms: C_9  and  C_10
REMARK    5  A    between atoms: C_12  and  C_13
REMARK    6  A    between atoms: C_16  and  C_17
REMARK    7  A    between atoms: C_18  and  N_19
REMARK    8  A    between atoms: C_20  and  C_22
REMARK                            x       y       z     vdW  Elec       q    Type
REMARK                         _______ _______ _______ _____ _____    ______ ____
ROOT
ATOM      1  C   UNL     1       1.301   8.716  20.194  0.00  0.00    +0.000 A 
ATOM      2  C   UNL     1       0.606   8.101  21.233  0.00  0.00    +0.000 A 
ATOM      3  C   UNL     1      -0.188   8.857  22.081  0.00  0.00    +0.000 A 
ATOM      4  C   UNL     1      -0.325  10.252  21.925  0.00  0.00    +0.000 A 
ATOM      5  C   UNL     1      -1.168  10.918  22.978  0.00  0.00    +0.000 C 
ATOM      6  C   UNL     1       0.344  10.898  20.865  0.00  0.00    +0.000 A 
ATOM      7  C   UNL     1       1.174  10.112  20.031  0.00  0.00    +0.000 A 
ENDROOT
BRANCH   1  10
ATOM      8  C   UNL     1       3.323   6.310  18.637  0.00  0.00    +0.000 A 
ATOM      9  N   UNL     1       2.751   6.750  19.732  0.00  0.00    +0.000 NA
ATOM     10  C   UNL     1       2.140   7.908  19.315  0.00  0.00    +0.000 A 
ATOM     11  N   UNL     1       2.365   8.197  18.021  0.00  0.00    +0.000 NA
ATOM     12  O   UNL     1       3.154   7.144  17.573  0.00  0.00    +0.000 OA
BRANCH   8  15
ATOM     13  C   UNL     1       2.667   3.226  18.413  0.00  0.00    +0.000 C 
ATOM     14  C   UNL     1       3.534   3.895  19.528  0.00  0.00    +0.000 C 
ATOM     15  C   UNL     1       4.029   4.969  18.537  0.00  0.00    +0.000 C 
ATOM     16  C   UNL     1       3.461   4.097  17.389  0.00  0.00    +0.000 C 
BRANCH  13  17
ATOM     17  C   UNL     1       1.155   3.564  18.495  0.00  0.00    +0.000 C 
ATOM     18  F   UNL     1       0.393   2.441  18.424  0.00  0.00    +0.000 F 
ATOM     19  F   UNL     1       0.831   4.176  19.662  0.00  0.00    +0.000 F 
ATOM     20  F   UNL     1       0.750   4.363  17.478  0.00  0.00    +0.000 F 
ENDBRANCH  13  17
BRANCH  13  22
ATOM     21  C   UNL     1       4.018   1.123  18.682  0.00  0.00    +0.000 C 
ATOM     22  O   UNL     1       2.824   1.774  18.285  0.00  0.00    +0.000 OA
ENDBRANCH  13  22
ENDBRANCH   8  15
ENDBRANCH   1  10
BRANCH   6  23
ATOM     23  N   UNL     1       0.324  12.296  20.558  0.00  0.00    +0.000 N 
ATOM     24  C   UNL     1      -0.479  12.971  19.644  0.00  0.00    +0.000 C 
ATOM     25  O   UNL     1      -1.220  12.416  18.848  0.00  0.00    +0.000 OA
ATOM     26  H   UNL     1       1.103  12.822  20.920  0.00  0.00    +0.000 HD
BRANCH  24  27
ATOM     27  C   UNL     1      -0.356  14.421  19.644  0.00  0.00    +0.000 A 
ATOM     28  C   UNL     1      -1.231  15.409  20.070  0.00  0.00    +0.000 A 
ATOM     29  N   UNL     1      -0.760  16.669  19.808  0.00  0.00    +0.000 NA
ATOM     30  C   UNL     1       0.393  16.487  19.206  0.00  0.00    +0.000 A 
ATOM     31  C   UNL     1       1.309  17.431  18.648  0.00  0.00    +0.000 A 
ATOM     32  C   UNL     1       2.456  17.004  18.085  0.00  0.00    +0.000 A 
ATOM     33  C   UNL     1       2.798  15.594  18.053  0.00  0.00    +0.000 A 
ATOM     34  C   UNL     1       1.933  14.700  18.560  0.00  0.00    +0.000 A 
ATOM     35  N   UNL     1       0.720  15.135  19.115  0.00  0.00    +0.000 N 
ENDBRANCH  24  27
ENDBRANCH   6  23
TORSDOF 6
ENDMDL
MODEL 4
REMARK VINA RESULT:      -8.4      2.292      2.716
REMARK  Name = 
REMARK  8 active torsions:
REMARK  status: ('A' for Active; 'I' for Inactive)
REMARK    1  A    between atoms: C_1  and  O_2
REMARK    2  A    between atoms: O_2  and  C_3
REMARK    3  A    between atoms: C_3  and  C_4
REMARK    4  A    between atoms: C_9  and  C_10
REMARK    5  A    between atoms: C_12  and  C_13
REMARK    6  A    between atoms: C_16  and  C_17
REMARK    7  A    between atoms: C_18  and  N_19
REMARK    8  A    between atoms: C_20  and  C_22
REMARK                            x       y       z     vdW  Elec       q    Type
REMARK                         _______ _______ _______ _____ _____    ______ ____
ROOT
ATOM      1  C   UNL     1       0.984   9.233  20.230  0.00  0.00    +0.000 A 
ATOM      2  C   UNL     1       0.415   8.694  21.380  0.00  0.00    +0.000 A 
ATOM      3  C   UNL     1      -0.319   9.501  22.236  0.00  0.00    +0.000 A 
ATOM      4  C   UNL     1      -0.518  10.873  21.978  0.00  0.00    +0.000 A 
ATOM      5  C   UNL     1      -1.277  11.607  23.049  0.00  0.00    +0.000 C 
ATOM      6  C   UNL     1       0.023  11.440  20.805  0.00  0.00    +0.000 A 
ATOM      7  C   UNL     1       0.794  10.606  19.962  0.00  0.00    +0.000 A 
ENDROOT
BRANCH   1  10
ATOM      8  C   UNL     1       2.833   6.702  18.655  0.00  0.00    +0.000 A 
ATOM      9  N   UNL     1       2.300   7.178  19.755  0.00  0.00    +0.000 NA
ATOM     10  C   UNL     1       1.761   8.373  19.343  0.00  0.00    +0.000 A 
ATOM     11  N   UNL     1       1.991   8.647  18.047  0.00  0.00    +0.000 NA
ATOM     12  O   UNL     1       2.707   7.545  17.592  0.00  0.00    +0.000 OA
BRANCH   8  15
ATOM     13  C   UNL     1       5.352   5.250  17.415  0.00  0.00    +0.000 C 
ATOM     14  C   UNL     1       3.859   4.893  17.124  0.00  0.00    +0.000 C 
ATOM     15  C   UNL     1       3.450   5.318  18.549  0.00  0.00    +0.000 C 
ATOM     16  C   UNL     1       4.953   5.323  18.924  0.00  0.00    +0.000 C 
BRANCH  13  17
ATOM     17  C   UNL     1       5.811   6.606  16.815  0.00  0.00    +0.000 C 
ATOM     18  F   UNL     1       5.147   6.886  15.664  0.00  0.00    +0.000 F 
ATOM     19  F   UNL     1       5.575   7.643  17.658  0.00  0.00    +0.000 F 
ATOM     20  F   UNL     1       7.130   6.612  16.504  0.00  0.00    +0.000 F 
ENDBRANCH  13  17
BRANCH  13  22
ATOM     21  C   UNL     1       6.494   3.798  15.710  0.00  0.00    +0.000 C 
ATOM     22  O   UNL     1       6.326   4.215  17.053  0.00  0.00    +0.000 OA
ENDBRANCH  13  22
ENDBRANCH   8  15
ENDBRANCH   1  10
BRANCH   6  23
ATOM     23  N   UNL     1      -0.074  12.805  20.384  0.00  0.00    +0.000 N 
ATOM     24  C   UNL     1       0.678  13.897  20.806  0.00  0.00    +0.000 C 
ATOM     25  O   UNL     1       1.470  13.862  21.735  0.00  0.00    +0.000 OA
ATOM     26  H   UNL     1      -0.897  13.028  19.848  0.00  0.00    +0.000 HD
BRANCH  24  27
ATOM     27  C   UNL     1       0.432  15.145  20.099  0.00  0.00    +0.000 A 
ATOM     28  C   UNL     1      -0.669  15.989  20.098  0.00  0.00    +0.000 A 
ATOM     29  N   UNL     1      -0.527  17.028  19.215  0.00  0.00    +0.000 NA
ATOM     30  C   UNL     1       0.640  16.838  18.646  0.00  0.00    +0.000 A 
ATOM     31  C   UNL     1       1.296  17.564  17.604  0.00  0.00    +0.000 A 
ATOM     32  C   UNL     1       2.519  17.187  17.186  0.00  0.00    +0.000 A 
ATOM     33  C   UNL     1       3.206  16.061  17.792  0.00  0.00    +0.000 A 
ATOM     34  C   UNL     1       2.588  15.363  18.760  0.00  0.00    +0.000 A 
ATOM     35  N   UNL     1       1.299  15.728  19.174  0.00  0.00    +0.000 N 
ENDBRANCH  24  27
ENDBRANCH   6  23
TORSDOF 6
ENDMDL
MODEL 5
REMARK VINA RESULT:      -8.4      1.062      2.277
REMARK  Name = 
REMARK  8 active torsions:
REMARK  status: ('A' for Active; 'I' for Inactive)
REMARK    1  A    between atoms: C_1  and  O_2
REMARK    2  A    between atoms: O_2  and  C_3
REMARK    3  A    between atoms: C_3  and  C_4
REMARK    4  A    between atoms: C_9  and  C_10
REMARK    5  A    between atoms: C_12  and  C_13
REMARK    6  A    between atoms: C_16  and  C_17
REMARK    7  A    between atoms: C_18  and  N_19
REMARK    8  A    between atoms: C_20  and  C_22
REMARK                            x       y       z     vdW  Elec       q    Type
REMARK                         _______ _______ _______ _____ _____    ______ ____
ROOT
ATOM      1  C   UNL     1       1.405   8.723  19.993  0.00  0.00    +0.000 A 
ATOM      2  C   UNL     1       0.935   8.121  21.157  0.00  0.00    +0.000 A 
ATOM      3  C   UNL     1       0.136   8.836  22.036  0.00  0.00    +0.000 A 
ATOM      4  C   UNL     1      -0.230  10.175  21.787  0.00  0.00    +0.000 A 
ATOM      5  C   UNL     1      -1.040  10.815  22.881  0.00  0.00    +0.000 C 
ATOM      6  C   UNL     1       0.208  10.802  20.603  0.00  0.00    +0.000 A 
ATOM      7  C   UNL     1       1.048  10.065  19.735  0.00  0.00    +0.000 A 
ENDROOT
BRANCH   1  10
ATOM      8  C   UNL     1       3.447   6.400  18.338  0.00  0.00    +0.000 A 
ATOM      9  N   UNL     1       2.866   6.787  19.449  0.00  0.00    +0.000 NA
ATOM     10  C   UNL     1       2.253   7.961  19.083  0.00  0.00    +0.000 A 
ATOM     11  N   UNL     1       2.486   8.311  17.806  0.00  0.00    +0.000 NA
ATOM     12  O   UNL     1       3.282   7.283  17.314  0.00  0.00    +0.000 OA
BRANCH   8  15
ATOM     13  C   UNL     1       2.811   3.309  18.160  0.00  0.00    +0.000 C 
ATOM     14  C   UNL     1       3.755   3.987  19.204  0.00  0.00    +0.000 C 
ATOM     15  C   UNL     1       4.158   5.068  18.180  0.00  0.00    +0.000 C 
ATOM     16  C   UNL     1       3.511   4.191  17.078  0.00  0.00    +0.000 C 
BRANCH  13  17
ATOM     17  C   UNL     1       1.306   3.629  18.361  0.00  0.00    +0.000 C 
ATOM     18  F   UNL     1       0.850   4.479  17.405  0.00  0.00    +0.000 F 
ATOM     19  F   UNL     1       0.532   2.516  18.289  0.00  0.00    +0.000 F 
ATOM     20  F   UNL     1       1.062   4.231  19.551  0.00  0.00    +0.000 F 
ENDBRANCH  13  17
BRANCH  13  22
ATOM     21  C   UNL     1       3.853   1.129  18.853  0.00  0.00    +0.000 C 
ATOM     22  O   UNL     1       2.974   1.859  18.016  0.00  0.00    +0.000 OA
ENDBRANCH  13  22
ENDBRANCH   8  15
ENDBRANCH   1  10
BRANCH   6  23
ATOM     23  N   UNL     1      -0.060  12.147  20.188  0.00  0.00    +0.000 N 
ATOM     24  C   UNL     1       0.521  13.326  20.644  0.00  0.00    +0.000 C 
ATOM     25  O   UNL     1       1.279  13.387  21.599  0.00  0.00    +0.000 OA
ATOM     26  H   UNL     1      -0.889  12.261  19.627  0.00  0.00    +0.000 HD
BRANCH  24  27
ATOM     27  C   UNL     1       0.130  14.537  19.939  0.00  0.00    +0.000 A 
ATOM     28  C   UNL     1       0.793  15.284  18.977  0.00  0.00    +0.000 A 
ATOM     29  N   UNL     1       0.104  16.418  18.633  0.00  0.00    +0.000 NA
ATOM     30  C   UNL     1      -0.977  16.403  19.378  0.00  0.00    +0.000 A 
ATOM     31  C   UNL     1      -2.036  17.355  19.499  0.00  0.00    +0.000 A 
ATOM     32  C   UNL     1      -3.066  17.113  20.333  0.00  0.00    +0.000 A 
ATOM     33  C   UNL     1      -3.139  15.885  21.102  0.00  0.00    +0.000 A 
ATOM     34  C   UNL     1      -2.138  14.994  21.006  0.00  0.00    +0.000 A 
ATOM     35  N   UNL     1      -1.044  15.256  20.168  0.00  0.00    +0.000 N 
ENDBRANCH  24  27
ENDBRANCH   6  23
TORSDOF 6
ENDMDL
MODEL 6
REMARK VINA RESULT:      -8.3      6.717      7.989
REMARK  Name = 
REMARK  8 active torsions:
REMARK  status: ('A' for Active; 'I' for Inactive)
REMARK    1  A    between atoms: C_1  and  O_2
REMARK    2  A    between atoms: O_2  and  C_3
REMARK    3  A    between atoms: C_3  and  C_4
REMARK    4  A    between atoms: C_9  and  C_10
REMARK    5  A    between atoms: C_12  and  C_13
REMARK    6  A    between atoms: C_16  and  C_17
REMARK    7  A    between atoms: C_18  and  N_19
REMARK    8  A    between atoms: C_20  and  C_22
REMARK                            x       y       z     vdW  Elec       q    Type
REMARK                         _______ _______ _______ _____ _____    ______ ____
ROOT
ATOM      1  C   UNL     1       9.120  10.115  18.836  0.00  0.00    +0.000 A 
ATOM      2  C   UNL     1       9.925  10.905  18.020  0.00  0.00    +0.000 A 
ATOM      3  C   UNL     1      10.510  12.057  18.524  0.00  0.00    +0.000 A 
ATOM      4  C   UNL     1      10.319  12.464  19.861  0.00  0.00    +0.000 A 
ATOM      5  C   UNL     1      10.968  13.774  20.214  0.00  0.00    +0.000 C 
ATOM      6  C   UNL     1       9.531  11.669  20.719  0.00  0.00    +0.000 A 
ATOM      7  C   UNL     1       8.919  10.514  20.175  0.00  0.00    +0.000 A 
ENDROOT
BRANCH   1  10
ATOM      8  C   UNL     1       7.852   6.919  18.145  0.00  0.00    +0.000 A 
ATOM      9  N   UNL     1       8.592   7.687  18.908  0.00  0.00    +0.000 NA
ATOM     10  C   UNL     1       8.505   8.911  18.289  0.00  0.00    +0.000 A 
ATOM     11  N   UNL     1       7.776   8.889  17.160  0.00  0.00    +0.000 NA
ATOM     12  O   UNL     1       7.349   7.570  17.059  0.00  0.00    +0.000 OA
BRANCH   8  15
ATOM     13  C   UNL     1       5.454   4.869  17.935  0.00  0.00    +0.000 C 
ATOM     14  C   UNL     1       6.195   5.275  19.250  0.00  0.00    +0.000 C 
ATOM     15  C   UNL     1       7.515   5.476  18.478  0.00  0.00    +0.000 C 
ATOM     16  C   UNL     1       6.866   4.740  17.279  0.00  0.00    +0.000 C 
BRANCH  13  17
ATOM     17  C   UNL     1       4.574   5.994  17.328  0.00  0.00    +0.000 C 
ATOM     18  F   UNL     1       4.933   6.263  16.046  0.00  0.00    +0.000 F 
ATOM     19  F   UNL     1       3.261   5.655  17.298  0.00  0.00    +0.000 F 
ATOM     20  F   UNL     1       4.689   7.161  18.007  0.00  0.00    +0.000 F 
ENDBRANCH  13  17
BRANCH  13  22
ATOM     21  C   UNL     1       3.973   3.280  19.200  0.00  0.00    +0.000 C 
ATOM     22  O   UNL     1       4.664   3.637  18.016  0.00  0.00    +0.000 OA
ENDBRANCH  13  22
ENDBRANCH   8  15
ENDBRANCH   1  10
BRANCH   6  23
ATOM     23  N   UNL     1       9.228  11.925  22.095  0.00  0.00    +0.000 N 
ATOM     24  C   UNL     1       8.215  12.718  22.625  0.00  0.00    +0.000 C 
ATOM     25  O   UNL     1       7.496  13.443  21.956  0.00  0.00    +0.000 OA
ATOM     26  H   UNL     1       9.937  11.635  22.748  0.00  0.00    +0.000 HD
BRANCH  24  27
ATOM     27  C   UNL     1       8.078  12.683  24.073  0.00  0.00    +0.000 A 
ATOM     28  C   UNL     1       7.540  11.720  24.914  0.00  0.00    +0.000 A 
ATOM     29  N   UNL     1       7.525  12.123  26.224  0.00  0.00    +0.000 NA
ATOM     30  C   UNL     1       8.029  13.335  26.217  0.00  0.00    +0.000 A 
ATOM     31  C   UNL     1       8.207  14.275  27.279  0.00  0.00    +0.000 A 
ATOM     32  C   UNL     1       8.770  15.473  27.031  0.00  0.00    +0.000 A 
ATOM     33  C   UNL     1       9.229  15.827  25.700  0.00  0.00    +0.000 A 
ATOM     34  C   UNL     1       9.049  14.955  24.694  0.00  0.00    +0.000 A 
ATOM     35  N   UNL     1       8.430  13.721  24.938  0.00  0.00    +0.000 N 
ENDBRANCH  24  27
ENDBRANCH   6  23
TORSDOF 6
ENDMDL
MODEL 7
REMARK VINA RESULT:      -8.3      6.445      7.981
REMARK  Name = 
REMARK  8 active torsions:
REMARK  status: ('A' for Active; 'I' for Inactive)
REMARK    1  A    between atoms: C_1  and  O_2
REMARK    2  A    between atoms: O_2  and  C_3
REMARK    3  A    between atoms: C_3  and  C_4
REMARK    4  A    between atoms: C_9  and  C_10
REMARK    5  A    between atoms: C_12  and  C_13
REMARK    6  A    between atoms: C_16  and  C_17
REMARK    7  A    between atoms: C_18  and  N_19
REMARK    8  A    between atoms: C_20  and  C_22
REMARK                            x       y       z     vdW  Elec       q    Type
REMARK                         _______ _______ _______ _____ _____    ______ ____
ROOT
ATOM      1  C   UNL     1       9.203  10.215  18.831  0.00  0.00    +0.000 A 
ATOM      2  C   UNL     1      10.042  10.950  17.998  0.00  0.00    +0.000 A 
ATOM      3  C   UNL     1      10.655  12.101  18.470  0.00  0.00    +0.000 A 
ATOM      4  C   UNL     1      10.460  12.561  19.788  0.00  0.00    +0.000 A 
ATOM      5  C   UNL     1      11.145  13.862  20.104  0.00  0.00    +0.000 C 
ATOM      6  C   UNL     1       9.637  11.821  20.663  0.00  0.00    +0.000 A 
ATOM      7  C   UNL     1       8.997  10.668  20.152  0.00  0.00    +0.000 A 
ENDROOT
BRANCH   1  10
ATOM      8  C   UNL     1       7.861   7.030  18.228  0.00  0.00    +0.000 A 
ATOM      9  N   UNL     1       8.625   7.801  18.965  0.00  0.00    +0.000 NA
ATOM     10  C   UNL     1       8.557   9.011  18.317  0.00  0.00    +0.000 A 
ATOM     11  N   UNL     1       7.817   8.978  17.196  0.00  0.00    +0.000 NA
ATOM     12  O   UNL     1       7.362   7.666  17.131  0.00  0.00    +0.000 OA
BRANCH   8  15
ATOM     13  C   UNL     1       5.427   5.020  18.067  0.00  0.00    +0.000 C 
ATOM     14  C   UNL     1       6.174   5.447  19.372  0.00  0.00    +0.000 C 
ATOM     15  C   UNL     1       7.498   5.603  18.598  0.00  0.00    +0.000 C 
ATOM     16  C   UNL     1       6.837   4.847  17.417  0.00  0.00    +0.000 C 
BRANCH  13  17
ATOM     17  C   UNL     1       4.569   6.144  17.429  0.00  0.00    +0.000 C 
ATOM     18  F   UNL     1       4.834   6.275  16.103  0.00  0.00    +0.000 F 
ATOM     19  F   UNL     1       3.239   5.893  17.533  0.00  0.00    +0.000 F 
ATOM     20  F   UNL     1       4.811   7.356  17.985  0.00  0.00    +0.000 F 
ENDBRANCH  13  17
BRANCH  13  22
ATOM     21  C   UNL     1       4.079   3.167  17.033  0.00  0.00    +0.000 C 
ATOM     22  O   UNL     1       4.614   3.805  18.179  0.00  0.00    +0.000 OA
ENDBRANCH  13  22
ENDBRANCH   8  15
ENDBRANCH   1  10
BRANCH   6  23
ATOM     23  N   UNL     1       9.324  12.136  22.024  0.00  0.00    +0.000 N 
ATOM     24  C   UNL     1       8.379  13.033  22.510  0.00  0.00    +0.000 C 
ATOM     25  O   UNL     1       7.751  13.810  21.807  0.00  0.00    +0.000 OA
ATOM     26  H   UNL     1       9.985  11.794  22.703  0.00  0.00    +0.000 HD
BRANCH  24  27
ATOM     27  C   UNL     1       8.201  13.044  23.955  0.00  0.00    +0.000 A 
ATOM     28  C   UNL     1       8.930  13.668  24.956  0.00  0.00    +0.000 A 
ATOM     29  N   UNL     1       8.474  13.346  26.208  0.00  0.00    +0.000 NA
ATOM     30  C   UNL     1       7.478  12.514  26.008  0.00  0.00    +0.000 A 
ATOM     31  C   UNL     1       6.661  11.801  26.939  0.00  0.00    +0.000 A 
ATOM     32  C   UNL     1       5.673  11.002  26.493  0.00  0.00    +0.000 A 
ATOM     33  C   UNL     1       5.401  10.863  25.074  0.00  0.00    +0.000 A 
ATOM     34  C   UNL     1       6.177  11.516  24.193  0.00  0.00    +0.000 A 
ATOM     35  N   UNL     1       7.231  12.321  24.650  0.00  0.00    +0.000 N 
ENDBRANCH  24  27
ENDBRANCH   6  23
TORSDOF 6
ENDMDL
MODEL 8
REMARK VINA RESULT:      -8.3      0.828      1.093
REMARK  Name = 
REMARK  8 active torsions:
REMARK  status: ('A' for Active; 'I' for Inactive)
REMARK    1  A    between atoms: C_1  and  O_2
REMARK    2  A    between atoms: O_2  and  C_3
REMARK    3  A    between atoms: C_3  and  C_4
REMARK    4  A    between atoms: C_9  and  C_10
REMARK    5  A    between atoms: C_12  and  C_13
REMARK    6  A    between atoms: C_16  and  C_17
REMARK    7  A    between atoms: C_18  and  N_19
REMARK    8  A    between atoms: C_20  and  C_22
REMARK                            x       y       z     vdW  Elec       q    Type
REMARK                         _______ _______ _______ _____ _____    ______ ____
ROOT
ATOM      1  C   UNL     1       1.352   8.981  19.849  0.00  0.00    +0.000 A 
ATOM      2  C   UNL     1       0.849   8.342  20.979  0.00  0.00    +0.000 A 
ATOM      3  C   UNL     1       0.067   9.043  21.884  0.00  0.00    +0.000 A 
ATOM      4  C   UNL     1      -0.247  10.405  21.697  0.00  0.00    +0.000 A 
ATOM      5  C   UNL     1      -1.045  11.022  22.814  0.00  0.00    +0.000 C 
ATOM      6  C   UNL     1       0.226  11.071  20.548  0.00  0.00    +0.000 A 
ATOM      7  C   UNL     1       1.047  10.346  19.653  0.00  0.00    +0.000 A 
ENDROOT
BRANCH   1  10
ATOM      8  C   UNL     1       3.474   6.754  18.164  0.00  0.00    +0.000 A 
ATOM      9  N   UNL     1       2.981   7.185  19.300  0.00  0.00    +0.000 NA
ATOM     10  C   UNL     1       2.181   8.232  18.910  0.00  0.00    +0.000 A 
ATOM     11  N   UNL     1       2.216   8.470  17.588  0.00  0.00    +0.000 NA
ATOM     12  O   UNL     1       3.077   7.497  17.093  0.00  0.00    +0.000 OA
BRANCH   8  15
ATOM     13  C   UNL     1       3.573   3.759  19.170  0.00  0.00    +0.000 C 
ATOM     14  C   UNL     1       4.696   4.827  19.373  0.00  0.00    +0.000 C 
ATOM     15  C   UNL     1       4.331   5.506  18.037  0.00  0.00    +0.000 C 
ATOM     16  C   UNL     1       3.486   4.254  17.691  0.00  0.00    +0.000 C 
BRANCH  13  17
ATOM     17  C   UNL     1       2.290   4.019  20.002  0.00  0.00    +0.000 C 
ATOM     18  F   UNL     1       1.838   2.877  20.582  0.00  0.00    +0.000 F 
ATOM     19  F   UNL     1       2.505   4.904  21.008  0.00  0.00    +0.000 F 
ATOM     20  F   UNL     1       1.270   4.488  19.243  0.00  0.00    +0.000 F 
ENDBRANCH  13  17
BRANCH  13  22
ATOM     21  C   UNL     1       3.518   1.332  18.518  0.00  0.00    +0.000 C 
ATOM     22  O   UNL     1       3.992   2.366  19.361  0.00  0.00    +0.000 OA
ENDBRANCH  13  22
ENDBRANCH   8  15
ENDBRANCH   1  10
BRANCH   6  23
ATOM     23  N   UNL     1       0.011  12.443  20.197  0.00  0.00    +0.000 N 
ATOM     24  C   UNL     1       0.665  13.573  20.677  0.00  0.00    +0.000 C 
ATOM     25  O   UNL     1       1.458  13.558  21.606  0.00  0.00    +0.000 OA
ATOM     26  H   UNL     1      -0.829  12.621  19.670  0.00  0.00    +0.000 HD
BRANCH  24  27
ATOM     27  C   UNL     1       0.312  14.830  20.034  0.00  0.00    +0.000 A 
ATOM     28  C   UNL     1      -0.863  15.566  20.060  0.00  0.00    +0.000 A 
ATOM     29  N   UNL     1      -0.809  16.660  19.236  0.00  0.00    +0.000 NA
ATOM     30  C   UNL     1       0.379  16.612  18.678  0.00  0.00    +0.000 A 
ATOM     31  C   UNL     1       0.976  17.453  17.689  0.00  0.00    +0.000 A 
ATOM     32  C   UNL     1       2.234  17.214  17.273  0.00  0.00    +0.000 A 
ATOM     33  C   UNL     1       3.017  16.126  17.829  0.00  0.00    +0.000 A 
ATOM     34  C   UNL     1       2.455  15.321  18.747  0.00  0.00    +0.000 A 
ATOM     35  N   UNL     1       1.132  15.541  19.158  0.00  0.00    +0.000 N 
ENDBRANCH  24  27
ENDBRANCH   6  23
TORSDOF 6
ENDMDL
MODEL 9
REMARK VINA RESULT:      -8.3      3.778      9.516
REMARK  Name = 
REMARK  8 active torsions:
REMARK  status: ('A' for Active; 'I' for Inactive)
REMARK    1  A    between atoms: C_1  and  O_2
REMARK    2  A    between atoms: O_2  and  C_3
REMARK    3  A    between atoms: C_3  and  C_4
REMARK    4  A    between atoms: C_9  and  C_10
REMARK    5  A    between atoms: C_12  and  C_13
REMARK    6  A    between atoms: C_16  and  C_17
REMARK    7  A    between atoms: C_18  and  N_19
REMARK    8  A    between atoms: C_20  and  C_22
REMARK                            x       y       z     vdW  Elec       q    Type
REMARK                         _______ _______ _______ _____ _____    ______ ____
ROOT
ATOM      1  C   UNL     1       1.960   6.049  20.338  0.00  0.00    +0.000 A 
ATOM      2  C   UNL     1       1.554   4.880  20.975  0.00  0.00    +0.000 A 
ATOM      3  C   UNL     1       2.163   3.673  20.670  0.00  0.00    +0.000 A 
ATOM      4  C   UNL     1       3.204   3.584  19.722  0.00  0.00    +0.000 A 
ATOM      5  C   UNL     1       3.697   2.187  19.465  0.00  0.00    +0.000 C 
ATOM      6  C   UNL     1       3.656   4.756  19.081  0.00  0.00    +0.000 A 
ATOM      7  C   UNL     1       2.999   5.972  19.384  0.00  0.00    +0.000 A 
ENDROOT
BRANCH   1  10
ATOM      8  C   UNL     1       0.898   9.372  20.703  0.00  0.00    +0.000 A 
ATOM      9  N   UNL     1       1.818   8.531  20.296  0.00  0.00    +0.000 NA
ATOM     10  C   UNL     1       1.303   7.310  20.663  0.00  0.00    +0.000 A 
ATOM     11  N   UNL     1       0.130   7.398  21.314  0.00  0.00    +0.000 NA
ATOM     12  O   UNL     1      -0.136   8.762  21.348  0.00  0.00    +0.000 OA
BRANCH   8  15
ATOM     13  C   UNL     1      -0.345  11.493  18.716  0.00  0.00    +0.000 C 
ATOM     14  C   UNL     1       1.180  11.234  18.937  0.00  0.00    +0.000 C 
ATOM     15  C   UNL     1       0.932  10.863  20.413  0.00  0.00    +0.000 C 
ATOM     16  C   UNL     1      -0.490  11.459  20.271  0.00  0.00    +0.000 C 
BRANCH  13  17
ATOM     17  C   UNL     1      -1.086  10.342  17.985  0.00  0.00    +0.000 C 
ATOM     18  F   UNL     1      -1.928   9.686  18.825  0.00  0.00    +0.000 F 
ATOM     19  F   UNL     1      -1.844  10.796  16.955  0.00  0.00    +0.000 F 
ATOM     20  F   UNL     1      -0.233   9.409  17.497  0.00  0.00    +0.000 F 
ENDBRANCH  13  17
BRANCH  13  22
ATOM     21  C   UNL     1      -0.075  13.980  18.468  0.00  0.00    +0.000 C 
ATOM     22  O   UNL     1      -0.677  12.764  18.063  0.00  0.00    +0.000 OA
ENDBRANCH  13  22
ENDBRANCH   8  15
ENDBRANCH   1  10
BRANCH   6  23
ATOM     23  N   UNL     1       4.691   4.856  18.096  0.00  0.00    +0.000 N 
ATOM     24  C   UNL     1       4.671   4.430  16.772  0.00  0.00    +0.000 C 
ATOM     25  O   UNL     1       3.773   3.761  16.285  0.00  0.00    +0.000 OA
ATOM     26  H   UNL     1       5.598   5.107  18.456  0.00  0.00    +0.000 HD
BRANCH  24  27
ATOM     27  C   UNL     1       5.836   4.784  15.976  0.00  0.00    +0.000 A 
ATOM     28  C   UNL     1       6.931   5.583  16.270  0.00  0.00    +0.000 A 
ATOM     29  N   UNL     1       7.771   5.730  15.197  0.00  0.00    +0.000 NA
ATOM     30  C   UNL     1       7.210   5.049  14.225  0.00  0.00    +0.000 A 
ATOM     31  C   UNL     1       7.596   4.888  12.859  0.00  0.00    +0.000 A 
ATOM     32  C   UNL     1       6.861   4.116  12.038  0.00  0.00    +0.000 A 
ATOM     33  C   UNL     1       5.684   3.415  12.518  0.00  0.00    +0.000 A 
ATOM     34  C   UNL     1       5.305   3.576  13.797  0.00  0.00    +0.000 A 
ATOM     35  N   UNL     1       6.046   4.408  14.648  0.00  0.00    +0.000 N 
ENDBRANCH  24  27
ENDBRANCH   6  23
TORSDOF 6
ENDMDL
