MODEL 1
REMARK VINA RESULT:      -7.6      0.000      0.000
REMARK  Name = 
REMARK  6 active torsions:
REMARK  status: ('A' for Active; 'I' for Inactive)
REMARK    1  A    between atoms: C_1  and  N_2
REMARK    2  A    between atoms: N_2  and  C_3
REMARK    3  A    between atoms: C_4  and  O_6
REMARK    4  A    between atoms: O_6  and  C_7
REMARK    5  A    between atoms: C_11  and  C_12
REMARK    6  A    between atoms: N_20  and  C_21
REMARK                            x       y       z     vdW  Elec       q    Type
REMARK                         _______ _______ _______ _____ _____    ______ ____
ROOT
ATOM      1  C   UNL     1       4.809   4.557  18.499  0.00  0.00    +0.000 A 
ATOM      2  C   UNL     1       4.101   3.613  17.760  0.00  0.00    +0.000 A 
ATOM      3  C   UNL     1       2.720   3.750  17.614  0.00  0.00    +0.000 A 
ATOM      4  C   UNL     1       2.050   4.832  18.199  0.00  0.00    +0.000 A 
ATOM      5  C   UNL     1       2.770   5.776  18.939  0.00  0.00    +0.000 A 
ATOM      6  C   UNL     1       4.142   5.608  19.125  0.00  0.00    +0.000 A 
ENDROOT
BRANCH   5   7
ATOM      7  C   UNL     1       2.087   6.953  19.562  0.00  0.00    +0.000 A 
ATOM      8  C   UNL     1       1.499   6.973  20.813  0.00  0.00    +0.000 A 
ATOM      9  N   UNL     1       1.082   8.260  21.063  0.00  0.00    +0.000 N 
ATOM     10  C   UNL     1       0.514   8.746  22.224  0.00  0.00    +0.000 A 
ATOM     11  C   UNL     1       0.172  10.048  22.250  0.00  0.00    +0.000 A 
ATOM     12  C   UNL     1       0.369  10.934  21.112  0.00  0.00    +0.000 A 
ATOM     13  C   UNL     1       0.933  10.466  19.984  0.00  0.00    +0.000 A 
ATOM     14  C   UNL     1       1.319   9.023  19.981  0.00  0.00    +0.000 A 
ATOM     15  N   UNL     1       1.893   8.254  19.043  0.00  0.00    +0.000 N 
ATOM     16  C   UNL     1       2.148   8.680  17.666  0.00  0.00    +0.000 C 
ENDBRANCH   5   7
BRANCH   1  17
ATOM     17  O   UNL     1       6.200   4.359  18.629  0.00  0.00    +0.000 OA
BRANCH  17  21
ATOM     18  C   UNL     1       8.240   7.396  18.419  0.00  0.00    +0.000 C 
ATOM     19  N   UNL     1       7.393   6.272  18.075  0.00  0.00    +0.000 N 
ATOM     20  C   UNL     1       6.835   6.186  16.738  0.00  0.00    +0.000 C 
ATOM     21  C   UNL     1       7.026   5.396  19.084  0.00  0.00    +0.000 C 
ATOM     22  O   UNL     1       7.404   5.524  20.249  0.00  0.00    +0.000 OA
ENDBRANCH  17  21
ENDBRANCH   1  17
TORSDOF 3
ENDMDL
MODEL 2
REMARK VINA RESULT:      -7.4      1.189      1.411
REMARK  Name = 
REMARK  6 active torsions:
REMARK  status: ('A' for Active; 'I' for Inactive)
REMARK    1  A    between atoms: C_1  and  N_2
REMARK    2  A    between atoms: N_2  and  C_3
REMARK    3  A    between atoms: C_4  and  O_6
REMARK    4  A    between atoms: O_6  and  C_7
REMARK    5  A    between atoms: C_11  and  C_12
REMARK    6  A    between atoms: N_20  and  C_21
REMARK                            x       y       z     vdW  Elec       q    Type
REMARK                         _______ _______ _______ _____ _____    ______ ____
ROOT
ATOM      1  C   UNL     1       3.980   4.732  19.339  0.00  0.00    +0.000 A 
ATOM      2  C   UNL     1       3.301   3.639  19.870  0.00  0.00    +0.000 A 
ATOM      3  C   UNL     1       2.083   3.836  20.522  0.00  0.00    +0.000 A 
ATOM      4  C   UNL     1       1.541   5.123  20.633  0.00  0.00    +0.000 A 
ATOM      5  C   UNL     1       2.229   6.216  20.094  0.00  0.00    +0.000 A 
ATOM      6  C   UNL     1       3.470   6.020  19.490  0.00  0.00    +0.000 A 
ENDROOT
BRANCH   5   7
ATOM      7  C   UNL     1       1.668   7.601  20.181  0.00  0.00    +0.000 A 
ATOM      8  C   UNL     1       1.033   8.144  21.282  0.00  0.00    +0.000 A 
ATOM      9  N   UNL     1       0.766   9.465  21.005  0.00  0.00    +0.000 N 
ATOM     10  C   UNL     1       0.211  10.403  21.854  0.00  0.00    +0.000 A 
ATOM     11  C   UNL     1       0.031  11.647  21.371  0.00  0.00    +0.000 A 
ATOM     12  C   UNL     1       0.385  12.019  20.009  0.00  0.00    +0.000 A 
ATOM     13  C   UNL     1       0.935  11.111  19.184  0.00  0.00    +0.000 A 
ATOM     14  C   UNL     1       1.142   9.741  19.744  0.00  0.00    +0.000 A 
ATOM     15  N   UNL     1       1.658   8.625  19.206  0.00  0.00    +0.000 N 
ATOM     16  C   UNL     1       2.023   8.478  17.796  0.00  0.00    +0.000 C 
ENDBRANCH   5   7
BRANCH   1  17
ATOM     17  O   UNL     1       5.216   4.476  18.709  0.00  0.00    +0.000 OA
BRANCH  17  21
ATOM     18  C   UNL     1       7.689   7.043  17.856  0.00  0.00    +0.000 C 
ATOM     19  N   UNL     1       6.589   6.103  17.781  0.00  0.00    +0.000 N 
ATOM     20  C   UNL     1       5.735   6.100  16.608  0.00  0.00    +0.000 C 
ATOM     21  C   UNL     1       6.304   5.338  18.902  0.00  0.00    +0.000 C 
ATOM     22  O   UNL     1       6.956   5.413  19.944  0.00  0.00    +0.000 OA
ENDBRANCH  17  21
ENDBRANCH   1  17
TORSDOF 3
ENDMDL
MODEL 3
REMARK VINA RESULT:      -7.4      3.555      7.706
REMARK  Name = 
REMARK  6 active torsions:
REMARK  status: ('A' for Active; 'I' for Inactive)
REMARK    1  A    between atoms: C_1  and  N_2
REMARK    2  A    between atoms: N_2  and  C_3
REMARK    3  A    between atoms: C_4  and  O_6
REMARK    4  A    between atoms: O_6  and  C_7
REMARK    5  A    between atoms: C_11  and  C_12
REMARK    6  A    between atoms: N_20  and  C_21
REMARK                            x       y       z     vdW  Elec       q    Type
REMARK                         _______ _______ _______ _____ _____    ______ ____
ROOT
ATOM      1  C   UNL     1       0.860   9.585  18.998  0.00  0.00    +0.000 A 
ATOM      2  C   UNL     1       0.608   9.315  20.341  0.00  0.00    +0.000 A 
ATOM      3  C   UNL     1       1.210   8.210  20.945  0.00  0.00    +0.000 A 
ATOM      4  C   UNL     1       2.069   7.383  20.210  0.00  0.00    +0.000 A 
ATOM      5  C   UNL     1       2.318   7.662  18.863  0.00  0.00    +0.000 A 
ATOM      6  C   UNL     1       1.675   8.737  18.249  0.00  0.00    +0.000 A 
ENDROOT
BRANCH   5   7
ATOM      7  C   UNL     1       3.244   6.808  18.055  0.00  0.00    +0.000 A 
ATOM      8  C   UNL     1       4.436   7.222  17.490  0.00  0.00    +0.000 A 
ATOM      9  N   UNL     1       5.041   6.123  16.928  0.00  0.00    +0.000 N 
ATOM     10  C   UNL     1       6.284   6.067  16.326  0.00  0.00    +0.000 A 
ATOM     11  C   UNL     1       6.681   4.879  15.834  0.00  0.00    +0.000 A 
ATOM     12  C   UNL     1       5.854   3.683  15.904  0.00  0.00    +0.000 A 
ATOM     13  C   UNL     1       4.649   3.732  16.500  0.00  0.00    +0.000 A 
ATOM     14  C   UNL     1       4.233   5.055  17.054  0.00  0.00    +0.000 A 
ATOM     15  N   UNL     1       3.123   5.444  17.700  0.00  0.00    +0.000 N 
ATOM     16  C   UNL     1       1.934   4.608  17.879  0.00  0.00    +0.000 C 
ENDBRANCH   5   7
BRANCH   1  17
ATOM     17  O   UNL     1       0.211  10.703  18.435  0.00  0.00    +0.000 OA
BRANCH  17  21
ATOM     18  C   UNL     1      -3.351  11.545  18.253  0.00  0.00    +0.000 C 
ATOM     19  N   UNL     1      -1.950  11.532  18.621  0.00  0.00    +0.000 N 
ATOM     20  C   UNL     1      -1.435  12.569  19.495  0.00  0.00    +0.000 C 
ATOM     21  C   UNL     1      -1.119  10.610  18.003  0.00  0.00    +0.000 C 
ATOM     22  O   UNL     1      -1.526   9.796  17.174  0.00  0.00    +0.000 OA
ENDBRANCH  17  21
ENDBRANCH   1  17
TORSDOF 3
ENDMDL
MODEL 4
REMARK VINA RESULT:      -7.3      1.528      2.142
REMARK  Name = 
REMARK  6 active torsions:
REMARK  status: ('A' for Active; 'I' for Inactive)
REMARK    1  A    between atoms: C_1  and  N_2
REMARK    2  A    between atoms: N_2  and  C_3
REMARK    3  A    between atoms: C_4  and  O_6
REMARK    4  A    between atoms: O_6  and  C_7
REMARK    5  A    between atoms: C_11  and  C_12
REMARK    6  A    between atoms: N_20  and  C_21
REMARK                            x       y       z     vdW  Elec       q    Type
REMARK                         _______ _______ _______ _____ _____    ______ ____
ROOT
ATOM      1  C   UNL     1       3.973   4.416  19.353  0.00  0.00    +0.000 A 
ATOM      2  C   UNL     1       3.264   3.389  19.971  0.00  0.00    +0.000 A 
ATOM      3  C   UNL     1       2.074   3.682  20.640  0.00  0.00    +0.000 A 
ATOM      4  C   UNL     1       1.591   4.996  20.682  0.00  0.00    +0.000 A 
ATOM      5  C   UNL     1       2.310   6.021  20.056  0.00  0.00    +0.000 A 
ATOM      6  C   UNL     1       3.524   5.732  19.434  0.00  0.00    +0.000 A 
ENDROOT
BRANCH   5   7
ATOM      7  C   UNL     1       1.811   7.432  20.069  0.00  0.00    +0.000 A 
ATOM      8  C   UNL     1       1.197   8.060  21.136  0.00  0.00    +0.000 A 
ATOM      9  N   UNL     1       0.991   9.375  20.791  0.00  0.00    +0.000 N 
ATOM     10  C   UNL     1       0.477  10.380  21.587  0.00  0.00    +0.000 A 
ATOM     11  C   UNL     1       0.355  11.603  21.040  0.00  0.00    +0.000 A 
ATOM     12  C   UNL     1       0.729  11.889  19.662  0.00  0.00    +0.000 A 
ATOM     13  C   UNL     1       1.241  10.915  18.888  0.00  0.00    +0.000 A 
ATOM     14  C   UNL     1       1.384   9.569  19.518  0.00  0.00    +0.000 A 
ATOM     15  N   UNL     1       1.851   8.404  19.042  0.00  0.00    +0.000 N 
ATOM     16  C   UNL     1       2.215   8.168  17.644  0.00  0.00    +0.000 C 
ENDBRANCH   5   7
BRANCH   1  17
ATOM     17  O   UNL     1       5.178   4.066  18.708  0.00  0.00    +0.000 OA
BRANCH  17  21
ATOM     18  C   UNL     1       6.842   4.766  15.519  0.00  0.00    +0.000 C 
ATOM     19  N   UNL     1       6.577   4.600  16.934  0.00  0.00    +0.000 N 
ATOM     20  C   UNL     1       7.673   4.703  17.879  0.00  0.00    +0.000 C 
ATOM     21  C   UNL     1       5.306   4.201  17.319  0.00  0.00    +0.000 C 
ATOM     22  O   UNL     1       4.397   4.002  16.514  0.00  0.00    +0.000 OA
ENDBRANCH  17  21
ENDBRANCH   1  17
TORSDOF 3
ENDMDL
MODEL 5
REMARK VINA RESULT:      -7.3      0.933      1.301
REMARK  Name = 
REMARK  6 active torsions:
REMARK  status: ('A' for Active; 'I' for Inactive)
REMARK    1  A    between atoms: C_1  and  N_2
REMARK    2  A    between atoms: N_2  and  C_3
REMARK    3  A    between atoms: C_4  and  O_6
REMARK    4  A    between atoms: O_6  and  C_7
REMARK    5  A    between atoms: C_11  and  C_12
REMARK    6  A    between atoms: N_20  and  C_21
REMARK                            x       y       z     vdW  Elec       q    Type
REMARK                         _______ _______ _______ _____ _____    ______ ____
ROOT
ATOM      1  C   UNL     1       4.533   5.047  17.847  0.00  0.00    +0.000 A 
ATOM      2  C   UNL     1       3.818   3.901  17.509  0.00  0.00    +0.000 A 
ATOM      3  C   UNL     1       2.467   3.808  17.848  0.00  0.00    +0.000 A 
ATOM      4  C   UNL     1       1.831   4.862  18.515  0.00  0.00    +0.000 A 
ATOM      5  C   UNL     1       2.557   6.011  18.849  0.00  0.00    +0.000 A 
ATOM      6  C   UNL     1       3.918   6.078  18.555  0.00  0.00    +0.000 A 
ENDROOT
BRANCH   5   7
ATOM      7  C   UNL     1       1.902   7.162  19.547  0.00  0.00    +0.000 A 
ATOM      8  C   UNL     1       1.366   7.132  20.821  0.00  0.00    +0.000 A 
ATOM      9  N   UNL     1       0.963   8.408  21.139  0.00  0.00    +0.000 N 
ATOM     10  C   UNL     1       0.445   8.847  22.342  0.00  0.00    +0.000 A 
ATOM     11  C   UNL     1       0.107  10.147  22.434  0.00  0.00    +0.000 A 
ATOM     12  C   UNL     1       0.258  11.078  21.325  0.00  0.00    +0.000 A 
ATOM     13  C   UNL     1       0.773  10.655  20.157  0.00  0.00    +0.000 A 
ATOM     14  C   UNL     1       1.156   9.214  20.080  0.00  0.00    +0.000 A 
ATOM     15  N   UNL     1       1.690   8.483  19.089  0.00  0.00    +0.000 N 
ATOM     16  C   UNL     1       1.888   8.964  17.721  0.00  0.00    +0.000 C 
ENDBRANCH   5   7
BRANCH   1  17
ATOM     17  O   UNL     1       5.899   5.078  17.497  0.00  0.00    +0.000 OA
BRANCH  17  21
ATOM     18  C   UNL     1       8.159   7.926  17.958  0.00  0.00    +0.000 C 
ATOM     19  N   UNL     1       7.434   6.688  18.161  0.00  0.00    +0.000 N 
ATOM     20  C   UNL     1       7.789   5.833  19.279  0.00  0.00    +0.000 C 
ATOM     21  C   UNL     1       6.526   6.294  17.191  0.00  0.00    +0.000 C 
ATOM     22  O   UNL     1       6.299   6.959  16.180  0.00  0.00    +0.000 OA
ENDBRANCH  17  21
ENDBRANCH   1  17
TORSDOF 3
ENDMDL
MODEL 6
REMARK VINA RESULT:      -7.0      2.392      3.917
REMARK  Name = 
REMARK  6 active torsions:
REMARK  status: ('A' for Active; 'I' for Inactive)
REMARK    1  A    between atoms: C_1  and  N_2
REMARK    2  A    between atoms: N_2  and  C_3
REMARK    3  A    between atoms: C_4  and  O_6
REMARK    4  A    between atoms: O_6  and  C_7
REMARK    5  A    between atoms: C_11  and  C_12
REMARK    6  A    between atoms: N_20  and  C_21
REMARK                            x       y       z     vdW  Elec       q    Type
REMARK                         _______ _______ _______ _____ _____    ______ ____
ROOT
ATOM      1  C   UNL     1       3.322   4.848  17.926  0.00  0.00    +0.000 A 
ATOM      2  C   UNL     1       4.408   5.075  17.085  0.00  0.00    +0.000 A 
ATOM      3  C   UNL     1       4.738   6.384  16.727  0.00  0.00    +0.000 A 
ATOM      4  C   UNL     1       3.987   7.461  17.215  0.00  0.00    +0.000 A 
ATOM      5  C   UNL     1       2.899   7.223  18.061  0.00  0.00    +0.000 A 
ATOM      6  C   UNL     1       2.542   5.912  18.375  0.00  0.00    +0.000 A 
ENDROOT
BRANCH   5   7
ATOM      7  C   UNL     1       2.088   8.354  18.613  0.00  0.00    +0.000 A 
ATOM      8  C   UNL     1       1.815   9.542  17.962  0.00  0.00    +0.000 A 
ATOM      9  N   UNL     1       0.954  10.268  18.752  0.00  0.00    +0.000 N 
ATOM     10  C   UNL     1       0.363  11.480  18.452  0.00  0.00    +0.000 A 
ATOM     11  C   UNL     1      -0.448  12.020  19.380  0.00  0.00    +0.000 A 
ATOM     12  C   UNL     1      -0.705  11.385  20.665  0.00  0.00    +0.000 A 
ATOM     13  C   UNL     1      -0.140  10.199  20.954  0.00  0.00    +0.000 A 
ATOM     14  C   UNL     1       0.744   9.608  19.905  0.00  0.00    +0.000 A 
ATOM     15  N   UNL     1       1.444   8.464  19.867  0.00  0.00    +0.000 N 
ATOM     16  C   UNL     1       1.606   7.555  21.004  0.00  0.00    +0.000 C 
ENDBRANCH   5   7
BRANCH   1  17
ATOM     17  O   UNL     1       3.023   3.505  18.240  0.00  0.00    +0.000 OA
BRANCH  17  21
ATOM     18  C   UNL     1       2.044   2.354  21.578  0.00  0.00    +0.000 C 
ATOM     19  N   UNL     1       1.999   2.857  20.220  0.00  0.00    +0.000 N 
ATOM     20  C   UNL     1       0.715   3.018  19.564  0.00  0.00    +0.000 C 
ATOM     21  C   UNL     1       3.198   3.025  19.545  0.00  0.00    +0.000 C 
ATOM     22  O   UNL     1       4.292   2.783  20.056  0.00  0.00    +0.000 OA
ENDBRANCH  17  21
ENDBRANCH   1  17
TORSDOF 3
ENDMDL
MODEL 7
REMARK VINA RESULT:      -7.0      2.689      4.466
REMARK  Name = 
REMARK  6 active torsions:
REMARK  status: ('A' for Active; 'I' for Inactive)
REMARK    1  A    between atoms: C_1  and  N_2
REMARK    2  A    between atoms: N_2  and  C_3
REMARK    3  A    between atoms: C_4  and  O_6
REMARK    4  A    between atoms: O_6  and  C_7
REMARK    5  A    between atoms: C_11  and  C_12
REMARK    6  A    between atoms: N_20  and  C_21
REMARK                            x       y       z     vdW  Elec       q    Type
REMARK                         _______ _______ _______ _____ _____    ______ ____
ROOT
ATOM      1  C   UNL     1       2.608   6.650  19.507  0.00  0.00    +0.000 A 
ATOM      2  C   UNL     1       3.114   6.909  18.236  0.00  0.00    +0.000 A 
ATOM      3  C   UNL     1       2.768   8.095  17.587  0.00  0.00    +0.000 A 
ATOM      4  C   UNL     1       1.925   9.023  18.212  0.00  0.00    +0.000 A 
ATOM      5  C   UNL     1       1.423   8.756  19.490  0.00  0.00    +0.000 A 
ATOM      6  C   UNL     1       1.730   7.547  20.113  0.00  0.00    +0.000 A 
ENDROOT
BRANCH   5   7
ATOM      7  C   UNL     1       0.534   9.735  20.191  0.00  0.00    +0.000 A 
ATOM      8  C   UNL     1      -0.266  10.679  19.576  0.00  0.00    +0.000 A 
ATOM      9  N   UNL     1      -1.007  11.305  20.553  0.00  0.00    +0.000 N 
ATOM     10  C   UNL     1      -1.990  12.258  20.376  0.00  0.00    +0.000 A 
ATOM     11  C   UNL     1      -2.587  12.745  21.480  0.00  0.00    +0.000 A 
ATOM     12  C   UNL     1      -2.226  12.314  22.823  0.00  0.00    +0.000 A 
ATOM     13  C   UNL     1      -1.276  11.378  22.997  0.00  0.00    +0.000 A 
ATOM     14  C   UNL     1      -0.638  10.838  21.759  0.00  0.00    +0.000 A 
ATOM     15  N   UNL     1       0.318   9.914  21.578  0.00  0.00    +0.000 N 
ATOM     16  C   UNL     1       1.091   9.299  22.658  0.00  0.00    +0.000 C 
ENDBRANCH   5   7
BRANCH   1  17
ATOM     17  O   UNL     1       2.976   5.428  20.108  0.00  0.00    +0.000 OA
BRANCH  17  21
ATOM     18  C   UNL     1       1.974   2.038  19.142  0.00  0.00    +0.000 C 
ATOM     19  N   UNL     1       2.731   3.262  19.309  0.00  0.00    +0.000 N 
ATOM     20  C   UNL     1       4.118   3.302  18.886  0.00  0.00    +0.000 C 
ATOM     21  C   UNL     1       2.142   4.306  20.005  0.00  0.00    +0.000 C 
ATOM     22  O   UNL     1       1.003   4.241  20.467  0.00  0.00    +0.000 OA
ENDBRANCH  17  21
ENDBRANCH   1  17
TORSDOF 3
ENDMDL
MODEL 8
REMARK VINA RESULT:      -7.0      2.483      3.994
REMARK  Name = 
REMARK  6 active torsions:
REMARK  status: ('A' for Active; 'I' for Inactive)
REMARK    1  A    between atoms: C_1  and  N_2
REMARK    2  A    between atoms: N_2  and  C_3
REMARK    3  A    between atoms: C_4  and  O_6
REMARK    4  A    between atoms: O_6  and  C_7
REMARK    5  A    between atoms: C_11  and  C_12
REMARK    6  A    between atoms: N_20  and  C_21
REMARK                            x       y       z     vdW  Elec       q    Type
REMARK                         _______ _______ _______ _____ _____    ______ ____
ROOT
ATOM      1  C   UNL     1       3.406   4.613  17.502  0.00  0.00    +0.000 A 
ATOM      2  C   UNL     1       4.558   4.876  16.765  0.00  0.00    +0.000 A 
ATOM      3  C   UNL     1       4.975   6.196  16.588  0.00  0.00    +0.000 A 
ATOM      4  C   UNL     1       4.246   7.250  17.154  0.00  0.00    +0.000 A 
ATOM      5  C   UNL     1       3.091   6.977  17.895  0.00  0.00    +0.000 A 
ATOM      6  C   UNL     1       2.650   5.660  18.026  0.00  0.00    +0.000 A 
ENDROOT
BRANCH   5   7
ATOM      7  C   UNL     1       2.300   8.079  18.528  0.00  0.00    +0.000 A 
ATOM      8  C   UNL     1       2.052   9.316  17.965  0.00  0.00    +0.000 A 
ATOM      9  N   UNL     1       1.202   9.999  18.804  0.00  0.00    +0.000 N 
ATOM     10  C   UNL     1       0.635  11.241  18.593  0.00  0.00    +0.000 A 
ATOM     11  C   UNL     1      -0.169  11.727  19.558  0.00  0.00    +0.000 A 
ATOM     12  C   UNL     1      -0.441  11.004  20.792  0.00  0.00    +0.000 A 
ATOM     13  C   UNL     1       0.101   9.790  20.994  0.00  0.00    +0.000 A 
ATOM     14  C   UNL     1       0.976   9.261  19.906  0.00  0.00    +0.000 A 
ATOM     15  N   UNL     1       1.655   8.109  19.786  0.00  0.00    +0.000 N 
ATOM     16  C   UNL     1       1.797   7.117  20.853  0.00  0.00    +0.000 C 
ENDBRANCH   5   7
BRANCH   1  17
ATOM     17  O   UNL     1       3.022   3.262  17.633  0.00  0.00    +0.000 OA
BRANCH  17  21
ATOM     18  C   UNL     1       1.696   2.157  20.865  0.00  0.00    +0.000 C 
ATOM     19  N   UNL     1       2.597   2.553  19.802  0.00  0.00    +0.000 N 
ATOM     20  C   UNL     1       4.006   2.736  20.097  0.00  0.00    +0.000 C 
ATOM     21  C   UNL     1       2.052   2.887  18.572  0.00  0.00    +0.000 C 
ATOM     22  O   UNL     1       0.843   2.843  18.344  0.00  0.00    +0.000 OA
ENDBRANCH  17  21
ENDBRANCH   1  17
TORSDOF 3
ENDMDL
MODEL 9
REMARK VINA RESULT:      -7.0      1.246      1.648
REMARK  Name = 
REMARK  6 active torsions:
REMARK  status: ('A' for Active; 'I' for Inactive)
REMARK    1  A    between atoms: C_1  and  N_2
REMARK    2  A    between atoms: N_2  and  C_3
REMARK    3  A    between atoms: C_4  and  O_6
REMARK    4  A    between atoms: O_6  and  C_7
REMARK    5  A    between atoms: C_11  and  C_12
REMARK    6  A    between atoms: N_20  and  C_21
REMARK                            x       y       z     vdW  Elec       q    Type
REMARK                         _______ _______ _______ _____ _____    ______ ____
ROOT
ATOM      1  C   UNL     1       4.254   4.870  18.936  0.00  0.00    +0.000 A 
ATOM      2  C   UNL     1       3.747   3.704  19.503  0.00  0.00    +0.000 A 
ATOM      3  C   UNL     1       2.597   3.766  20.291  0.00  0.00    +0.000 A 
ATOM      4  C   UNL     1       1.952   4.991  20.505  0.00  0.00    +0.000 A 
ATOM      5  C   UNL     1       2.467   6.158  19.930  0.00  0.00    +0.000 A 
ATOM      6  C   UNL     1       3.645   6.098  19.186  0.00  0.00    +0.000 A 
ENDROOT
BRANCH   5   7
ATOM      7  C   UNL     1       1.791   7.479  20.126  0.00  0.00    +0.000 A 
ATOM      8  C   UNL     1       1.161   7.897  21.283  0.00  0.00    +0.000 A 
ATOM      9  N   UNL     1       0.767   9.203  21.100  0.00  0.00    +0.000 N 
ATOM     10  C   UNL     1       0.172  10.035  22.027  0.00  0.00    +0.000 A 
ATOM     11  C   UNL     1      -0.138  11.284  21.630  0.00  0.00    +0.000 A 
ATOM     12  C   UNL     1       0.119  11.766  20.281  0.00  0.00    +0.000 A 
ATOM     13  C   UNL     1       0.709  10.960  19.380  0.00  0.00    +0.000 A 
ATOM     14  C   UNL     1       1.061   9.585  19.844  0.00  0.00    +0.000 A 
ATOM     15  N   UNL     1       1.648   8.554  19.218  0.00  0.00    +0.000 N 
ATOM     16  C   UNL     1       1.961   8.523  17.788  0.00  0.00    +0.000 C 
ENDBRANCH   5   7
BRANCH   1  17
ATOM     17  O   UNL     1       5.429   4.751  18.164  0.00  0.00    +0.000 OA
BRANCH  17  21
ATOM     18  C   UNL     1       7.695   7.555  17.513  0.00  0.00    +0.000 C 
ATOM     19  N   UNL     1       7.056   6.406  18.120  0.00  0.00    +0.000 N 
ATOM     20  C   UNL     1       7.675   5.773  19.270  0.00  0.00    +0.000 C 
ATOM     21  C   UNL     1       5.950   5.861  17.487  0.00  0.00    +0.000 C 
ATOM     22  O   UNL     1       5.482   6.324  16.446  0.00  0.00    +0.000 OA
ENDBRANCH  17  21
ENDBRANCH   1  17
TORSDOF 3
ENDMDL
