MODEL 1
REMARK VINA RESULT:      -9.6      0.000      0.000
REMARK  Name = 
REMARK  5 active torsions:
REMARK  status: ('A' for Active; 'I' for Inactive)
REMARK    1  A    between atoms: C_8  and  C_9
REMARK    2  A    between atoms: C_11  and  C_12
REMARK    3  A    between atoms: C_17  and  O_18
REMARK    4  A    between atoms: O_18  and  C_19
REMARK    5  A    between atoms: C_19  and  C_20
REMARK                            x       y       z     vdW  Elec       q    Type
REMARK                         _______ _______ _______ _____ _____    ______ ____
ROOT
ATOM      1  C   UNL     1       7.933   8.232  18.274  0.00  0.00    +0.000 A 
ATOM      2  C   UNL     1       8.440   7.172  19.042  0.00  0.00    +0.000 A 
ATOM      3  C   UNL     1       7.843   5.909  18.984  0.00  0.00    +0.000 A 
ATOM      4  C   UNL     1       6.730   5.694  18.157  0.00  0.00    +0.000 A 
ATOM      5  C   UNL     1       6.117   4.434  18.087  0.00  0.00    +0.000 A 
ATOM      6  C   UNL     1       4.992   4.232  17.276  0.00  0.00    +0.000 A 
ATOM      7  C   UNL     1       4.487   5.307  16.518  0.00  0.00    +0.000 A 
ATOM      8  C   UNL     1       5.099   6.558  16.570  0.00  0.00    +0.000 A 
ATOM      9  C   UNL     1       6.215   6.762  17.388  0.00  0.00    +0.000 A 
ATOM     10  C   UNL     1       6.821   8.020  17.450  0.00  0.00    +0.000 A 
ENDROOT
BRANCH   1  13
ATOM     11  C   UNL     1       9.679  11.224  18.954  0.00  0.00    +0.000 A 
ATOM     12  N   UNL     1       9.341   9.985  19.340  0.00  0.00    +0.000 NA
ATOM     13  C   UNL     1       8.546   9.567  18.331  0.00  0.00    +0.000 A 
ATOM     14  N   UNL     1       8.411  10.519  17.389  0.00  0.00    +0.000 NA
ATOM     15  O   UNL     1       9.123  11.526  17.805  0.00  0.00    +0.000 OA
BRANCH  11  23
ATOM     16  N   UNL     1      12.331  14.568  17.594  0.00  0.00    +0.000 NA
ATOM     17  C   UNL     1      11.843  13.424  17.928  0.00  0.00    +0.000 C 
ATOM     18  N   UNL     1      12.306  12.252  17.269  0.00  0.00    +0.000 N 
ATOM     19  N   UNL     1      10.868  13.348  18.982  0.00  0.00    +0.000 N 
ATOM     20  C   UNL     1      10.424  14.494  19.739  0.00  0.00    +0.000 C 
ATOM     21  C   UNL     1      10.542  14.002  21.171  0.00  0.00    +0.000 C 
ATOM     22  C   UNL     1       9.967  12.598  21.032  0.00  0.00    +0.000 C 
ATOM     23  C   UNL     1      10.598  12.125  19.713  0.00  0.00    +0.000 C 
ATOM     24  H   UNL     1      13.051  14.654  16.862  0.00  0.00    +0.000 HD
ATOM     25  H   UNL     1      13.021  12.315  16.528  0.00  0.00    +0.000 HD
ATOM     26  H   UNL     1      11.924  11.322  17.484  0.00  0.00    +0.000 HD
ENDBRANCH  11  23
ENDBRANCH   1  13
BRANCH   6  27
ATOM     27  O   UNL     1       4.428   2.999  17.253  0.00  0.00    +0.000 OA
BRANCH  27  28
ATOM     28  C   UNL     1       3.072   2.738  17.308  0.00  0.00    +0.000 C 
BRANCH  28  29
ATOM     29  C   UNL     1       2.568   2.971  18.704  0.00  0.00    +0.000 A 
ATOM     30  C   UNL     1       1.370   3.673  18.919  0.00  0.00    +0.000 A 
ATOM     31  C   UNL     1       0.908   3.890  20.221  0.00  0.00    +0.000 A 
ATOM     32  C   UNL     1       1.631   3.401  21.313  0.00  0.00    +0.000 A 
ATOM     33  C   UNL     1       2.821   2.698  21.105  0.00  0.00    +0.000 A 
ATOM     34  C   UNL     1       3.291   2.486  19.806  0.00  0.00    +0.000 A 
ENDBRANCH  28  29
ENDBRANCH  27  28
ENDBRANCH   6  27
TORSDOF 5
ENDMDL
MODEL 2
REMARK VINA RESULT:      -9.4      6.955      9.760
REMARK  Name = 
REMARK  5 active torsions:
REMARK  status: ('A' for Active; 'I' for Inactive)
REMARK    1  A    between atoms: C_8  and  C_9
REMARK    2  A    between atoms: C_11  and  C_12
REMARK    3  A    between atoms: C_17  and  O_18
REMARK    4  A    between atoms: O_18  and  C_19
REMARK    5  A    between atoms: C_19  and  C_20
REMARK                            x       y       z     vdW  Elec       q    Type
REMARK                         _______ _______ _______ _____ _____    ______ ____
ROOT
ATOM      1  C   UNL     1       2.063   8.053  18.947  0.00  0.00    +0.000 A 
ATOM      2  C   UNL     1       1.491   9.120  18.236  0.00  0.00    +0.000 A 
ATOM      3  C   UNL     1       0.681  10.052  18.893  0.00  0.00    +0.000 A 
ATOM      4  C   UNL     1       0.434   9.924  20.268  0.00  0.00    +0.000 A 
ATOM      5  C   UNL     1      -0.377  10.849  20.943  0.00  0.00    +0.000 A 
ATOM      6  C   UNL     1      -0.638  10.702  22.312  0.00  0.00    +0.000 A 
ATOM      7  C   UNL     1      -0.066   9.621  23.011  0.00  0.00    +0.000 A 
ATOM      8  C   UNL     1       0.753   8.706  22.352  0.00  0.00    +0.000 A 
ATOM      9  C   UNL     1       1.004   8.847  20.983  0.00  0.00    +0.000 A 
ATOM     10  C   UNL     1       1.815   7.923  20.319  0.00  0.00    +0.000 A 
ENDROOT
BRANCH   1  13
ATOM     11  C   UNL     1       4.429   6.185  17.110  0.00  0.00    +0.000 A 
ATOM     12  N   UNL     1       3.953   7.385  17.472  0.00  0.00    +0.000 NA
ATOM     13  C   UNL     1       2.910   7.061  18.268  0.00  0.00    +0.000 A 
ATOM     14  N   UNL     1       2.768   5.727  18.370  0.00  0.00    +0.000 NA
ATOM     15  O   UNL     1       3.721   5.218  17.644  0.00  0.00    +0.000 OA
BRANCH  11  23
ATOM     16  N   UNL     1       8.302   4.071  17.887  0.00  0.00    +0.000 NA
ATOM     17  C   UNL     1       7.358   4.941  17.784  0.00  0.00    +0.000 C 
ATOM     18  N   UNL     1       7.281   5.999  18.732  0.00  0.00    +0.000 N 
ATOM     19  N   UNL     1       6.422   4.848  16.697  0.00  0.00    +0.000 N 
ATOM     20  C   UNL     1       6.502   3.846  15.662  0.00  0.00    +0.000 C 
ATOM     21  C   UNL     1       6.360   4.673  14.397  0.00  0.00    +0.000 C 
ATOM     22  C   UNL     1       5.237   5.617  14.805  0.00  0.00    +0.000 C 
ATOM     23  C   UNL     1       5.630   5.978  16.246  0.00  0.00    +0.000 C 
ATOM     24  H   UNL     1       9.004   4.125  18.639  0.00  0.00    +0.000 HD
ATOM     25  H   UNL     1       7.969   6.068  19.497  0.00  0.00    +0.000 HD
ATOM     26  H   UNL     1       6.528   6.699  18.705  0.00  0.00    +0.000 HD
ENDBRANCH  11  23
ENDBRANCH   1  13
BRANCH   6  27
ATOM     27  O   UNL     1      -1.439  11.616  22.917  0.00  0.00    +0.000 OA
BRANCH  27  28
ATOM     28  C   UNL     1      -2.041  12.691  22.290  0.00  0.00    +0.000 C 
BRANCH  28  29
ATOM     29  C   UNL     1      -3.502  12.724  22.636  0.00  0.00    +0.000 A 
ATOM     30  C   UNL     1      -3.917  12.681  23.978  0.00  0.00    +0.000 A 
ATOM     31  C   UNL     1      -5.279  12.709  24.293  0.00  0.00    +0.000 A 
ATOM     32  C   UNL     1      -6.233  12.790  23.275  0.00  0.00    +0.000 A 
ATOM     33  C   UNL     1      -5.827  12.837  21.938  0.00  0.00    +0.000 A 
ATOM     34  C   UNL     1      -4.468  12.801  21.618  0.00  0.00    +0.000 A 
ENDBRANCH  28  29
ENDBRANCH  27  28
ENDBRANCH   6  27
TORSDOF 5
ENDMDL
MODEL 3
REMARK VINA RESULT:      -9.3      6.827      9.138
REMARK  Name = 
REMARK  5 active torsions:
REMARK  status: ('A' for Active; 'I' for Inactive)
REMARK    1  A    between atoms: C_8  and  C_9
REMARK    2  A    between atoms: C_11  and  C_12
REMARK    3  A    between atoms: C_17  and  O_18
REMARK    4  A    between atoms: O_18  and  C_19
REMARK    5  A    between atoms: C_19  and  C_20
REMARK                            x       y       z     vdW  Elec       q    Type
REMARK                         _______ _______ _______ _____ _____    ______ ____
ROOT
ATOM      1  C   UNL     1       1.010   9.168  20.539  0.00  0.00    +0.000 A 
ATOM      2  C   UNL     1       1.237   9.697  19.258  0.00  0.00    +0.000 A 
ATOM      3  C   UNL     1       1.874   8.927  18.279  0.00  0.00    +0.000 A 
ATOM      4  C   UNL     1       2.292   7.620  18.574  0.00  0.00    +0.000 A 
ATOM      5  C   UNL     1       2.934   6.834  17.605  0.00  0.00    +0.000 A 
ATOM      6  C   UNL     1       3.369   5.538  17.913  0.00  0.00    +0.000 A 
ATOM      7  C   UNL     1       3.144   5.024  19.205  0.00  0.00    +0.000 A 
ATOM      8  C   UNL     1       2.494   5.792  20.169  0.00  0.00    +0.000 A 
ATOM      9  C   UNL     1       2.069   7.090  19.864  0.00  0.00    +0.000 A 
ATOM     10  C   UNL     1       1.429   7.865  20.834  0.00  0.00    +0.000 A 
ENDROOT
BRANCH   1  13
ATOM     11  C   UNL     1      -0.829  11.419  22.542  0.00  0.00    +0.000 A 
ATOM     12  N   UNL     1      -0.433  11.039  21.319  0.00  0.00    +0.000 NA
ATOM     13  C   UNL     1       0.349   9.969  21.580  0.00  0.00    +0.000 A 
ATOM     14  N   UNL     1       0.421   9.726  22.902  0.00  0.00    +0.000 NA
ATOM     15  O   UNL     1      -0.317  10.638  23.464  0.00  0.00    +0.000 OA
BRANCH  11  23
ATOM     16  N   UNL     1      -1.998  14.952  20.048  0.00  0.00    +0.000 NA
ATOM     17  C   UNL     1      -1.423  14.146  20.871  0.00  0.00    +0.000 C 
ATOM     18  N   UNL     1      -0.021  14.250  21.082  0.00  0.00    +0.000 N 
ATOM     19  N   UNL     1      -2.213  13.180  21.587  0.00  0.00    +0.000 N 
ATOM     20  C   UNL     1      -3.648  13.085  21.474  0.00  0.00    +0.000 C 
ATOM     21  C   UNL     1      -4.086  13.038  22.927  0.00  0.00    +0.000 C 
ATOM     22  C   UNL     1      -3.052  12.077  23.499  0.00  0.00    +0.000 C 
ATOM     23  C   UNL     1      -1.760  12.555  22.815  0.00  0.00    +0.000 C 
ATOM     24  H   UNL     1      -1.466  15.673  19.539  0.00  0.00    +0.000 HD
ATOM     25  H   UNL     1       0.534  14.960  20.579  0.00  0.00    +0.000 HD
ATOM     26  H   UNL     1       0.484  13.609  21.708  0.00  0.00    +0.000 HD
ENDBRANCH  11  23
ENDBRANCH   1  13
BRANCH   6  27
ATOM     27  O   UNL     1       3.996   4.822  16.945  0.00  0.00    +0.000 OA
BRANCH  27  28
ATOM     28  C   UNL     1       5.234   4.220  17.071  0.00  0.00    +0.000 C 
BRANCH  28  29
ATOM     29  C   UNL     1       6.234   5.218  17.578  0.00  0.00    +0.000 A 
ATOM     30  C   UNL     1       6.895   5.004  18.800  0.00  0.00    +0.000 A 
ATOM     31  C   UNL     1       7.823   5.939  19.269  0.00  0.00    +0.000 A 
ATOM     32  C   UNL     1       8.103   7.086  18.520  0.00  0.00    +0.000 A 
ATOM     33  C   UNL     1       7.453   7.302  17.302  0.00  0.00    +0.000 A 
ATOM     34  C   UNL     1       6.519   6.375  16.833  0.00  0.00    +0.000 A 
ENDBRANCH  28  29
ENDBRANCH  27  28
ENDBRANCH   6  27
TORSDOF 5
ENDMDL
MODEL 4
REMARK VINA RESULT:      -9.3      7.490     10.810
REMARK  Name = 
REMARK  5 active torsions:
REMARK  status: ('A' for Active; 'I' for Inactive)
REMARK    1  A    between atoms: C_8  and  C_9
REMARK    2  A    between atoms: C_11  and  C_12
REMARK    3  A    between atoms: C_17  and  O_18
REMARK    4  A    between atoms: O_18  and  C_19
REMARK    5  A    between atoms: C_19  and  C_20
REMARK                            x       y       z     vdW  Elec       q    Type
REMARK                         _______ _______ _______ _____ _____    ______ ____
ROOT
ATOM      1  C   UNL     1       1.773   8.380  19.253  0.00  0.00    +0.000 A 
ATOM      2  C   UNL     1       1.469   9.546  18.533  0.00  0.00    +0.000 A 
ATOM      3  C   UNL     1       0.754  10.585  19.140  0.00  0.00    +0.000 A 
ATOM      4  C   UNL     1       0.336  10.465  20.474  0.00  0.00    +0.000 A 
ATOM      5  C   UNL     1      -0.383  11.495  21.098  0.00  0.00    +0.000 A 
ATOM      6  C   UNL     1      -0.818  11.359  22.423  0.00  0.00    +0.000 A 
ATOM      7  C   UNL     1      -0.515  10.179  23.131  0.00  0.00    +0.000 A 
ATOM      8  C   UNL     1       0.211   9.157  22.523  0.00  0.00    +0.000 A 
ATOM      9  C   UNL     1       0.636   9.289  21.196  0.00  0.00    +0.000 A 
ATOM     10  C   UNL     1       1.353   8.258  20.583  0.00  0.00    +0.000 A 
ENDROOT
BRANCH   1  13
ATOM     11  C   UNL     1       3.104   5.356  18.009  0.00  0.00    +0.000 A 
ATOM     12  N   UNL     1       2.183   5.975  18.762  0.00  0.00    +0.000 NA
ATOM     13  C   UNL     1       2.516   7.277  18.625  0.00  0.00    +0.000 A 
ATOM     14  N   UNL     1       3.591   7.426  17.830  0.00  0.00    +0.000 NA
ATOM     15  O   UNL     1       3.927   6.222  17.467  0.00  0.00    +0.000 OA
BRANCH  11  23
ATOM     16  N   UNL     1       5.101   2.083  20.325  0.00  0.00    +0.000 NA
ATOM     17  C   UNL     1       4.820   3.029  19.498  0.00  0.00    +0.000 C 
ATOM     18  N   UNL     1       5.856   3.900  19.060  0.00  0.00    +0.000 N 
ATOM     19  N   UNL     1       3.476   3.166  19.006  0.00  0.00    +0.000 N 
ATOM     20  C   UNL     1       2.406   2.262  19.352  0.00  0.00    +0.000 C 
ATOM     21  C   UNL     1       1.804   1.937  17.996  0.00  0.00    +0.000 C 
ATOM     22  C   UNL     1       1.792   3.320  17.358  0.00  0.00    +0.000 C 
ATOM     23  C   UNL     1       3.159   3.880  17.784  0.00  0.00    +0.000 C 
ATOM     24  H   UNL     1       6.059   1.940  20.676  0.00  0.00    +0.000 HD
ATOM     25  H   UNL     1       6.821   3.781  19.404  0.00  0.00    +0.000 HD
ATOM     26  H   UNL     1       5.672   4.686  18.424  0.00  0.00    +0.000 HD
ENDBRANCH  11  23
ENDBRANCH   1  13
BRANCH   6  27
ATOM     27  O   UNL     1      -1.521  12.379  22.978  0.00  0.00    +0.000 OA
BRANCH  27  28
ATOM     28  C   UNL     1      -2.436  13.174  22.315  0.00  0.00    +0.000 C 
BRANCH  28  29
ATOM     29  C   UNL     1      -3.801  12.976  22.907  0.00  0.00    +0.000 A 
ATOM     30  C   UNL     1      -4.952  13.199  22.132  0.00  0.00    +0.000 A 
ATOM     31  C   UNL     1      -6.221  13.016  22.690  0.00  0.00    +0.000 A 
ATOM     32  C   UNL     1      -6.349  12.602  24.019  0.00  0.00    +0.000 A 
ATOM     33  C   UNL     1      -5.209  12.376  24.795  0.00  0.00    +0.000 A 
ATOM     34  C   UNL     1      -3.939  12.565  24.243  0.00  0.00    +0.000 A 
ENDBRANCH  28  29
ENDBRANCH  27  28
ENDBRANCH   6  27
TORSDOF 5
ENDMDL
MODEL 5
REMARK VINA RESULT:      -9.3      1.297      2.096
REMARK  Name = 
REMARK  5 active torsions:
REMARK  status: ('A' for Active; 'I' for Inactive)
REMARK    1  A    between atoms: C_8  and  C_9
REMARK    2  A    between atoms: C_11  and  C_12
REMARK    3  A    between atoms: C_17  and  O_18
REMARK    4  A    between atoms: O_18  and  C_19
REMARK    5  A    between atoms: C_19  and  C_20
REMARK                            x       y       z     vdW  Elec       q    Type
REMARK                         _______ _______ _______ _____ _____    ______ ____
ROOT
ATOM      1  C   UNL     1       8.180   8.198  18.445  0.00  0.00    +0.000 A 
ATOM      2  C   UNL     1       8.517   7.094  19.243  0.00  0.00    +0.000 A 
ATOM      3  C   UNL     1       7.819   5.888  19.112  0.00  0.00    +0.000 A 
ATOM      4  C   UNL     1       6.774   5.778  18.182  0.00  0.00    +0.000 A 
ATOM      5  C   UNL     1       6.062   4.577  18.039  0.00  0.00    +0.000 A 
ATOM      6  C   UNL     1       5.005   4.481  17.124  0.00  0.00    +0.000 A 
ATOM      7  C   UNL     1       4.670   5.601  16.337  0.00  0.00    +0.000 A 
ATOM      8  C   UNL     1       5.381   6.792  16.463  0.00  0.00    +0.000 A 
ATOM      9  C   UNL     1       6.430   6.891  17.383  0.00  0.00    +0.000 A 
ATOM     10  C   UNL     1       7.135   8.090  17.518  0.00  0.00    +0.000 A 
ENDROOT
BRANCH   1  13
ATOM     11  C   UNL     1       9.791  11.323  18.131  0.00  0.00    +0.000 A 
ATOM     12  N   UNL     1       9.156  10.301  17.540  0.00  0.00    +0.000 NA
ATOM     13  C   UNL     1       8.899   9.473  18.577  0.00  0.00    +0.000 A 
ATOM     14  N   UNL     1       9.366   9.979  19.734  0.00  0.00    +0.000 NA
ATOM     15  O   UNL     1       9.909  11.120  19.422  0.00  0.00    +0.000 OA
BRANCH  11  23
ATOM     16  N   UNL     1       8.033  15.433  17.832  0.00  0.00    +0.000 NA
ATOM     17  C   UNL     1       8.354  14.200  17.643  0.00  0.00    +0.000 C 
ATOM     18  N   UNL     1       7.400  13.314  17.071  0.00  0.00    +0.000 N 
ATOM     19  N   UNL     1       9.677  13.751  17.982  0.00  0.00    +0.000 N 
ATOM     20  C   UNL     1      10.709  14.624  18.488  0.00  0.00    +0.000 C 
ATOM     21  C   UNL     1      11.895  14.270  17.609  0.00  0.00    +0.000 C 
ATOM     22  C   UNL     1      11.779  12.751  17.584  0.00  0.00    +0.000 C 
ATOM     23  C   UNL     1      10.264  12.549  17.420  0.00  0.00    +0.000 C 
ATOM     24  H   UNL     1       7.103  15.794  17.575  0.00  0.00    +0.000 HD
ATOM     25  H   UNL     1       6.460  13.651  16.813  0.00  0.00    +0.000 HD
ATOM     26  H   UNL     1       7.603  12.316  16.929  0.00  0.00    +0.000 HD
ENDBRANCH  11  23
ENDBRANCH   1  13
BRANCH   6  27
ATOM     27  O   UNL     1       4.339   3.302  17.032  0.00  0.00    +0.000 OA
BRANCH  27  28
ATOM     28  C   UNL     1       2.978   3.136  17.211  0.00  0.00    +0.000 C 
BRANCH  28  29
ATOM     29  C   UNL     1       2.627   3.362  18.653  0.00  0.00    +0.000 A 
ATOM     30  C   UNL     1       3.123   2.503  19.649  0.00  0.00    +0.000 A 
ATOM     31  C   UNL     1       2.789   2.717  20.990  0.00  0.00    +0.000 A 
ATOM     32  C   UNL     1       1.969   3.791  21.346  0.00  0.00    +0.000 A 
ATOM     33  C   UNL     1       1.475   4.651  20.362  0.00  0.00    +0.000 A 
ATOM     34  C   UNL     1       1.800   4.437  19.019  0.00  0.00    +0.000 A 
ENDBRANCH  28  29
ENDBRANCH  27  28
ENDBRANCH   6  27
TORSDOF 5
ENDMDL
MODEL 6
REMARK VINA RESULT:      -9.3      7.707      9.842
REMARK  Name = 
REMARK  5 active torsions:
REMARK  status: ('A' for Active; 'I' for Inactive)
REMARK    1  A    between atoms: C_8  and  C_9
REMARK    2  A    between atoms: C_11  and  C_12
REMARK    3  A    between atoms: C_17  and  O_18
REMARK    4  A    between atoms: O_18  and  C_19
REMARK    5  A    between atoms: C_19  and  C_20
REMARK                            x       y       z     vdW  Elec       q    Type
REMARK                         _______ _______ _______ _____ _____    ______ ____
ROOT
ATOM      1  C   UNL     1       0.701   9.908  20.614  0.00  0.00    +0.000 A 
ATOM      2  C   UNL     1       0.978  10.420  19.337  0.00  0.00    +0.000 A 
ATOM      3  C   UNL     1       1.633   9.631  18.386  0.00  0.00    +0.000 A 
ATOM      4  C   UNL     1       2.019   8.320  18.706  0.00  0.00    +0.000 A 
ATOM      5  C   UNL     1       2.679   7.515  17.765  0.00  0.00    +0.000 A 
ATOM      6  C   UNL     1       3.082   6.214  18.098  0.00  0.00    +0.000 A 
ATOM      7  C   UNL     1       2.807   5.716  19.388  0.00  0.00    +0.000 A 
ATOM      8  C   UNL     1       2.139   6.505  20.322  0.00  0.00    +0.000 A 
ATOM      9  C   UNL     1       1.746   7.806  19.993  0.00  0.00    +0.000 A 
ATOM     10  C   UNL     1       1.088   8.601  20.935  0.00  0.00    +0.000 A 
ENDROOT
BRANCH   1  13
ATOM     11  C   UNL     1      -1.126  12.235  22.540  0.00  0.00    +0.000 A 
ATOM     12  N   UNL     1      -0.668  11.856  21.338  0.00  0.00    +0.000 NA
ATOM     13  C   UNL     1       0.020  10.729  21.626  0.00  0.00    +0.000 A 
ATOM     14  N   UNL     1      -0.022  10.453  22.942  0.00  0.00    +0.000 NA
ATOM     15  O   UNL     1      -0.737  11.401  23.475  0.00  0.00    +0.000 OA
BRANCH  11  23
ATOM     16  N   UNL     1      -5.563  12.764  22.227  0.00  0.00    +0.000 NA
ATOM     17  C   UNL     1      -4.298  12.706  21.996  0.00  0.00    +0.000 C 
ATOM     18  N   UNL     1      -3.844  12.346  20.697  0.00  0.00    +0.000 N 
ATOM     19  N   UNL     1      -3.369  13.038  23.042  0.00  0.00    +0.000 N 
ATOM     20  C   UNL     1      -3.774  13.490  24.351  0.00  0.00    +0.000 C 
ATOM     21  C   UNL     1      -2.903  14.716  24.556  0.00  0.00    +0.000 C 
ATOM     22  C   UNL     1      -1.568  14.202  24.032  0.00  0.00    +0.000 C 
ATOM     23  C   UNL     1      -1.996  13.426  22.776  0.00  0.00    +0.000 C 
ATOM     24  H   UNL     1      -6.256  12.558  21.492  0.00  0.00    +0.000 HD
ATOM     25  H   UNL     1      -4.519  12.129  19.947  0.00  0.00    +0.000 HD
ATOM     26  H   UNL     1      -2.844  12.259  20.475  0.00  0.00    +0.000 HD
ENDBRANCH  11  23
ENDBRANCH   1  13
BRANCH   6  27
ATOM     27  O   UNL     1       3.728   5.480  17.158  0.00  0.00    +0.000 OA
BRANCH  27  28
ATOM     28  C   UNL     1       4.829   4.676  17.388  0.00  0.00    +0.000 C 
BRANCH  28  29
ATOM     29  C   UNL     1       6.000   5.526  17.789  0.00  0.00    +0.000 A 
ATOM     30  C   UNL     1       6.350   6.657  17.034  0.00  0.00    +0.000 A 
ATOM     31  C   UNL     1       7.444   7.443  17.410  0.00  0.00    +0.000 A 
ATOM     32  C   UNL     1       8.188   7.110  18.546  0.00  0.00    +0.000 A 
ATOM     33  C   UNL     1       7.844   5.988  19.304  0.00  0.00    +0.000 A 
ATOM     34  C   UNL     1       6.756   5.196  18.927  0.00  0.00    +0.000 A 
ENDBRANCH  28  29
ENDBRANCH  27  28
ENDBRANCH   6  27
TORSDOF 5
ENDMDL
MODEL 7
REMARK VINA RESULT:      -9.3      7.067      9.292
REMARK  Name = 
REMARK  5 active torsions:
REMARK  status: ('A' for Active; 'I' for Inactive)
REMARK    1  A    between atoms: C_8  and  C_9
REMARK    2  A    between atoms: C_11  and  C_12
REMARK    3  A    between atoms: C_17  and  O_18
REMARK    4  A    between atoms: O_18  and  C_19
REMARK    5  A    between atoms: C_19  and  C_20
REMARK                            x       y       z     vdW  Elec       q    Type
REMARK                         _______ _______ _______ _____ _____    ______ ____
ROOT
ATOM      1  C   UNL     1       1.094   9.384  20.195  0.00  0.00    +0.000 A 
ATOM      2  C   UNL     1       1.359   9.804  18.882  0.00  0.00    +0.000 A 
ATOM      3  C   UNL     1       1.997   8.945  17.981  0.00  0.00    +0.000 A 
ATOM      4  C   UNL     1       2.378   7.657  18.386  0.00  0.00    +0.000 A 
ATOM      5  C   UNL     1       3.020   6.783  17.496  0.00  0.00    +0.000 A 
ATOM      6  C   UNL     1       3.419   5.506  17.915  0.00  0.00    +0.000 A 
ATOM      7  C   UNL     1       3.156   5.101  19.239  0.00  0.00    +0.000 A 
ATOM      8  C   UNL     1       2.505   5.958  20.124  0.00  0.00    +0.000 A 
ATOM      9  C   UNL     1       2.117   7.236  19.709  0.00  0.00    +0.000 A 
ATOM     10  C   UNL     1       1.476   8.100  20.601  0.00  0.00    +0.000 A 
ENDROOT
BRANCH   1  13
ATOM     11  C   UNL     1      -0.692  11.855  21.975  0.00  0.00    +0.000 A 
ATOM     12  N   UNL     1      -0.251  11.389  20.798  0.00  0.00    +0.000 NA
ATOM     13  C   UNL     1       0.432  10.279  21.155  0.00  0.00    +0.000 A 
ATOM     14  N   UNL     1       0.404  10.096  22.488  0.00  0.00    +0.000 NA
ATOM     15  O   UNL     1      -0.297  11.085  22.962  0.00  0.00    +0.000 OA
BRANCH  11  23
ATOM     16  N   UNL     1      -4.465  13.103  19.909  0.00  0.00    +0.000 NA
ATOM     17  C   UNL     1      -3.238  12.916  20.253  0.00  0.00    +0.000 C 
ATOM     18  N   UNL     1      -2.239  12.826  19.244  0.00  0.00    +0.000 N 
ATOM     19  N   UNL     1      -2.896  12.834  21.647  0.00  0.00    +0.000 N 
ATOM     20  C   UNL     1      -3.855  13.000  22.713  0.00  0.00    +0.000 C 
ATOM     21  C   UNL     1      -3.158  13.992  23.626  0.00  0.00    +0.000 C 
ATOM     22  C   UNL     1      -1.742  13.430  23.619  0.00  0.00    +0.000 C 
ATOM     23  C   UNL     1      -1.551  13.066  22.138  0.00  0.00    +0.000 C 
ATOM     24  H   UNL     1      -4.740  13.193  18.920  0.00  0.00    +0.000 HD
ATOM     25  H   UNL     1      -2.493  12.906  18.248  0.00  0.00    +0.000 HD
ATOM     26  H   UNL     1      -1.253  12.649  19.471  0.00  0.00    +0.000 HD
ENDBRANCH  11  23
ENDBRANCH   1  13
BRANCH   6  27
ATOM     27  O   UNL     1       4.047   4.702  17.021  0.00  0.00    +0.000 OA
BRANCH  27  28
ATOM     28  C   UNL     1       5.292   4.128  17.198  0.00  0.00    +0.000 C 
BRANCH  28  29
ATOM     29  C   UNL     1       6.273   5.174  17.645  0.00  0.00    +0.000 A 
ATOM     30  C   UNL     1       6.521   6.303  16.846  0.00  0.00    +0.000 A 
ATOM     31  C   UNL     1       7.438   7.272  17.266  0.00  0.00    +0.000 A 
ATOM     32  C   UNL     1       8.104   7.126  18.486  0.00  0.00    +0.000 A 
ATOM     33  C   UNL     1       7.859   6.007  19.287  0.00  0.00    +0.000 A 
ATOM     34  C   UNL     1       6.949   5.032  18.868  0.00  0.00    +0.000 A 
ENDBRANCH  28  29
ENDBRANCH  27  28
ENDBRANCH   6  27
TORSDOF 5
ENDMDL
MODEL 8
REMARK VINA RESULT:      -9.2      7.497     10.865
REMARK  Name = 
REMARK  5 active torsions:
REMARK  status: ('A' for Active; 'I' for Inactive)
REMARK    1  A    between atoms: C_8  and  C_9
REMARK    2  A    between atoms: C_11  and  C_12
REMARK    3  A    between atoms: C_17  and  O_18
REMARK    4  A    between atoms: O_18  and  C_19
REMARK    5  A    between atoms: C_19  and  C_20
REMARK                            x       y       z     vdW  Elec       q    Type
REMARK                         _______ _______ _______ _____ _____    ______ ____
ROOT
ATOM      1  C   UNL     1       1.714   8.512  19.439  0.00  0.00    +0.000 A 
ATOM      2  C   UNL     1       1.642   9.735  18.754  0.00  0.00    +0.000 A 
ATOM      3  C   UNL     1       1.008  10.836  19.340  0.00  0.00    +0.000 A 
ATOM      4  C   UNL     1       0.437  10.722  20.617  0.00  0.00    +0.000 A 
ATOM      5  C   UNL     1      -0.204  11.815  21.219  0.00  0.00    +0.000 A 
ATOM      6  C   UNL     1      -0.792  11.688  22.485  0.00  0.00    +0.000 A 
ATOM      7  C   UNL     1      -0.721  10.451  23.156  0.00  0.00    +0.000 A 
ATOM      8  C   UNL     1      -0.074   9.365  22.571  0.00  0.00    +0.000 A 
ATOM      9  C   UNL     1       0.504   9.489  21.303  0.00  0.00    +0.000 A 
ATOM     10  C   UNL     1       1.142   8.396  20.712  0.00  0.00    +0.000 A 
ENDROOT
BRANCH   1  13
ATOM     11  C   UNL     1       2.817   5.372  18.262  0.00  0.00    +0.000 A 
ATOM     12  N   UNL     1       1.953   6.072  19.011  0.00  0.00    +0.000 NA
ATOM     13  C   UNL     1       2.370   7.345  18.832  0.00  0.00    +0.000 A 
ATOM     14  N   UNL     1       3.440   7.398  18.016  0.00  0.00    +0.000 NA
ATOM     15  O   UNL     1       3.687   6.165  17.684  0.00  0.00    +0.000 OA
BRANCH  11  23
ATOM     16  N   UNL     1       5.102   2.069  20.247  0.00  0.00    +0.000 NA
ATOM     17  C   UNL     1       4.701   3.007  19.461  0.00  0.00    +0.000 C 
ATOM     18  N   UNL     1       5.663   3.820  18.800  0.00  0.00    +0.000 N 
ATOM     19  N   UNL     1       3.293   3.192  19.238  0.00  0.00    +0.000 N 
ATOM     20  C   UNL     1       2.277   2.345  19.816  0.00  0.00    +0.000 C 
ATOM     21  C   UNL     1       1.407   2.015  18.616  0.00  0.00    +0.000 C 
ATOM     22  C   UNL     1       1.323   3.381  17.948  0.00  0.00    +0.000 C 
ATOM     23  C   UNL     1       2.768   3.890  18.079  0.00  0.00    +0.000 C 
ATOM     24  H   UNL     1       6.105   1.892  20.407  0.00  0.00    +0.000 HD
ATOM     25  H   UNL     1       6.672   3.666  18.951  0.00  0.00    +0.000 HD
ATOM     26  H   UNL     1       5.388   4.597  18.187  0.00  0.00    +0.000 HD
ENDBRANCH  11  23
ENDBRANCH   1  13
BRANCH   6  27
ATOM     27  O   UNL     1      -1.411  12.770  23.019  0.00  0.00    +0.000 OA
BRANCH  27  28
ATOM     28  C   UNL     1      -2.073  13.749  22.301  0.00  0.00    +0.000 C 
BRANCH  28  29
ATOM     29  C   UNL     1      -3.506  13.348  22.102  0.00  0.00    +0.000 A 
ATOM     30  C   UNL     1      -4.406  13.366  23.181  0.00  0.00    +0.000 A 
ATOM     31  C   UNL     1      -5.739  12.988  22.991  0.00  0.00    +0.000 A 
ATOM     32  C   UNL     1      -6.184  12.601  21.723  0.00  0.00    +0.000 A 
ATOM     33  C   UNL     1      -5.295  12.584  20.645  0.00  0.00    +0.000 A 
ATOM     34  C   UNL     1      -3.960  12.953  20.832  0.00  0.00    +0.000 A 
ENDBRANCH  28  29
ENDBRANCH  27  28
ENDBRANCH   6  27
TORSDOF 5
ENDMDL
MODEL 9
REMARK VINA RESULT:      -9.1      8.438     11.516
REMARK  Name = 
REMARK  5 active torsions:
REMARK  status: ('A' for Active; 'I' for Inactive)
REMARK    1  A    between atoms: C_8  and  C_9
REMARK    2  A    between atoms: C_11  and  C_12
REMARK    3  A    between atoms: C_17  and  O_18
REMARK    4  A    between atoms: O_18  and  C_19
REMARK    5  A    between atoms: C_19  and  C_20
REMARK                            x       y       z     vdW  Elec       q    Type
REMARK                         _______ _______ _______ _____ _____    ______ ____
ROOT
ATOM      1  C   UNL     1       0.824   8.913  20.760  0.00  0.00    +0.000 A 
ATOM      2  C   UNL     1       0.775   8.786  22.158  0.00  0.00    +0.000 A 
ATOM      3  C   UNL     1      -0.018   9.653  22.918  0.00  0.00    +0.000 A 
ATOM      4  C   UNL     1      -0.768  10.656  22.286  0.00  0.00    +0.000 A 
ATOM      5  C   UNL     1      -1.568  11.536  23.033  0.00  0.00    +0.000 A 
ATOM      6  C   UNL     1      -2.296  12.550  22.398  0.00  0.00    +0.000 A 
ATOM      7  C   UNL     1      -2.230  12.672  20.995  0.00  0.00    +0.000 A 
ATOM      8  C   UNL     1      -1.450  11.794  20.245  0.00  0.00    +0.000 A 
ATOM      9  C   UNL     1      -0.714  10.788  20.881  0.00  0.00    +0.000 A 
ATOM     10  C   UNL     1       0.077   9.916  20.129  0.00  0.00    +0.000 A 
ENDROOT
BRANCH   1  13
ATOM     11  C   UNL     1       2.699   6.319  19.272  0.00  0.00    +0.000 A 
ATOM     12  N   UNL     1       1.959   6.746  20.306  0.00  0.00    +0.000 NA
ATOM     13  C   UNL     1       1.658   8.014  19.950  0.00  0.00    +0.000 A 
ATOM     14  N   UNL     1       2.200   8.330  18.759  0.00  0.00    +0.000 NA
ATOM     15  O   UNL     1       2.834   7.262  18.370  0.00  0.00    +0.000 OA
BRANCH  11  23
ATOM     16  N   UNL     1       0.710   2.370  18.553  0.00  0.00    +0.000 NA
ATOM     17  C   UNL     1       1.231   3.423  19.081  0.00  0.00    +0.000 C 
ATOM     18  N   UNL     1       0.708   3.918  20.307  0.00  0.00    +0.000 N 
ATOM     19  N   UNL     1       2.351   4.058  18.440  0.00  0.00    +0.000 N 
ATOM     20  C   UNL     1       2.974   3.551  17.240  0.00  0.00    +0.000 C 
ATOM     21  C   UNL     1       4.447   3.573  17.605  0.00  0.00    +0.000 C 
ATOM     22  C   UNL     1       4.543   4.925  18.299  0.00  0.00    +0.000 C 
ATOM     23  C   UNL     1       3.260   4.940  19.147  0.00  0.00    +0.000 C 
ATOM     24  H   UNL     1      -0.076   1.876  19.000  0.00  0.00    +0.000 HD
ATOM     25  H   UNL     1      -0.083   3.444  20.769  0.00  0.00    +0.000 HD
ATOM     26  H   UNL     1       1.075   4.771  20.749  0.00  0.00    +0.000 HD
ENDBRANCH  11  23
ENDBRANCH   1  13
BRANCH   6  27
ATOM     27  O   UNL     1      -3.044  13.382  23.165  0.00  0.00    +0.000 OA
BRANCH  27  28
ATOM     28  C   UNL     1      -4.059  14.200  22.703  0.00  0.00    +0.000 C 
BRANCH  28  29
ATOM     29  C   UNL     1      -5.355  13.442  22.694  0.00  0.00    +0.000 A 
ATOM     30  C   UNL     1      -5.900  12.980  21.485  0.00  0.00    +0.000 A 
ATOM     31  C   UNL     1      -7.109  12.277  21.482  0.00  0.00    +0.000 A 
ATOM     32  C   UNL     1      -7.776  12.024  22.685  0.00  0.00    +0.000 A 
ATOM     33  C   UNL     1      -7.237  12.478  23.892  0.00  0.00    +0.000 A 
ATOM     34  C   UNL     1      -6.033  13.187  23.898  0.00  0.00    +0.000 A 
ENDBRANCH  28  29
ENDBRANCH  27  28
ENDBRANCH   6  27
TORSDOF 5
ENDMDL
