MODEL 1
REMARK VINA RESULT:      -7.3      0.000      0.000
REMARK  Name = 
REMARK  13 active torsions:
REMARK  status: ('A' for Active; 'I' for Inactive)
REMARK    1  A    between atoms: C_1  and  C_2
REMARK    2  A    between atoms: C_3  and  C_4
REMARK    3  A    between atoms: C_5  and  C_6
REMARK    4  A    between atoms: C_6  and  C_7
REMARK    5  A    between atoms: C_8  and  C_9
REMARK    6  A    between atoms: C_10  and  C_11
REMARK    7  A    between atoms: C_11  and  C_12
REMARK    8  A    between atoms: C_13  and  C_14
REMARK    9  A    between atoms: N_16  and  C_17
REMARK   10  A    between atoms: C_17  and  C_18
REMARK   11  A    between atoms: C_18  and  O_19
REMARK   12  A    between atoms: C_20  and  C_21
REMARK   13  A    between atoms: C_20  and  C_22
REMARK                            x       y       z     vdW  Elec       q    Type
REMARK                         _______ _______ _______ _____ _____    ______ ____
ROOT
ATOM      1  C   UNL     1       2.366   7.781  18.635  0.00  0.00    +0.000 C 
ATOM      2  C   UNL     1       3.450   7.585  17.598  0.00  0.00    +0.000 C 
ATOM      3  C   UNL     1       2.092   6.801  19.525  0.00  0.00    +0.000 C 
ENDROOT
BRANCH   1   5
ATOM      4  C   UNL     1       0.537   9.309  19.451  0.00  0.00    +0.000 C 
ATOM      5  C   UNL     1       1.603   9.038  18.676  0.00  0.00    +0.000 C 
BRANCH   4   8
ATOM      6  C   UNL     1      -1.555  10.014  17.402  0.00  0.00    +0.000 C 
ATOM      7  C   UNL     1      -1.129  10.899  18.550  0.00  0.00    +0.000 C 
ATOM      8  C   UNL     1      -0.215  10.568  19.496  0.00  0.00    +0.000 C 
ATOM      9  C   UNL     1       0.026  11.455  20.748  0.00  0.00    +0.000 C 
ATOM     10  C   UNL     1      -0.017  10.644  22.066  0.00  0.00    +0.000 C 
ATOM     11  C   UNL     1       1.407  12.139  20.651  0.00  0.00    +0.000 C 
ATOM     12  C   UNL     1      -1.071  12.547  20.891  0.00  0.00    +0.000 C 
ATOM     13  C   UNL     1      -1.379  13.229  19.570  0.00  0.00    +0.000 C 
ATOM     14  C   UNL     1      -1.897  12.206  18.571  0.00  0.00    +0.000 C 
ENDBRANCH   4   8
ENDBRANCH   1   5
BRANCH   3  15
ATOM     15  C   UNL     1       2.742   5.494  19.575  0.00  0.00    +0.000 C 
ATOM     16  C   UNL     1       2.361   4.458  18.811  0.00  0.00    +0.000 C 
BRANCH  16  17
ATOM     17  C   UNL     1       2.990   3.139  18.757  0.00  0.00    +0.000 C 
ATOM     18  C   UNL     1       2.229   1.940  19.277  0.00  0.00    +0.000 C 
ATOM     19  C   UNL     1       4.223   2.926  18.245  0.00  0.00    +0.000 C 
BRANCH  19  20
ATOM     20  C   UNL     1       5.118   3.955  17.652  0.00  0.00    +0.000 C 
ATOM     21  O   UNL     1       4.851   4.584  16.634  0.00  0.00    +0.000 OA
ATOM     22  N   UNL     1       6.290   4.130  18.346  0.00  0.00    +0.000 N 
ATOM     23  H   UNL     1       6.471   3.618  19.199  0.00  0.00    +0.000 HD
BRANCH  22  24
ATOM     24  C   UNL     1       7.273   5.106  17.895  0.00  0.00    +0.000 C 
BRANCH  24  25
ATOM     25  C   UNL     1       7.669   6.082  19.002  0.00  0.00    +0.000 C 
BRANCH  25  26
ATOM     26  O   UNL     1       7.768   5.391  20.247  0.00  0.00    +0.000 OA
ATOM     27  H   UNL     1       8.710   5.407  20.488  0.00  0.00    +0.000 HD
ENDBRANCH  25  26
ENDBRANCH  24  25
ENDBRANCH  22  24
ENDBRANCH  19  20
ENDBRANCH  16  17
ENDBRANCH   3  15
TORSDOF 8
ENDMDL
MODEL 2
REMARK VINA RESULT:      -7.3      5.439      8.022
REMARK  Name = 
REMARK  13 active torsions:
REMARK  status: ('A' for Active; 'I' for Inactive)
REMARK    1  A    between atoms: C_1  and  C_2
REMARK    2  A    between atoms: C_3  and  C_4
REMARK    3  A    between atoms: C_5  and  C_6
REMARK    4  A    between atoms: C_6  and  C_7
REMARK    5  A    between atoms: C_8  and  C_9
REMARK    6  A    between atoms: C_10  and  C_11
REMARK    7  A    between atoms: C_11  and  C_12
REMARK    8  A    between atoms: C_13  and  C_14
REMARK    9  A    between atoms: N_16  and  C_17
REMARK   10  A    between atoms: C_17  and  C_18
REMARK   11  A    between atoms: C_18  and  O_19
REMARK   12  A    between atoms: C_20  and  C_21
REMARK   13  A    between atoms: C_20  and  C_22
REMARK                            x       y       z     vdW  Elec       q    Type
REMARK                         _______ _______ _______ _____ _____    ______ ____
ROOT
ATOM      1  C   UNL     1       8.210   8.250  18.276  0.00  0.00    +0.000 C 
ATOM      2  C   UNL     1       8.583   7.157  19.252  0.00  0.00    +0.000 C 
ATOM      3  C   UNL     1       7.549   7.947  17.136  0.00  0.00    +0.000 C 
ENDROOT
BRANCH   1   5
ATOM      4  C   UNL     1       9.425  10.085  19.503  0.00  0.00    +0.000 C 
ATOM      5  C   UNL     1       8.569   9.648  18.561  0.00  0.00    +0.000 C 
BRANCH   4   8
ATOM      6  C   UNL     1       8.584  11.506  22.022  0.00  0.00    +0.000 C 
ATOM      7  C   UNL     1       9.374  12.128  20.896  0.00  0.00    +0.000 C 
ATOM      8  C   UNL     1       9.787  11.481  19.778  0.00  0.00    +0.000 C 
ATOM      9  C   UNL     1      10.756  12.140  18.758  0.00  0.00    +0.000 C 
ATOM     10  C   UNL     1      11.959  11.230  18.410  0.00  0.00    +0.000 C 
ATOM     11  C   UNL     1      10.004  12.462  17.449  0.00  0.00    +0.000 C 
ATOM     12  C   UNL     1      11.370  13.451  19.326  0.00  0.00    +0.000 C 
ATOM     13  C   UNL     1      10.333  14.325  20.007  0.00  0.00    +0.000 C 
ATOM     14  C   UNL     1       9.721  13.576  21.181  0.00  0.00    +0.000 C 
ENDBRANCH   4   8
ENDBRANCH   1   5
BRANCH   3  15
ATOM     15  C   UNL     1       7.164   6.605  16.710  0.00  0.00    +0.000 C 
ATOM     16  C   UNL     1       5.891   6.182  16.683  0.00  0.00    +0.000 C 
BRANCH  16  17
ATOM     17  C   UNL     1       5.416   4.880  16.218  0.00  0.00    +0.000 C 
ATOM     18  C   UNL     1       5.574   4.519  14.758  0.00  0.00    +0.000 C 
ATOM     19  C   UNL     1       4.852   3.962  17.034  0.00  0.00    +0.000 C 
BRANCH  19  20
ATOM     20  C   UNL     1       4.639   4.101  18.500  0.00  0.00    +0.000 C 
ATOM     21  O   UNL     1       5.549   4.117  19.321  0.00  0.00    +0.000 OA
ATOM     22  N   UNL     1       3.317   4.198  18.857  0.00  0.00    +0.000 N 
ATOM     23  H   UNL     1       2.588   4.210  18.155  0.00  0.00    +0.000 HD
BRANCH  22  24
ATOM     24  C   UNL     1       2.942   4.343  20.257  0.00  0.00    +0.000 C 
BRANCH  24  25
ATOM     25  C   UNL     1       1.845   3.362  20.667  0.00  0.00    +0.000 C 
BRANCH  25  26
ATOM     26  O   UNL     1       2.139   2.812  21.951  0.00  0.00    +0.000 OA
ATOM     27  H   UNL     1       3.070   2.535  21.917  0.00  0.00    +0.000 HD
ENDBRANCH  25  26
ENDBRANCH  24  25
ENDBRANCH  22  24
ENDBRANCH  19  20
ENDBRANCH  16  17
ENDBRANCH   3  15
TORSDOF 8
ENDMDL
MODEL 3
REMARK VINA RESULT:      -7.2      1.760      3.732
REMARK  Name = 
REMARK  13 active torsions:
REMARK  status: ('A' for Active; 'I' for Inactive)
REMARK    1  A    between atoms: C_1  and  C_2
REMARK    2  A    between atoms: C_3  and  C_4
REMARK    3  A    between atoms: C_5  and  C_6
REMARK    4  A    between atoms: C_6  and  C_7
REMARK    5  A    between atoms: C_8  and  C_9
REMARK    6  A    between atoms: C_10  and  C_11
REMARK    7  A    between atoms: C_11  and  C_12
REMARK    8  A    between atoms: C_13  and  C_14
REMARK    9  A    between atoms: N_16  and  C_17
REMARK   10  A    between atoms: C_17  and  C_18
REMARK   11  A    between atoms: C_18  and  O_19
REMARK   12  A    between atoms: C_20  and  C_21
REMARK   13  A    between atoms: C_20  and  C_22
REMARK                            x       y       z     vdW  Elec       q    Type
REMARK                         _______ _______ _______ _____ _____    ______ ____
ROOT
ATOM      1  C   UNL     1       1.944   7.778  19.636  0.00  0.00    +0.000 C 
ATOM      2  C   UNL     1       2.034   6.453  20.358  0.00  0.00    +0.000 C 
ATOM      3  C   UNL     1       2.376   7.887  18.360  0.00  0.00    +0.000 C 
ENDROOT
BRANCH   1   5
ATOM      4  C   UNL     1       0.131   9.426  20.225  0.00  0.00    +0.000 C 
ATOM      5  C   UNL     1       1.388   8.956  20.321  0.00  0.00    +0.000 C 
BRANCH   4   8
ATOM      6  C   UNL     1      -0.232   9.509  23.214  0.00  0.00    +0.000 C 
ATOM      7  C   UNL     1      -0.619  10.615  22.260  0.00  0.00    +0.000 C 
ATOM      8  C   UNL     1      -0.421  10.596  20.918  0.00  0.00    +0.000 C 
ATOM      9  C   UNL     1      -0.672  11.848  20.034  0.00  0.00    +0.000 C 
ATOM     10  C   UNL     1       0.525  12.168  19.106  0.00  0.00    +0.000 C 
ATOM     11  C   UNL     1      -1.918  11.628  19.150  0.00  0.00    +0.000 C 
ATOM     12  C   UNL     1      -0.884  13.121  20.901  0.00  0.00    +0.000 C 
ATOM     13  C   UNL     1      -1.810  12.869  22.077  0.00  0.00    +0.000 C 
ATOM     14  C   UNL     1      -1.210  11.807  22.986  0.00  0.00    +0.000 C 
ENDBRANCH   4   8
ENDBRANCH   1   5
BRANCH   3  15
ATOM     15  C   UNL     1       2.981   6.815  17.574  0.00  0.00    +0.000 C 
ATOM     16  C   UNL     1       4.307   6.678  17.422  0.00  0.00    +0.000 C 
BRANCH  16  17
ATOM     17  C   UNL     1       4.995   5.607  16.704  0.00  0.00    +0.000 C 
ATOM     18  C   UNL     1       5.457   5.852  15.285  0.00  0.00    +0.000 C 
ATOM     19  C   UNL     1       5.261   4.400  17.250  0.00  0.00    +0.000 C 
BRANCH  19  20
ATOM     20  C   UNL     1       4.929   3.969  18.635  0.00  0.00    +0.000 C 
ATOM     21  O   UNL     1       5.672   4.134  19.595  0.00  0.00    +0.000 OA
ATOM     22  N   UNL     1       3.707   3.352  18.740  0.00  0.00    +0.000 N 
ATOM     23  H   UNL     1       3.101   3.255  17.935  0.00  0.00    +0.000 HD
BRANCH  22  24
ATOM     24  C   UNL     1       3.233   2.875  20.032  0.00  0.00    +0.000 C 
BRANCH  24  25
ATOM     25  C   UNL     1       1.777   2.414  19.980  0.00  0.00    +0.000 C 
BRANCH  25  26
ATOM     26  O   UNL     1       1.579   1.552  18.859  0.00  0.00    +0.000 OA
ATOM     27  H   UNL     1       1.063   0.797  19.188  0.00  0.00    +0.000 HD
ENDBRANCH  25  26
ENDBRANCH  24  25
ENDBRANCH  22  24
ENDBRANCH  19  20
ENDBRANCH  16  17
ENDBRANCH   3  15
TORSDOF 8
ENDMDL
MODEL 4
REMARK VINA RESULT:      -7.2      1.540      2.452
REMARK  Name = 
REMARK  13 active torsions:
REMARK  status: ('A' for Active; 'I' for Inactive)
REMARK    1  A    between atoms: C_1  and  C_2
REMARK    2  A    between atoms: C_3  and  C_4
REMARK    3  A    between atoms: C_5  and  C_6
REMARK    4  A    between atoms: C_6  and  C_7
REMARK    5  A    between atoms: C_8  and  C_9
REMARK    6  A    between atoms: C_10  and  C_11
REMARK    7  A    between atoms: C_11  and  C_12
REMARK    8  A    between atoms: C_13  and  C_14
REMARK    9  A    between atoms: N_16  and  C_17
REMARK   10  A    between atoms: C_17  and  C_18
REMARK   11  A    between atoms: C_18  and  O_19
REMARK   12  A    between atoms: C_20  and  C_21
REMARK   13  A    between atoms: C_20  and  C_22
REMARK                            x       y       z     vdW  Elec       q    Type
REMARK                         _______ _______ _______ _____ _____    ______ ____
ROOT
ATOM      1  C   UNL     1       1.917   7.366  20.111  0.00  0.00    +0.000 C 
ATOM      2  C   UNL     1       2.628   7.285  18.779  0.00  0.00    +0.000 C 
ATOM      3  C   UNL     1       1.704   6.246  20.837  0.00  0.00    +0.000 C 
ENDROOT
BRANCH   1   5
ATOM      4  C   UNL     1       0.272   9.259  20.357  0.00  0.00    +0.000 C 
ATOM      5  C   UNL     1       1.450   8.666  20.620  0.00  0.00    +0.000 C 
BRANCH   4   8
ATOM      6  C   UNL     1      -0.380   9.692  23.265  0.00  0.00    +0.000 C 
ATOM      7  C   UNL     1      -0.522  10.731  22.179  0.00  0.00    +0.000 C 
ATOM      8  C   UNL     1      -0.193  10.551  20.875  0.00  0.00    +0.000 C 
ATOM      9  C   UNL     1      -0.189  11.726  19.860  0.00  0.00    +0.000 C 
ATOM     10  C   UNL     1       1.127  11.805  19.049  0.00  0.00    +0.000 C 
ATOM     11  C   UNL     1      -1.358  11.565  18.863  0.00  0.00    +0.000 C 
ATOM     12  C   UNL     1      -0.323  13.098  20.579  0.00  0.00    +0.000 C 
ATOM     13  C   UNL     1      -1.388  13.080  21.661  0.00  0.00    +0.000 C 
ATOM     14  C   UNL     1      -1.025  12.053  22.723  0.00  0.00    +0.000 C 
ENDBRANCH   4   8
ENDBRANCH   1   5
BRANCH   3  15
ATOM     15  C   UNL     1       2.078   4.893  20.438  0.00  0.00    +0.000 C 
ATOM     16  C   UNL     1       1.828   4.394  19.217  0.00  0.00    +0.000 C 
BRANCH  16  17
ATOM     17  C   UNL     1       2.218   3.076  18.719  0.00  0.00    +0.000 C 
ATOM     18  C   UNL     1       1.171   1.989  18.621  0.00  0.00    +0.000 C 
ATOM     19  C   UNL     1       3.473   2.776  18.318  0.00  0.00    +0.000 C 
BRANCH  19  20
ATOM     20  C   UNL     1       4.635   3.705  18.298  0.00  0.00    +0.000 C 
ATOM     21  O   UNL     1       5.386   3.876  19.252  0.00  0.00    +0.000 OA
ATOM     22  N   UNL     1       4.786   4.371  17.106  0.00  0.00    +0.000 N 
ATOM     23  H   UNL     1       4.169   4.188  16.326  0.00  0.00    +0.000 HD
BRANCH  22  24
ATOM     24  C   UNL     1       5.881   5.315  16.925  0.00  0.00    +0.000 C 
BRANCH  24  25
ATOM     25  C   UNL     1       7.102   4.666  16.275  0.00  0.00    +0.000 C 
BRANCH  25  26
ATOM     26  O   UNL     1       7.973   4.150  17.282  0.00  0.00    +0.000 OA
ATOM     27  H   UNL     1       7.645   4.504  18.127  0.00  0.00    +0.000 HD
ENDBRANCH  25  26
ENDBRANCH  24  25
ENDBRANCH  22  24
ENDBRANCH  19  20
ENDBRANCH  16  17
ENDBRANCH   3  15
TORSDOF 8
ENDMDL
MODEL 5
REMARK VINA RESULT:      -7.2      4.558      9.292
REMARK  Name = 
REMARK  13 active torsions:
REMARK  status: ('A' for Active; 'I' for Inactive)
REMARK    1  A    between atoms: C_1  and  C_2
REMARK    2  A    between atoms: C_3  and  C_4
REMARK    3  A    between atoms: C_5  and  C_6
REMARK    4  A    between atoms: C_6  and  C_7
REMARK    5  A    between atoms: C_8  and  C_9
REMARK    6  A    between atoms: C_10  and  C_11
REMARK    7  A    between atoms: C_11  and  C_12
REMARK    8  A    between atoms: C_13  and  C_14
REMARK    9  A    between atoms: N_16  and  C_17
REMARK   10  A    between atoms: C_17  and  C_18
REMARK   11  A    between atoms: C_18  and  O_19
REMARK   12  A    between atoms: C_20  and  C_21
REMARK   13  A    between atoms: C_20  and  C_22
REMARK                            x       y       z     vdW  Elec       q    Type
REMARK                         _______ _______ _______ _____ _____    ______ ____
ROOT
ATOM      1  C   UNL     1       1.598   9.425  17.913  0.00  0.00    +0.000 C 
ATOM      2  C   UNL     1       2.473  10.658  17.923  0.00  0.00    +0.000 C 
ATOM      3  C   UNL     1       0.282   9.524  18.203  0.00  0.00    +0.000 C 
ENDROOT
BRANCH   1   5
ATOM      4  C   UNL     1       2.929   7.342  18.400  0.00  0.00    +0.000 C 
ATOM      5  C   UNL     1       2.178   8.112  17.592  0.00  0.00    +0.000 C 
BRANCH   4   8
ATOM      6  C   UNL     1       5.601   7.025  17.047  0.00  0.00    +0.000 C 
ATOM      7  C   UNL     1       4.684   5.890  17.434  0.00  0.00    +0.000 C 
ATOM      8  C   UNL     1       3.497   6.028  18.078  0.00  0.00    +0.000 C 
ATOM      9  C   UNL     1       2.706   4.802  18.610  0.00  0.00    +0.000 C 
ATOM     10  C   UNL     1       2.284   4.965  20.090  0.00  0.00    +0.000 C 
ATOM     11  C   UNL     1       1.428   4.595  17.767  0.00  0.00    +0.000 C 
ATOM     12  C   UNL     1       3.563   3.506  18.557  0.00  0.00    +0.000 C 
ATOM     13  C   UNL     1       4.317   3.368  17.246  0.00  0.00    +0.000 C 
ATOM     14  C   UNL     1       5.271   4.540  17.075  0.00  0.00    +0.000 C 
ENDBRANCH   4   8
ENDBRANCH   1   5
BRANCH   3  15
ATOM     15  C   UNL     1      -0.415  10.752  18.574  0.00  0.00    +0.000 C 
ATOM     16  C   UNL     1      -1.358  10.799  19.528  0.00  0.00    +0.000 C 
BRANCH  16  17
ATOM     17  C   UNL     1      -2.061  11.991  20.000  0.00  0.00    +0.000 C 
ATOM     18  C   UNL     1      -1.419  12.849  21.066  0.00  0.00    +0.000 C 
ATOM     19  C   UNL     1      -3.261  12.384  19.516  0.00  0.00    +0.000 C 
BRANCH  19  20
ATOM     20  C   UNL     1      -4.041  11.708  18.445  0.00  0.00    +0.000 C 
ATOM     21  O   UNL     1      -5.091  11.107  18.644  0.00  0.00    +0.000 OA
ATOM     22  N   UNL     1      -3.468  11.806  17.201  0.00  0.00    +0.000 N 
ATOM     23  H   UNL     1      -2.616  12.333  17.061  0.00  0.00    +0.000 HD
BRANCH  22  24
ATOM     24  C   UNL     1      -4.112  11.199  16.045  0.00  0.00    +0.000 C 
BRANCH  24  25
ATOM     25  C   UNL     1      -3.104  10.571  15.084  0.00  0.00    +0.000 C 
BRANCH  25  26
ATOM     26  O   UNL     1      -3.781  10.046  13.942  0.00  0.00    +0.000 OA
ATOM     27  H   UNL     1      -4.307  10.780  13.581  0.00  0.00    +0.000 HD
ENDBRANCH  25  26
ENDBRANCH  24  25
ENDBRANCH  22  24
ENDBRANCH  19  20
ENDBRANCH  16  17
ENDBRANCH   3  15
TORSDOF 8
ENDMDL
MODEL 6
REMARK VINA RESULT:      -7.1      2.203      4.199
REMARK  Name = 
REMARK  13 active torsions:
REMARK  status: ('A' for Active; 'I' for Inactive)
REMARK    1  A    between atoms: C_1  and  C_2
REMARK    2  A    between atoms: C_3  and  C_4
REMARK    3  A    between atoms: C_5  and  C_6
REMARK    4  A    between atoms: C_6  and  C_7
REMARK    5  A    between atoms: C_8  and  C_9
REMARK    6  A    between atoms: C_10  and  C_11
REMARK    7  A    between atoms: C_11  and  C_12
REMARK    8  A    between atoms: C_13  and  C_14
REMARK    9  A    between atoms: N_16  and  C_17
REMARK   10  A    between atoms: C_17  and  C_18
REMARK   11  A    between atoms: C_18  and  O_19
REMARK   12  A    between atoms: C_20  and  C_21
REMARK   13  A    between atoms: C_20  and  C_22
REMARK                            x       y       z     vdW  Elec       q    Type
REMARK                         _______ _______ _______ _____ _____    ______ ____
ROOT
ATOM      1  C   UNL     1       1.151   9.678  18.343  0.00  0.00    +0.000 C 
ATOM      2  C   UNL     1       2.213  10.712  18.043  0.00  0.00    +0.000 C 
ATOM      3  C   UNL     1       1.453   8.361  18.295  0.00  0.00    +0.000 C 
ENDROOT
BRANCH   1   5
ATOM      4  C   UNL     1      -0.966  11.008  18.034  0.00  0.00    +0.000 C 
ATOM      5  C   UNL     1      -0.216  10.101  18.686  0.00  0.00    +0.000 C 
BRANCH   4   8
ATOM      6  C   UNL     1      -1.564  12.917  20.285  0.00  0.00    +0.000 C 
ATOM      7  C   UNL     1      -2.601  12.250  19.413  0.00  0.00    +0.000 C 
ATOM      8  C   UNL     1      -2.333  11.420  18.374  0.00  0.00    +0.000 C 
ATOM      9  C   UNL     1      -3.446  10.927  17.410  0.00  0.00    +0.000 C 
ATOM     10  C   UNL     1      -3.075  11.132  15.921  0.00  0.00    +0.000 C 
ATOM     11  C   UNL     1      -3.711   9.423  17.635  0.00  0.00    +0.000 C 
ATOM     12  C   UNL     1      -4.771  11.712  17.624  0.00  0.00    +0.000 C 
ATOM     13  C   UNL     1      -5.110  11.879  19.095  0.00  0.00    +0.000 C 
ATOM     14  C   UNL     1      -4.009  12.665  19.790  0.00  0.00    +0.000 C 
ENDBRANCH   4   8
ENDBRANCH   1   5
BRANCH   3  15
ATOM     15  C   UNL     1       2.752   7.801  17.934  0.00  0.00    +0.000 C 
ATOM     16  C   UNL     1       3.011   6.484  17.949  0.00  0.00    +0.000 C 
BRANCH  16  17
ATOM     17  C   UNL     1       4.260   5.838  17.550  0.00  0.00    +0.000 C 
ATOM     18  C   UNL     1       5.327   6.661  16.864  0.00  0.00    +0.000 C 
ATOM     19  C   UNL     1       4.525   4.532  17.779  0.00  0.00    +0.000 C 
BRANCH  19  20
ATOM     20  C   UNL     1       3.633   3.561  18.468  0.00  0.00    +0.000 C 
ATOM     21  O   UNL     1       2.831   2.842  17.884  0.00  0.00    +0.000 OA
ATOM     22  N   UNL     1       3.780   3.552  19.833  0.00  0.00    +0.000 N 
ATOM     23  H   UNL     1       4.471   4.137  20.286  0.00  0.00    +0.000 HD
BRANCH  22  24
ATOM     24  C   UNL     1       2.980   2.653  20.653  0.00  0.00    +0.000 C 
BRANCH  24  25
ATOM     25  C   UNL     1       1.731   3.334  21.208  0.00  0.00    +0.000 C 
BRANCH  25  26
ATOM     26  O   UNL     1       0.667   3.246  20.261  0.00  0.00    +0.000 OA
ATOM     27  H   UNL     1       0.470   4.160  19.993  0.00  0.00    +0.000 HD
ENDBRANCH  25  26
ENDBRANCH  24  25
ENDBRANCH  22  24
ENDBRANCH  19  20
ENDBRANCH  16  17
ENDBRANCH   3  15
TORSDOF 8
ENDMDL
MODEL 7
REMARK VINA RESULT:      -7.1      2.115      3.893
REMARK  Name = 
REMARK  13 active torsions:
REMARK  status: ('A' for Active; 'I' for Inactive)
REMARK    1  A    between atoms: C_1  and  C_2
REMARK    2  A    between atoms: C_3  and  C_4
REMARK    3  A    between atoms: C_5  and  C_6
REMARK    4  A    between atoms: C_6  and  C_7
REMARK    5  A    between atoms: C_8  and  C_9
REMARK    6  A    between atoms: C_10  and  C_11
REMARK    7  A    between atoms: C_11  and  C_12
REMARK    8  A    between atoms: C_13  and  C_14
REMARK    9  A    between atoms: N_16  and  C_17
REMARK   10  A    between atoms: C_17  and  C_18
REMARK   11  A    between atoms: C_18  and  O_19
REMARK   12  A    between atoms: C_20  and  C_21
REMARK   13  A    between atoms: C_20  and  C_22
REMARK                            x       y       z     vdW  Elec       q    Type
REMARK                         _______ _______ _______ _____ _____    ______ ____
ROOT
ATOM      1  C   UNL     1       1.462   9.439  18.666  0.00  0.00    +0.000 C 
ATOM      2  C   UNL     1       2.203  10.366  17.729  0.00  0.00    +0.000 C 
ATOM      3  C   UNL     1       1.768   8.123  18.702  0.00  0.00    +0.000 C 
ENDROOT
BRANCH   1   5
ATOM      4  C   UNL     1       0.518  10.961  20.439  0.00  0.00    +0.000 C 
ATOM      5  C   UNL     1       0.402   9.966  19.540  0.00  0.00    +0.000 C 
BRANCH   4   8
ATOM      6  C   UNL     1      -0.148   9.741  23.111  0.00  0.00    +0.000 C 
ATOM      7  C   UNL     1      -0.867  10.913  22.488  0.00  0.00    +0.000 C 
ATOM      8  C   UNL     1      -0.544  11.489  21.302  0.00  0.00    +0.000 C 
ATOM      9  C   UNL     1      -1.210  12.808  20.823  0.00  0.00    +0.000 C 
ATOM     10  C   UNL     1      -0.174  13.866  20.373  0.00  0.00    +0.000 C 
ATOM     11  C   UNL     1      -2.150  12.521  19.632  0.00  0.00    +0.000 C 
ATOM     12  C   UNL     1      -2.028  13.478  21.963  0.00  0.00    +0.000 C 
ATOM     13  C   UNL     1      -2.874  12.477  22.729  0.00  0.00    +0.000 C 
ATOM     14  C   UNL     1      -1.977  11.435  23.378  0.00  0.00    +0.000 C 
ENDBRANCH   4   8
ENDBRANCH   1   5
BRANCH   3  15
ATOM     15  C   UNL     1       2.765   7.461  17.868  0.00  0.00    +0.000 C 
ATOM     16  C   UNL     1       3.538   6.455  18.308  0.00  0.00    +0.000 C 
BRANCH  16  17
ATOM     17  C   UNL     1       4.517   5.702  17.526  0.00  0.00    +0.000 C 
ATOM     18  C   UNL     1       5.790   6.389  17.085  0.00  0.00    +0.000 C 
ATOM     19  C   UNL     1       4.354   4.404  17.187  0.00  0.00    +0.000 C 
BRANCH  19  20
ATOM     20  C   UNL     1       3.201   3.538  17.551  0.00  0.00    +0.000 C 
ATOM     21  O   UNL     1       2.225   3.366  16.830  0.00  0.00    +0.000 OA
ATOM     22  N   UNL     1       3.321   2.952  18.787  0.00  0.00    +0.000 N 
ATOM     23  H   UNL     1       4.151   3.088  19.349  0.00  0.00    +0.000 HD
BRANCH  22  24
ATOM     24  C   UNL     1       2.275   2.071  19.288  0.00  0.00    +0.000 C 
BRANCH  24  25
ATOM     25  C   UNL     1       1.613   2.619  20.551  0.00  0.00    +0.000 C 
BRANCH  25  26
ATOM     26  O   UNL     1       0.382   3.260  20.216  0.00  0.00    +0.000 OA
ATOM     27  H   UNL     1       0.598   3.911  19.527  0.00  0.00    +0.000 HD
ENDBRANCH  25  26
ENDBRANCH  24  25
ENDBRANCH  22  24
ENDBRANCH  19  20
ENDBRANCH  16  17
ENDBRANCH   3  15
TORSDOF 8
ENDMDL
MODEL 8
REMARK VINA RESULT:      -7.1      1.574      1.847
REMARK  Name = 
REMARK  13 active torsions:
REMARK  status: ('A' for Active; 'I' for Inactive)
REMARK    1  A    between atoms: C_1  and  C_2
REMARK    2  A    between atoms: C_3  and  C_4
REMARK    3  A    between atoms: C_5  and  C_6
REMARK    4  A    between atoms: C_6  and  C_7
REMARK    5  A    between atoms: C_8  and  C_9
REMARK    6  A    between atoms: C_10  and  C_11
REMARK    7  A    between atoms: C_11  and  C_12
REMARK    8  A    between atoms: C_13  and  C_14
REMARK    9  A    between atoms: N_16  and  C_17
REMARK   10  A    between atoms: C_17  and  C_18
REMARK   11  A    between atoms: C_18  and  O_19
REMARK   12  A    between atoms: C_20  and  C_21
REMARK   13  A    between atoms: C_20  and  C_22
REMARK                            x       y       z     vdW  Elec       q    Type
REMARK                         _______ _______ _______ _____ _____    ______ ____
ROOT
ATOM      1  C   UNL     1       1.818   7.884  19.461  0.00  0.00    +0.000 C 
ATOM      2  C   UNL     1       2.752   7.507  18.333  0.00  0.00    +0.000 C 
ATOM      3  C   UNL     1       1.614   7.030  20.488  0.00  0.00    +0.000 C 
ENDROOT
BRANCH   1   5
ATOM      4  C   UNL     1      -0.026   9.491  20.067  0.00  0.00    +0.000 C 
ATOM      5  C   UNL     1       1.126   9.182  19.443  0.00  0.00    +0.000 C 
BRANCH   4   8
ATOM      6  C   UNL     1      -2.025  10.242  17.944  0.00  0.00    +0.000 C 
ATOM      7  C   UNL     1      -1.580  11.139  19.074  0.00  0.00    +0.000 C 
ATOM      8  C   UNL     1      -0.708  10.790  20.053  0.00  0.00    +0.000 C 
ATOM      9  C   UNL     1      -0.448  11.702  21.284  0.00  0.00    +0.000 C 
ATOM     10  C   UNL     1      -0.567  10.937  22.624  0.00  0.00    +0.000 C 
ATOM     11  C   UNL     1       0.970  12.306  21.201  0.00  0.00    +0.000 C 
ATOM     12  C   UNL     1      -1.486  12.856  21.364  0.00  0.00    +0.000 C 
ATOM     13  C   UNL     1      -1.725  13.511  20.015  0.00  0.00    +0.000 C 
ATOM     14  C   UNL     1      -2.274  12.486  19.035  0.00  0.00    +0.000 C 
ENDBRANCH   4   8
ENDBRANCH   1   5
BRANCH   3  15
ATOM     15  C   UNL     1       2.203   5.700  20.616  0.00  0.00    +0.000 C 
ATOM     16  C   UNL     1       1.531   4.571  20.341  0.00  0.00    +0.000 C 
BRANCH  16  17
ATOM     17  C   UNL     1       2.060   3.210  20.387  0.00  0.00    +0.000 C 
ATOM     18  C   UNL     1       1.883   2.395  21.649  0.00  0.00    +0.000 C 
ATOM     19  C   UNL     1       2.690   2.623  19.345  0.00  0.00    +0.000 C 
BRANCH  19  20
ATOM     20  C   UNL     1       2.934   3.232  18.010  0.00  0.00    +0.000 C 
ATOM     21  O   UNL     1       2.150   3.148  17.071  0.00  0.00    +0.000 OA
ATOM     22  N   UNL     1       4.134   3.892  17.917  0.00  0.00    +0.000 N 
ATOM     23  H   UNL     1       4.748   3.970  18.717  0.00  0.00    +0.000 HD
BRANCH  22  24
ATOM     24  C   UNL     1       4.519   4.547  16.674  0.00  0.00    +0.000 C 
BRANCH  24  25
ATOM     25  C   UNL     1       5.821   3.987  16.105  0.00  0.00    +0.000 C 
BRANCH  25  26
ATOM     26  O   UNL     1       6.853   4.059  17.088  0.00  0.00    +0.000 OA
ATOM     27  H   UNL     1       7.682   4.200  16.599  0.00  0.00    +0.000 HD
ENDBRANCH  25  26
ENDBRANCH  24  25
ENDBRANCH  22  24
ENDBRANCH  19  20
ENDBRANCH  16  17
ENDBRANCH   3  15
TORSDOF 8
ENDMDL
MODEL 9
REMARK VINA RESULT:      -7.1      3.997      8.947
REMARK  Name = 
REMARK  13 active torsions:
REMARK  status: ('A' for Active; 'I' for Inactive)
REMARK    1  A    between atoms: C_1  and  C_2
REMARK    2  A    between atoms: C_3  and  C_4
REMARK    3  A    between atoms: C_5  and  C_6
REMARK    4  A    between atoms: C_6  and  C_7
REMARK    5  A    between atoms: C_8  and  C_9
REMARK    6  A    between atoms: C_10  and  C_11
REMARK    7  A    between atoms: C_11  and  C_12
REMARK    8  A    between atoms: C_13  and  C_14
REMARK    9  A    between atoms: N_16  and  C_17
REMARK   10  A    between atoms: C_17  and  C_18
REMARK   11  A    between atoms: C_18  and  O_19
REMARK   12  A    between atoms: C_20  and  C_21
REMARK   13  A    between atoms: C_20  and  C_22
REMARK                            x       y       z     vdW  Elec       q    Type
REMARK                         _______ _______ _______ _____ _____    ______ ____
ROOT
ATOM      1  C   UNL     1       1.736   8.540  19.205  0.00  0.00    +0.000 C 
ATOM      2  C   UNL     1       1.507   9.333  17.938  0.00  0.00    +0.000 C 
ATOM      3  C   UNL     1       1.357   9.044  20.400  0.00  0.00    +0.000 C 
ENDROOT
BRANCH   1   5
ATOM      4  C   UNL     1       2.017   6.183  18.359  0.00  0.00    +0.000 C 
ATOM      5  C   UNL     1       2.376   7.216  19.142  0.00  0.00    +0.000 C 
BRANCH   4   8
ATOM      6  C   UNL     1       4.529   5.699  16.769  0.00  0.00    +0.000 C 
ATOM      7  C   UNL     1       3.775   4.645  17.544  0.00  0.00    +0.000 C 
ATOM      8  C   UNL     1       2.665   4.868  18.292  0.00  0.00    +0.000 C 
ATOM      9  C   UNL     1       2.061   3.771  19.211  0.00  0.00    +0.000 C 
ATOM     10  C   UNL     1       1.803   4.278  20.650  0.00  0.00    +0.000 C 
ATOM     11  C   UNL     1       0.719   3.277  18.629  0.00  0.00    +0.000 C 
ATOM     12  C   UNL     1       3.026   2.560  19.359  0.00  0.00    +0.000 C 
ATOM     13  C   UNL     1       3.629   2.140  18.030  0.00  0.00    +0.000 C 
ATOM     14  C   UNL     1       4.441   3.287  17.449  0.00  0.00    +0.000 C 
ENDBRANCH   4   8
ENDBRANCH   1   5
BRANCH   3  15
ATOM     15  C   UNL     1       0.748  10.354  20.614  0.00  0.00    +0.000 C 
ATOM     16  C   UNL     1      -0.505  10.513  21.069  0.00  0.00    +0.000 C 
BRANCH  16  17
ATOM     17  C   UNL     1      -1.170  11.781  21.364  0.00  0.00    +0.000 C 
ATOM     18  C   UNL     1      -1.142  12.313  22.779  0.00  0.00    +0.000 C 
ATOM     19  C   UNL     1      -1.799  12.524  20.426  0.00  0.00    +0.000 C 
BRANCH  19  20
ATOM     20  C   UNL     1      -1.909  12.202  18.977  0.00  0.00    +0.000 C 
ATOM     21  O   UNL     1      -0.974  12.286  18.189  0.00  0.00    +0.000 OA
ATOM     22  N   UNL     1      -3.169  11.810  18.595  0.00  0.00    +0.000 N 
ATOM     23  H   UNL     1      -3.914  11.722  19.273  0.00  0.00    +0.000 HD
BRANCH  22  24
ATOM     24  C   UNL     1      -3.439  11.456  17.208  0.00  0.00    +0.000 C 
BRANCH  24  25
ATOM     25  C   UNL     1      -3.099   9.998  16.907  0.00  0.00    +0.000 C 
BRANCH  25  26
ATOM     26  O   UNL     1      -1.766   9.902  16.405  0.00  0.00    +0.000 OA
ATOM     27  H   UNL     1      -1.332  10.742  16.635  0.00  0.00    +0.000 HD
ENDBRANCH  25  26
ENDBRANCH  24  25
ENDBRANCH  22  24
ENDBRANCH  19  20
ENDBRANCH  16  17
ENDBRANCH   3  15
TORSDOF 8
ENDMDL
