MODEL 1
REMARK VINA RESULT:      -7.3      0.000      0.000
REMARK  Name = 
REMARK  6 active torsions:
REMARK  status: ('A' for Active; 'I' for Inactive)
REMARK    1  A    between atoms: C_1  and  S_2
REMARK    2  A    between atoms: S_2  and  C_5
REMARK    3  A    between atoms: C_11  and  C_12
REMARK    4  A    between atoms: C_15  and  O_16
REMARK    5  A    between atoms: O_16  and  C_17
REMARK    6  A    between atoms: C_17  and  C_19
REMARK                            x       y       z     vdW  Elec       q    Type
REMARK                         _______ _______ _______ _____ _____    ______ ____
ROOT
ATOM      1  C   UNL     1       2.075  15.778  19.103  0.00  0.00    +0.000 C 
ATOM      2  N   UNL     1       2.217  14.780  19.921  0.00  0.00    +0.000 NA
ATOM      3  N   UNL     1       0.982  14.306  20.265  0.00  0.00    +0.000 N 
ATOM      4  C   UNL     1       0.862  12.989  20.637  0.00  0.00    +0.000 C 
ATOM      5  N   UNL     1       1.925  12.259  20.824  0.00  0.00    +0.000 NA
ATOM      6  C   UNL     1      -0.535  12.492  20.746  0.00  0.00    +0.000 C 
ATOM      7  C   UNL     1      -0.890  11.195  20.676  0.00  0.00    +0.000 C 
ATOM      8  C   UNL     1      -1.625  13.540  20.721  0.00  0.00    +0.000 C 
ATOM      9  O   UNL     1      -2.697  13.348  21.272  0.00  0.00    +0.000 OA
ATOM     10  N   UNL     1      -1.353  14.684  19.971  0.00  0.00    +0.000 NA
ATOM     11  C   UNL     1      -0.110  14.995  19.806  0.00  0.00    +0.000 C 
ATOM     12  S   UNL     1       0.426  16.335  18.809  0.00  0.00    +0.000 S 
ATOM     13  H   UNL     1       2.726  12.881  20.640  0.00  0.00    +0.000 HD
ENDROOT
BRANCH   7  14
ATOM     14  C   UNL     1      -0.002  10.069  20.364  0.00  0.00    +0.000 A 
ATOM     15  C   UNL     1       0.572   9.885  19.102  0.00  0.00    +0.000 A 
ATOM     16  C   UNL     1       1.489   8.848  18.893  0.00  0.00    +0.000 A 
ATOM     17  C   UNL     1       1.837   8.007  19.953  0.00  0.00    +0.000 A 
ATOM     18  C   UNL     1       1.200   8.124  21.185  0.00  0.00    +0.000 A 
ATOM     19  C   UNL     1       0.289   9.159  21.391  0.00  0.00    +0.000 A 
BRANCH  17  20
ATOM     20  O   UNL     1       2.815   7.028  19.690  0.00  0.00    +0.000 OA
BRANCH  20  21
ATOM     21  C   UNL     1       2.491   5.880  18.952  0.00  0.00    +0.000 C 
ATOM     22  O   UNL     1       2.346   5.826  17.738  0.00  0.00    +0.000 OA
BRANCH  21  23
ATOM     23  C   UNL     1       2.352   4.749  19.845  0.00  0.00    +0.000 A 
ATOM     24  C   UNL     1       1.357   4.443  20.759  0.00  0.00    +0.000 A 
ATOM     25  C   UNL     1       1.728   3.224  21.378  0.00  0.00    +0.000 A 
ATOM     26  C   UNL     1       2.929   2.862  20.814  0.00  0.00    +0.000 A 
ATOM     27  O   UNL     1       3.314   3.773  19.884  0.00  0.00    +0.000 OA
ENDBRANCH  21  23
ENDBRANCH  20  21
ENDBRANCH  17  20
ENDBRANCH   7  14
BRANCH   1  29
ATOM     28  C   UNL     1       4.491  16.978  19.653  0.00  0.00    +0.000 C 
ATOM     29  S   UNL     1       3.541  16.317  18.288  0.00  0.00    +0.000 S 
ATOM     30  O   UNL     1       3.153  17.408  17.413  0.00  0.00    +0.000 OA
ATOM     31  O   UNL     1       4.216  15.133  17.793  0.00  0.00    +0.000 OA
ENDBRANCH   1  29
TORSDOF 5
ENDMDL
MODEL 2
REMARK VINA RESULT:      -7.2      3.563      5.000
REMARK  Name = 
REMARK  6 active torsions:
REMARK  status: ('A' for Active; 'I' for Inactive)
REMARK    1  A    between atoms: C_1  and  S_2
REMARK    2  A    between atoms: S_2  and  C_5
REMARK    3  A    between atoms: C_11  and  C_12
REMARK    4  A    between atoms: C_15  and  O_16
REMARK    5  A    between atoms: O_16  and  C_17
REMARK    6  A    between atoms: C_17  and  C_19
REMARK                            x       y       z     vdW  Elec       q    Type
REMARK                         _______ _______ _______ _____ _____    ______ ____
ROOT
ATOM      1  C   UNL     1      -3.983  11.879  18.571  0.00  0.00    +0.000 C 
ATOM      2  N   UNL     1      -2.799  11.704  18.068  0.00  0.00    +0.000 NA
ATOM      3  N   UNL     1      -1.864  11.939  19.037  0.00  0.00    +0.000 N 
ATOM      4  C   UNL     1      -0.644  11.314  18.939  0.00  0.00    +0.000 C 
ATOM      5  N   UNL     1      -0.327  10.654  17.861  0.00  0.00    +0.000 NA
ATOM      6  C   UNL     1       0.213  11.418  20.151  0.00  0.00    +0.000 C 
ATOM      7  C   UNL     1       1.217  10.571  20.448  0.00  0.00    +0.000 C 
ATOM      8  C   UNL     1      -0.225  12.413  21.201  0.00  0.00    +0.000 C 
ATOM      9  O   UNL     1       0.584  12.938  21.948  0.00  0.00    +0.000 OA
ATOM     10  N   UNL     1      -1.600  12.624  21.304  0.00  0.00    +0.000 NA
ATOM     11  C   UNL     1      -2.310  12.396  20.249  0.00  0.00    +0.000 C 
ATOM     12  S   UNL     1      -4.060  12.504  20.220  0.00  0.00    +0.000 S 
ATOM     13  H   UNL     1      -1.137  10.745  17.231  0.00  0.00    +0.000 HD
ENDROOT
BRANCH   7  14
ATOM     14  C   UNL     1       1.566   9.348  19.714  0.00  0.00    +0.000 A 
ATOM     15  C   UNL     1       2.008   9.363  18.387  0.00  0.00    +0.000 A 
ATOM     16  C   UNL     1       2.419   8.175  17.772  0.00  0.00    +0.000 A 
ATOM     17  C   UNL     1       2.399   6.978  18.493  0.00  0.00    +0.000 A 
ATOM     18  C   UNL     1       1.872   6.939  19.781  0.00  0.00    +0.000 A 
ATOM     19  C   UNL     1       1.465   8.125  20.392  0.00  0.00    +0.000 A 
BRANCH  17  20
ATOM     20  O   UNL     1       2.890   5.834  17.836  0.00  0.00    +0.000 OA
BRANCH  20  21
ATOM     21  C   UNL     1       2.147   4.644  17.828  0.00  0.00    +0.000 C 
ATOM     22  O   UNL     1       1.029   4.501  17.350  0.00  0.00    +0.000 OA
BRANCH  21  23
ATOM     23  C   UNL     1       2.902   3.593  18.476  0.00  0.00    +0.000 A 
ATOM     24  C   UNL     1       3.800   3.650  19.529  0.00  0.00    +0.000 A 
ATOM     25  C   UNL     1       4.259   2.329  19.750  0.00  0.00    +0.000 A 
ATOM     26  C   UNL     1       3.624   1.545  18.816  0.00  0.00    +0.000 A 
ATOM     27  O   UNL     1       2.798   2.297  18.043  0.00  0.00    +0.000 OA
ENDBRANCH  21  23
ENDBRANCH  20  21
ENDBRANCH  17  20
ENDBRANCH   7  14
BRANCH   1  29
ATOM     28  C   UNL     1      -6.268  12.816  17.356  0.00  0.00    +0.000 C 
ATOM     29  S   UNL     1      -5.328  11.310  17.585  0.00  0.00    +0.000 S 
ATOM     30  O   UNL     1      -6.093  10.398  18.413  0.00  0.00    +0.000 OA
ATOM     31  O   UNL     1      -4.781  10.915  16.302  0.00  0.00    +0.000 OA
ENDBRANCH   1  29
TORSDOF 5
ENDMDL
MODEL 3
REMARK VINA RESULT:      -7.2      2.161      2.600
REMARK  Name = 
REMARK  6 active torsions:
REMARK  status: ('A' for Active; 'I' for Inactive)
REMARK    1  A    between atoms: C_1  and  S_2
REMARK    2  A    between atoms: S_2  and  C_5
REMARK    3  A    between atoms: C_11  and  C_12
REMARK    4  A    between atoms: C_15  and  O_16
REMARK    5  A    between atoms: O_16  and  C_17
REMARK    6  A    between atoms: C_17  and  C_19
REMARK                            x       y       z     vdW  Elec       q    Type
REMARK                         _______ _______ _______ _____ _____    ______ ____
ROOT
ATOM      1  C   UNL     1       2.010  14.840  21.171  0.00  0.00    +0.000 C 
ATOM      2  N   UNL     1       1.670  13.626  21.481  0.00  0.00    +0.000 NA
ATOM      3  N   UNL     1       0.787  13.159  20.547  0.00  0.00    +0.000 N 
ATOM      4  C   UNL     1       0.714  11.804  20.331  0.00  0.00    +0.000 C 
ATOM      5  N   UNL     1       1.343  10.977  21.117  0.00  0.00    +0.000 NA
ATOM      6  C   UNL     1      -0.073  11.402  19.134  0.00  0.00    +0.000 C 
ATOM      7  C   UNL     1       0.061  10.223  18.496  0.00  0.00    +0.000 C 
ATOM      8  C   UNL     1      -0.915  12.479  18.490  0.00  0.00    +0.000 C 
ATOM      9  O   UNL     1      -1.927  12.200  17.867  0.00  0.00    +0.000 OA
ATOM     10  N   UNL     1      -0.419  13.779  18.588  0.00  0.00    +0.000 NA
ATOM     11  C   UNL     1       0.363  14.035  19.584  0.00  0.00    +0.000 C 
ATOM     12  S   UNL     1       1.163  15.580  19.811  0.00  0.00    +0.000 S 
ATOM     13  H   UNL     1       1.816  11.565  21.819  0.00  0.00    +0.000 HD
ENDROOT
BRANCH   7  14
ATOM     14  C   UNL     1       1.067   9.193  18.780  0.00  0.00    +0.000 A 
ATOM     15  C   UNL     1       1.084   8.461  19.971  0.00  0.00    +0.000 A 
ATOM     16  C   UNL     1       2.008   7.424  20.144  0.00  0.00    +0.000 A 
ATOM     17  C   UNL     1       2.903   7.115  19.116  0.00  0.00    +0.000 A 
ATOM     18  C   UNL     1       2.955   7.898  17.967  0.00  0.00    +0.000 A 
ATOM     19  C   UNL     1       2.031   8.930  17.797  0.00  0.00    +0.000 A 
BRANCH  17  20
ATOM     20  O   UNL     1       3.758   6.017  19.330  0.00  0.00    +0.000 OA
BRANCH  20  21
ATOM     21  C   UNL     1       3.486   4.777  18.734  0.00  0.00    +0.000 C 
ATOM     22  O   UNL     1       3.985   4.354  17.699  0.00  0.00    +0.000 OA
BRANCH  21  23
ATOM     23  C   UNL     1       2.515   4.055  19.529  0.00  0.00    +0.000 A 
ATOM     24  C   UNL     1       2.592   3.585  20.830  0.00  0.00    +0.000 A 
ATOM     25  C   UNL     1       1.365   2.935  21.106  0.00  0.00    +0.000 A 
ATOM     26  C   UNL     1       0.614   3.039  19.958  0.00  0.00    +0.000 A 
ATOM     27  O   UNL     1       1.298   3.717  19.000  0.00  0.00    +0.000 OA
ENDBRANCH  21  23
ENDBRANCH  20  21
ENDBRANCH  17  20
ENDBRANCH   7  14
BRANCH   1  29
ATOM     28  C   UNL     1       4.516  15.890  20.728  0.00  0.00    +0.000 C 
ATOM     29  S   UNL     1       3.383  15.502  22.057  0.00  0.00    +0.000 S 
ATOM     30  O   UNL     1       3.933  14.414  22.844  0.00  0.00    +0.000 OA
ATOM     31  O   UNL     1       2.943  16.745  22.660  0.00  0.00    +0.000 OA
ENDBRANCH   1  29
TORSDOF 5
ENDMDL
MODEL 4
REMARK VINA RESULT:      -7.1      3.610      5.400
REMARK  Name = 
REMARK  6 active torsions:
REMARK  status: ('A' for Active; 'I' for Inactive)
REMARK    1  A    between atoms: C_1  and  S_2
REMARK    2  A    between atoms: S_2  and  C_5
REMARK    3  A    between atoms: C_11  and  C_12
REMARK    4  A    between atoms: C_15  and  O_16
REMARK    5  A    between atoms: O_16  and  C_17
REMARK    6  A    between atoms: C_17  and  C_19
REMARK                            x       y       z     vdW  Elec       q    Type
REMARK                         _______ _______ _______ _____ _____    ______ ____
ROOT
ATOM      1  C   UNL     1      -4.076  11.964  18.658  0.00  0.00    +0.000 C 
ATOM      2  N   UNL     1      -2.890  11.734  18.182  0.00  0.00    +0.000 NA
ATOM      3  N   UNL     1      -1.961  12.027  19.141  0.00  0.00    +0.000 N 
ATOM      4  C   UNL     1      -0.750  11.379  19.103  0.00  0.00    +0.000 C 
ATOM      5  N   UNL     1      -0.433  10.635  18.082  0.00  0.00    +0.000 NA
ATOM      6  C   UNL     1       0.096  11.560  20.313  0.00  0.00    +0.000 C 
ATOM      7  C   UNL     1       1.084  10.723  20.684  0.00  0.00    +0.000 C 
ATOM      8  C   UNL     1      -0.336  12.638  21.281  0.00  0.00    +0.000 C 
ATOM      9  O   UNL     1       0.474  13.205  21.995  0.00  0.00    +0.000 OA
ATOM     10  N   UNL     1      -1.708  12.876  21.354  0.00  0.00    +0.000 NA
ATOM     11  C   UNL     1      -2.411  12.580  20.310  0.00  0.00    +0.000 C 
ATOM     12  S   UNL     1      -4.159  12.712  20.255  0.00  0.00    +0.000 S 
ATOM     13  H   UNL     1      -1.236  10.690  17.437  0.00  0.00    +0.000 HD
ENDROOT
BRANCH   7  14
ATOM     14  C   UNL     1       1.421   9.444  20.048  0.00  0.00    +0.000 A 
ATOM     15  C   UNL     1       1.901   9.354  18.737  0.00  0.00    +0.000 A 
ATOM     16  C   UNL     1       2.298   8.116  18.219  0.00  0.00    +0.000 A 
ATOM     17  C   UNL     1       2.224   6.974  19.020  0.00  0.00    +0.000 A 
ATOM     18  C   UNL     1       1.661   7.039  20.291  0.00  0.00    +0.000 A 
ATOM     19  C   UNL     1       1.268   8.274  20.805  0.00  0.00    +0.000 A 
BRANCH  17  20
ATOM     20  O   UNL     1       2.703   5.775  18.459  0.00  0.00    +0.000 OA
BRANCH  20  21
ATOM     21  C   UNL     1       4.064   5.444  18.543  0.00  0.00    +0.000 C 
ATOM     22  O   UNL     1       4.718   5.360  19.574  0.00  0.00    +0.000 OA
BRANCH  21  23
ATOM     23  C   UNL     1       4.593   5.209  17.216  0.00  0.00    +0.000 A 
ATOM     24  C   UNL     1       4.779   4.026  16.520  0.00  0.00    +0.000 A 
ATOM     25  C   UNL     1       5.344   4.370  15.268  0.00  0.00    +0.000 A 
ATOM     26  C   UNL     1       5.478   5.739  15.275  0.00  0.00    +0.000 A 
ATOM     27  O   UNL     1       5.023   6.257  16.445  0.00  0.00    +0.000 OA
ENDBRANCH  21  23
ENDBRANCH  20  21
ENDBRANCH  17  20
ENDBRANCH   7  14
BRANCH   1  29
ATOM     28  C   UNL     1      -6.451  12.797  17.543  0.00  0.00    +0.000 C 
ATOM     29  S   UNL     1      -5.420  11.343  17.703  0.00  0.00    +0.000 S 
ATOM     30  O   UNL     1      -6.104  10.369  18.533  0.00  0.00    +0.000 OA
ATOM     31  O   UNL     1      -4.896  11.009  16.394  0.00  0.00    +0.000 OA
ENDBRANCH   1  29
TORSDOF 5
ENDMDL
MODEL 5
REMARK VINA RESULT:      -7.1      1.576      2.158
REMARK  Name = 
REMARK  6 active torsions:
REMARK  status: ('A' for Active; 'I' for Inactive)
REMARK    1  A    between atoms: C_1  and  S_2
REMARK    2  A    between atoms: S_2  and  C_5
REMARK    3  A    between atoms: C_11  and  C_12
REMARK    4  A    between atoms: C_15  and  O_16
REMARK    5  A    between atoms: O_16  and  C_17
REMARK    6  A    between atoms: C_17  and  C_19
REMARK                            x       y       z     vdW  Elec       q    Type
REMARK                         _______ _______ _______ _____ _____    ______ ____
ROOT
ATOM      1  C   UNL     1       3.105  15.450  19.307  0.00  0.00    +0.000 C 
ATOM      2  N   UNL     1       2.939  14.428  20.091  0.00  0.00    +0.000 NA
ATOM      3  N   UNL     1       1.620  14.065  20.075  0.00  0.00    +0.000 N 
ATOM      4  C   UNL     1       1.295  12.759  20.348  0.00  0.00    +0.000 C 
ATOM      5  N   UNL     1       2.203  11.931  20.780  0.00  0.00    +0.000 NA
ATOM      6  C   UNL     1      -0.118  12.391  20.061  0.00  0.00    +0.000 C 
ATOM      7  C   UNL     1      -0.549  11.133  19.846  0.00  0.00    +0.000 C 
ATOM      8  C   UNL     1      -1.069  13.535  19.792  0.00  0.00    +0.000 C 
ATOM      9  O   UNL     1      -2.261  13.433  20.030  0.00  0.00    +0.000 OA
ATOM     10  N   UNL     1      -0.510  14.662  19.188  0.00  0.00    +0.000 NA
ATOM     11  C   UNL     1       0.754  14.860  19.372  0.00  0.00    +0.000 C 
ATOM     12  S   UNL     1       1.648  16.161  18.609  0.00  0.00    +0.000 S 
ATOM     13  H   UNL     1       3.074  12.479  20.841  0.00  0.00    +0.000 HD
ENDROOT
BRANCH   7  14
ATOM     14  C   UNL     1       0.292   9.936  19.735  0.00  0.00    +0.000 A 
ATOM     15  C   UNL     1       0.967   9.591  18.560  0.00  0.00    +0.000 A 
ATOM     16  C   UNL     1       1.832   8.491  18.544  0.00  0.00    +0.000 A 
ATOM     17  C   UNL     1       2.028   7.748  19.711  0.00  0.00    +0.000 A 
ATOM     18  C   UNL     1       1.291   8.026  20.857  0.00  0.00    +0.000 A 
ATOM     19  C   UNL     1       0.430   9.124  20.870  0.00  0.00    +0.000 A 
BRANCH  17  20
ATOM     20  O   UNL     1       2.963   6.697  19.642  0.00  0.00    +0.000 OA
BRANCH  20  21
ATOM     21  C   UNL     1       2.689   5.550  18.882  0.00  0.00    +0.000 C 
ATOM     22  O   UNL     1       1.751   4.783  19.055  0.00  0.00    +0.000 OA
BRANCH  21  23
ATOM     23  C   UNL     1       3.689   5.401  17.845  0.00  0.00    +0.000 A 
ATOM     24  C   UNL     1       4.580   6.321  17.319  0.00  0.00    +0.000 A 
ATOM     25  C   UNL     1       5.320   5.649  16.316  0.00  0.00    +0.000 A 
ATOM     26  C   UNL     1       4.833   4.364  16.282  0.00  0.00    +0.000 A 
ATOM     27  O   UNL     1       3.850   4.201  17.204  0.00  0.00    +0.000 OA
ENDBRANCH  21  23
ENDBRANCH  20  21
ENDBRANCH  17  20
ENDBRANCH   7  14
BRANCH   1  29
ATOM     28  C   UNL     1       5.625  15.307  20.406  0.00  0.00    +0.000 C 
ATOM     29  S   UNL     1       4.776  15.865  18.933  0.00  0.00    +0.000 S 
ATOM     30  O   UNL     1       4.840  17.314  18.872  0.00  0.00    +0.000 OA
ATOM     31  O   UNL     1       5.187  15.027  17.824  0.00  0.00    +0.000 OA
ENDBRANCH   1  29
TORSDOF 5
ENDMDL
MODEL 6
REMARK VINA RESULT:      -7.1      1.690      2.340
REMARK  Name = 
REMARK  6 active torsions:
REMARK  status: ('A' for Active; 'I' for Inactive)
REMARK    1  A    between atoms: C_1  and  S_2
REMARK    2  A    between atoms: S_2  and  C_5
REMARK    3  A    between atoms: C_11  and  C_12
REMARK    4  A    between atoms: C_15  and  O_16
REMARK    5  A    between atoms: O_16  and  C_17
REMARK    6  A    between atoms: C_17  and  C_19
REMARK                            x       y       z     vdW  Elec       q    Type
REMARK                         _______ _______ _______ _____ _____    ______ ____
ROOT
ATOM      1  C   UNL     1       3.029  15.462  19.566  0.00  0.00    +0.000 C 
ATOM      2  N   UNL     1       2.865  14.402  20.297  0.00  0.00    +0.000 NA
ATOM      3  N   UNL     1       1.552  14.024  20.245  0.00  0.00    +0.000 N 
ATOM      4  C   UNL     1       1.239  12.702  20.450  0.00  0.00    +0.000 C 
ATOM      5  N   UNL     1       2.152  11.865  20.854  0.00  0.00    +0.000 NA
ATOM      6  C   UNL     1      -0.165  12.332  20.125  0.00  0.00    +0.000 C 
ATOM      7  C   UNL     1      -0.577  11.082  19.843  0.00  0.00    +0.000 C 
ATOM      8  C   UNL     1      -1.126  13.477  19.898  0.00  0.00    +0.000 C 
ATOM      9  O   UNL     1      -2.320  13.349  20.114  0.00  0.00    +0.000 OA
ATOM     10  N   UNL     1      -0.573  14.638  19.358  0.00  0.00    +0.000 NA
ATOM     11  C   UNL     1       0.685  14.842  19.569  0.00  0.00    +0.000 C 
ATOM     12  S   UNL     1       1.574  16.189  18.882  0.00  0.00    +0.000 S 
ATOM     13  H   UNL     1       3.015  12.420  20.954  0.00  0.00    +0.000 HD
ENDROOT
BRANCH   7  14
ATOM     14  C   UNL     1       0.281   9.901  19.687  0.00  0.00    +0.000 A 
ATOM     15  C   UNL     1       0.924   9.587  18.486  0.00  0.00    +0.000 A 
ATOM     16  C   UNL     1       1.807   8.502  18.425  0.00  0.00    +0.000 A 
ATOM     17  C   UNL     1       2.052   7.744  19.573  0.00  0.00    +0.000 A 
ATOM     18  C   UNL     1       1.346   7.991  20.746  0.00  0.00    +0.000 A 
ATOM     19  C   UNL     1       0.468   9.074  20.804  0.00  0.00    +0.000 A 
BRANCH  17  20
ATOM     20  O   UNL     1       3.002   6.711  19.458  0.00  0.00    +0.000 OA
BRANCH  20  21
ATOM     21  C   UNL     1       2.672   5.511  18.810  0.00  0.00    +0.000 C 
ATOM     22  O   UNL     1       1.728   4.783  19.088  0.00  0.00    +0.000 OA
BRANCH  21  23
ATOM     23  C   UNL     1       3.621   5.252  17.749  0.00  0.00    +0.000 A 
ATOM     24  C   UNL     1       4.030   4.056  17.181  0.00  0.00    +0.000 A 
ATOM     25  C   UNL     1       4.990   4.378  16.191  0.00  0.00    +0.000 A 
ATOM     26  C   UNL     1       5.118   5.746  16.217  0.00  0.00    +0.000 A 
ATOM     27  O   UNL     1       4.293   6.286  17.151  0.00  0.00    +0.000 OA
ENDBRANCH  21  23
ENDBRANCH  20  21
ENDBRANCH  17  20
ENDBRANCH   7  14
BRANCH   1  29
ATOM     28  C   UNL     1       5.096  14.850  17.853  0.00  0.00    +0.000 C 
ATOM     29  S   UNL     1       4.701  15.915  19.236  0.00  0.00    +0.000 S 
ATOM     30  O   UNL     1       5.479  15.499  20.388  0.00  0.00    +0.000 OA
ATOM     31  O   UNL     1       4.687  17.286  18.767  0.00  0.00    +0.000 OA
ENDBRANCH   1  29
TORSDOF 5
ENDMDL
MODEL 7
REMARK VINA RESULT:      -7.1      4.850      7.156
REMARK  Name = 
REMARK  6 active torsions:
REMARK  status: ('A' for Active; 'I' for Inactive)
REMARK    1  A    between atoms: C_1  and  S_2
REMARK    2  A    between atoms: S_2  and  C_5
REMARK    3  A    between atoms: C_11  and  C_12
REMARK    4  A    between atoms: C_15  and  O_16
REMARK    5  A    between atoms: O_16  and  C_17
REMARK    6  A    between atoms: C_17  and  C_19
REMARK                            x       y       z     vdW  Elec       q    Type
REMARK                         _______ _______ _______ _____ _____    ______ ____
ROOT
ATOM      1  C   UNL     1       6.391  13.164  23.106  0.00  0.00    +0.000 C 
ATOM      2  N   UNL     1       5.161  13.543  22.936  0.00  0.00    +0.000 NA
ATOM      3  N   UNL     1       5.090  14.340  21.827  0.00  0.00    +0.000 N 
ATOM      4  C   UNL     1       3.902  14.405  21.139  0.00  0.00    +0.000 C 
ATOM      5  N   UNL     1       2.826  13.861  21.632  0.00  0.00    +0.000 NA
ATOM      6  C   UNL     1       3.980  15.081  19.816  0.00  0.00    +0.000 C 
ATOM      7  C   UNL     1       3.096  14.899  18.816  0.00  0.00    +0.000 C 
ATOM      8  C   UNL     1       5.250  15.848  19.526  0.00  0.00    +0.000 C 
ATOM      9  O   UNL     1       5.250  16.800  18.763  0.00  0.00    +0.000 OA
ATOM     10  N   UNL     1       6.410  15.351  20.119  0.00  0.00    +0.000 NA
ATOM     11  C   UNL     1       6.266  14.663  21.204  0.00  0.00    +0.000 C 
ATOM     12  S   UNL     1       7.597  13.873  22.029  0.00  0.00    +0.000 S 
ATOM     13  H   UNL     1       3.109  13.449  22.533  0.00  0.00    +0.000 HD
ENDROOT
BRANCH   7  14
ATOM     14  C   UNL     1       1.990  13.935  18.800  0.00  0.00    +0.000 A 
ATOM     15  C   UNL     1       2.185  12.564  18.601  0.00  0.00    +0.000 A 
ATOM     16  C   UNL     1       1.103  11.681  18.694  0.00  0.00    +0.000 A 
ATOM     17  C   UNL     1      -0.168  12.173  18.999  0.00  0.00    +0.000 A 
ATOM     18  C   UNL     1      -0.388  13.543  19.106  0.00  0.00    +0.000 A 
ATOM     19  C   UNL     1       0.693  14.420  19.014  0.00  0.00    +0.000 A 
BRANCH  17  20
ATOM     20  O   UNL     1      -1.197  11.222  19.144  0.00  0.00    +0.000 OA
BRANCH  20  21
ATOM     21  C   UNL     1      -2.509  11.530  18.756  0.00  0.00    +0.000 C 
ATOM     22  O   UNL     1      -3.322  12.164  19.417  0.00  0.00    +0.000 OA
BRANCH  21  23
ATOM     23  C   UNL     1      -2.770  10.985  17.441  0.00  0.00    +0.000 A 
ATOM     24  C   UNL     1      -2.125   9.977  16.743  0.00  0.00    +0.000 A 
ATOM     25  C   UNL     1      -2.782   9.857  15.494  0.00  0.00    +0.000 A 
ATOM     26  C   UNL     1      -3.782  10.801  15.499  0.00  0.00    +0.000 A 
ATOM     27  O   UNL     1      -3.787  11.485  16.671  0.00  0.00    +0.000 OA
ENDBRANCH  21  23
ENDBRANCH  20  21
ENDBRANCH  17  20
ENDBRANCH   7  14
BRANCH   1  29
ATOM     28  C   UNL     1       7.013  12.805  25.763  0.00  0.00    +0.000 C 
ATOM     29  S   UNL     1       6.641  11.874  24.281  0.00  0.00    +0.000 S 
ATOM     30  O   UNL     1       7.831  11.157  23.863  0.00  0.00    +0.000 OA
ATOM     31  O   UNL     1       5.365  11.212  24.466  0.00  0.00    +0.000 OA
ENDBRANCH   1  29
TORSDOF 5
ENDMDL
MODEL 8
REMARK VINA RESULT:      -7.1      3.422      4.962
REMARK  Name = 
REMARK  6 active torsions:
REMARK  status: ('A' for Active; 'I' for Inactive)
REMARK    1  A    between atoms: C_1  and  S_2
REMARK    2  A    between atoms: S_2  and  C_5
REMARK    3  A    between atoms: C_11  and  C_12
REMARK    4  A    between atoms: C_15  and  O_16
REMARK    5  A    between atoms: O_16  and  C_17
REMARK    6  A    between atoms: C_17  and  C_19
REMARK                            x       y       z     vdW  Elec       q    Type
REMARK                         _______ _______ _______ _____ _____    ______ ____
ROOT
ATOM      1  C   UNL     1      -4.292  12.048  18.788  0.00  0.00    +0.000 C 
ATOM      2  N   UNL     1      -3.115  11.859  18.272  0.00  0.00    +0.000 NA
ATOM      3  N   UNL     1      -2.165  12.206  19.192  0.00  0.00    +0.000 N 
ATOM      4  C   UNL     1      -0.931  11.607  19.121  0.00  0.00    +0.000 C 
ATOM      5  N   UNL     1      -0.620  10.861  18.100  0.00  0.00    +0.000 NA
ATOM      6  C   UNL     1      -0.050  11.843  20.296  0.00  0.00    +0.000 C 
ATOM      7  C   UNL     1       0.985  11.054  20.643  0.00  0.00    +0.000 C 
ATOM      8  C   UNL     1      -0.492  12.919  21.262  0.00  0.00    +0.000 C 
ATOM      9  O   UNL     1       0.319  13.530  21.939  0.00  0.00    +0.000 OA
ATOM     10  N   UNL     1      -1.870  13.101  21.381  0.00  0.00    +0.000 NA
ATOM     11  C   UNL     1      -2.597  12.759  20.369  0.00  0.00    +0.000 C 
ATOM     12  S   UNL     1      -4.349  12.818  20.375  0.00  0.00    +0.000 S 
ATOM     13  H   UNL     1      -1.446  10.872  17.484  0.00  0.00    +0.000 HD
ENDROOT
BRANCH   7  14
ATOM     14  C   UNL     1       1.352   9.779  20.014  0.00  0.00    +0.000 A 
ATOM     15  C   UNL     1       1.877   9.698  18.721  0.00  0.00    +0.000 A 
ATOM     16  C   UNL     1       2.299   8.464  18.212  0.00  0.00    +0.000 A 
ATOM     17  C   UNL     1       2.206   7.319  19.006  0.00  0.00    +0.000 A 
ATOM     18  C   UNL     1       1.599   7.375  20.257  0.00  0.00    +0.000 A 
ATOM     19  C   UNL     1       1.180   8.606  20.762  0.00  0.00    +0.000 A 
BRANCH  17  20
ATOM     20  O   UNL     1       2.712   6.125  18.457  0.00  0.00    +0.000 OA
BRANCH  20  21
ATOM     21  C   UNL     1       3.419   5.217  19.260  0.00  0.00    +0.000 C 
ATOM     22  O   UNL     1       4.626   5.228  19.462  0.00  0.00    +0.000 OA
BRANCH  21  23
ATOM     23  C   UNL     1       2.502   4.249  19.826  0.00  0.00    +0.000 A 
ATOM     24  C   UNL     1       2.334   3.831  21.135  0.00  0.00    +0.000 A 
ATOM     25  C   UNL     1       1.309   2.854  21.127  0.00  0.00    +0.000 A 
ATOM     26  C   UNL     1       0.917   2.727  19.816  0.00  0.00    +0.000 A 
ATOM     27  O   UNL     1       1.628   3.568  19.021  0.00  0.00    +0.000 OA
ENDBRANCH  21  23
ENDBRANCH  20  21
ENDBRANCH  17  20
ENDBRANCH   7  14
BRANCH   1  29
ATOM     28  C   UNL     1      -6.771  12.743  17.813  0.00  0.00    +0.000 C 
ATOM     29  S   UNL     1      -5.643  11.356  17.891  0.00  0.00    +0.000 S 
ATOM     30  O   UNL     1      -6.218  10.327  18.737  0.00  0.00    +0.000 OA
ATOM     31  O   UNL     1      -5.168  11.078  16.551  0.00  0.00    +0.000 OA
ENDBRANCH   1  29
TORSDOF 5
ENDMDL
MODEL 9
REMARK VINA RESULT:      -7.1      3.431      5.255
REMARK  Name = 
REMARK  6 active torsions:
REMARK  status: ('A' for Active; 'I' for Inactive)
REMARK    1  A    between atoms: C_1  and  S_2
REMARK    2  A    between atoms: S_2  and  C_5
REMARK    3  A    between atoms: C_11  and  C_12
REMARK    4  A    between atoms: C_15  and  O_16
REMARK    5  A    between atoms: O_16  and  C_17
REMARK    6  A    between atoms: C_17  and  C_19
REMARK                            x       y       z     vdW  Elec       q    Type
REMARK                         _______ _______ _______ _____ _____    ______ ____
ROOT
ATOM      1  C   UNL     1      -3.093  11.557  18.034  0.00  0.00    +0.000 C 
ATOM      2  N   UNL     1      -1.953  11.080  17.637  0.00  0.00    +0.000 NA
ATOM      3  N   UNL     1      -1.015  11.302  18.608  0.00  0.00    +0.000 N 
ATOM      4  C   UNL     1       0.063  10.454  18.687  0.00  0.00    +0.000 C 
ATOM      5  N   UNL     1       0.274   9.570  17.754  0.00  0.00    +0.000 NA
ATOM      6  C   UNL     1       0.891  10.605  19.913  0.00  0.00    +0.000 C 
ATOM      7  C   UNL     1       1.704   9.651  20.405  0.00  0.00    +0.000 C 
ATOM      8  C   UNL     1       0.626  11.832  20.756  0.00  0.00    +0.000 C 
ATOM      9  O   UNL     1       1.502  12.318  21.453  0.00  0.00    +0.000 OA
ATOM     10  N   UNL     1      -0.685  12.309  20.743  0.00  0.00    +0.000 NA
ATOM     11  C   UNL     1      -1.397  12.037  19.699  0.00  0.00    +0.000 C 
ATOM     12  S   UNL     1      -3.092  12.462  19.549  0.00  0.00    +0.000 S 
ATOM     13  H   UNL     1      -0.486   9.699  17.070  0.00  0.00    +0.000 HD
ENDROOT
BRANCH   7  14
ATOM     14  C   UNL     1       1.830   8.277  19.905  0.00  0.00    +0.000 A 
ATOM     15  C   UNL     1       2.346   7.976  18.641  0.00  0.00    +0.000 A 
ATOM     16  C   UNL     1       2.533   6.643  18.259  0.00  0.00    +0.000 A 
ATOM     17  C   UNL     1       2.213   5.615  19.150  0.00  0.00    +0.000 A 
ATOM     18  C   UNL     1       1.612   5.903  20.371  0.00  0.00    +0.000 A 
ATOM     19  C   UNL     1       1.429   7.233  20.750  0.00  0.00    +0.000 A 
BRANCH  17  20
ATOM     20  O   UNL     1       2.489   4.301  18.727  0.00  0.00    +0.000 OA
BRANCH  20  21
ATOM     21  C   UNL     1       3.649   3.643  19.161  0.00  0.00    +0.000 C 
ATOM     22  O   UNL     1       3.715   2.839  20.082  0.00  0.00    +0.000 OA
BRANCH  21  23
ATOM     23  C   UNL     1       4.777   4.054  18.352  0.00  0.00    +0.000 A 
ATOM     24  C   UNL     1       4.908   4.148  16.976  0.00  0.00    +0.000 A 
ATOM     25  C   UNL     1       6.228   4.588  16.717  0.00  0.00    +0.000 A 
ATOM     26  C   UNL     1       6.829   4.729  17.946  0.00  0.00    +0.000 A 
ATOM     27  O   UNL     1       5.960   4.413  18.941  0.00  0.00    +0.000 OA
ENDBRANCH  21  23
ENDBRANCH  20  21
ENDBRANCH  17  20
ENDBRANCH   7  14
BRANCH   1  29
ATOM     28  C   UNL     1      -3.729  10.555  15.550  0.00  0.00    +0.000 C 
ATOM     29  S   UNL     1      -4.496  11.086  17.077  0.00  0.00    +0.000 S 
ATOM     30  O   UNL     1      -5.255  12.298  16.828  0.00  0.00    +0.000 OA
ATOM     31  O   UNL     1      -5.083   9.927  17.721  0.00  0.00    +0.000 OA
ENDBRANCH   1  29
TORSDOF 5
ENDMDL
