MODEL 1
REMARK VINA RESULT:      -6.8      0.000      0.000
REMARK  Name = 
REMARK  8 active torsions:
REMARK  status: ('A' for Active; 'I' for Inactive)
REMARK    1  A    between atoms: C_1  and  C_2
REMARK    2  A    between atoms: C_3  and  C_4
REMARK    3  A    between atoms: C_4  and  O_6
REMARK    4  A    between atoms: O_6  and  C_7
REMARK    5  A    between atoms: C_7  and  C_8
REMARK    6  A    between atoms: N_10  and  C_11
REMARK    7  A    between atoms: C_14  and  O_15
REMARK    8  A    between atoms: O_15  and  C_16
REMARK                            x       y       z     vdW  Elec       q    Type
REMARK                         _______ _______ _______ _____ _____    ______ ____
ROOT
ATOM      1  C   UNL     1       2.350   3.055  17.975  0.00  0.00    +0.000 C 
ATOM      2  O   UNL     1       1.856   3.801  17.132  0.00  0.00    +0.000 OA
ATOM      3  N   UNL     1       3.688   3.027  18.350  0.00  0.00    +0.000 N 
ATOM      4  H   UNL     1       3.996   2.260  18.936  0.00  0.00    +0.000 HD
ENDROOT
BRANCH   3   5
ATOM      5  C   UNL     1       4.689   3.918  17.900  0.00  0.00    +0.000 A 
ATOM      6  C   UNL     1       5.205   4.939  18.691  0.00  0.00    +0.000 A 
ATOM      7  C   UNL     1       6.167   5.814  18.181  0.00  0.00    +0.000 A 
ATOM      8  C   UNL     1       6.648   5.704  16.870  0.00  0.00    +0.000 A 
ATOM      9  C   UNL     1       6.149   4.663  16.077  0.00  0.00    +0.000 A 
ATOM     10 CL   UNL     1       6.604   4.363  14.435  0.00  0.00    +0.000 Cl
ATOM     11  C   UNL     1       5.191   3.769  16.603  0.00  0.00    +0.000 A 
BRANCH   8  12
ATOM     12  O   UNL     1       7.559   6.687  16.609  0.00  0.00    +0.000 OA
ATOM     13  C   UNL     1       7.672   7.824  17.443  0.00  0.00    +0.000 C 
ENDBRANCH   8  12
ENDBRANCH   3   5
BRANCH   1  14
ATOM     14  C   UNL     1       1.489   1.999  18.680  0.00  0.00    +0.000 C 
BRANCH  14  15
ATOM     15  O   UNL     1       0.716   2.559  19.746  0.00  0.00    +0.000 OA
BRANCH  15  16
ATOM     16  C   UNL     1       1.466   3.212  20.667  0.00  0.00    +0.000 C 
ATOM     17  O   UNL     1       2.292   2.700  21.409  0.00  0.00    +0.000 OA
BRANCH  16  20
ATOM     18  C   UNL     1       1.779   7.048  20.520  0.00  0.00    +0.000 C 
ATOM     19  C   UNL     1       2.062   5.583  20.554  0.00  0.00    +0.000 C 
ATOM     20  C   UNL     1       1.106   4.645  20.647  0.00  0.00    +0.000 C 
ENDBRANCH  16  20
ENDBRANCH  15  16
ENDBRANCH  14  15
ENDBRANCH   1  14
TORSDOF 6
ENDMDL
MODEL 2
REMARK VINA RESULT:      -6.8      1.046      1.266
REMARK  Name = 
REMARK  8 active torsions:
REMARK  status: ('A' for Active; 'I' for Inactive)
REMARK    1  A    between atoms: C_1  and  C_2
REMARK    2  A    between atoms: C_3  and  C_4
REMARK    3  A    between atoms: C_4  and  O_6
REMARK    4  A    between atoms: O_6  and  C_7
REMARK    5  A    between atoms: C_7  and  C_8
REMARK    6  A    between atoms: N_10  and  C_11
REMARK    7  A    between atoms: C_14  and  O_15
REMARK    8  A    between atoms: O_15  and  C_16
REMARK                            x       y       z     vdW  Elec       q    Type
REMARK                         _______ _______ _______ _____ _____    ______ ____
ROOT
ATOM      1  C   UNL     1       3.766   2.534  19.235  0.00  0.00    +0.000 C 
ATOM      2  O   UNL     1       4.768   2.252  19.891  0.00  0.00    +0.000 OA
ATOM      3  N   UNL     1       3.666   3.566  18.310  0.00  0.00    +0.000 N 
ATOM      4  H   UNL     1       2.743   3.794  17.958  0.00  0.00    +0.000 HD
ENDROOT
BRANCH   3   5
ATOM      5  C   UNL     1       4.725   4.404  17.891  0.00  0.00    +0.000 A 
ATOM      6  C   UNL     1       5.260   5.406  18.694  0.00  0.00    +0.000 A 
ATOM      7  C   UNL     1       6.281   6.228  18.214  0.00  0.00    +0.000 A 
ATOM      8  C   UNL     1       6.805   6.085  16.922  0.00  0.00    +0.000 A 
ATOM      9  C   UNL     1       6.285   5.063  16.119  0.00  0.00    +0.000 A 
ATOM     10 CL   UNL     1       6.785   4.727  14.497  0.00  0.00    +0.000 Cl
ATOM     11  C   UNL     1       5.266   4.220  16.614  0.00  0.00    +0.000 A 
BRANCH   8  12
ATOM     12  O   UNL     1       7.770   7.021  16.689  0.00  0.00    +0.000 OA
ATOM     13  C   UNL     1       7.915   8.152  17.526  0.00  0.00    +0.000 C 
ENDBRANCH   8  12
ENDBRANCH   3   5
BRANCH   1  14
ATOM     14  C   UNL     1       2.459   1.758  19.440  0.00  0.00    +0.000 C 
BRANCH  14  15
ATOM     15  O   UNL     1       1.417   2.587  19.964  0.00  0.00    +0.000 OA
BRANCH  15  16
ATOM     16  C   UNL     1       1.621   2.954  21.253  0.00  0.00    +0.000 C 
ATOM     17  O   UNL     1       1.457   2.243  22.233  0.00  0.00    +0.000 OA
BRANCH  16  20
ATOM     18  C   UNL     1       1.871   6.712  20.440  0.00  0.00    +0.000 C 
ATOM     19  C   UNL     1       1.493   5.268  20.462  0.00  0.00    +0.000 C 
ATOM     20  C   UNL     1       2.055   4.367  21.284  0.00  0.00    +0.000 C 
ENDBRANCH  16  20
ENDBRANCH  15  16
ENDBRANCH  14  15
ENDBRANCH   1  14
TORSDOF 6
ENDMDL
MODEL 3
REMARK VINA RESULT:      -6.7      3.535      7.022
REMARK  Name = 
REMARK  8 active torsions:
REMARK  status: ('A' for Active; 'I' for Inactive)
REMARK    1  A    between atoms: C_1  and  C_2
REMARK    2  A    between atoms: C_3  and  C_4
REMARK    3  A    between atoms: C_4  and  O_6
REMARK    4  A    between atoms: O_6  and  C_7
REMARK    5  A    between atoms: C_7  and  C_8
REMARK    6  A    between atoms: N_10  and  C_11
REMARK    7  A    between atoms: C_14  and  O_15
REMARK    8  A    between atoms: O_15  and  C_16
REMARK                            x       y       z     vdW  Elec       q    Type
REMARK                         _______ _______ _______ _____ _____    ______ ____
ROOT
ATOM      1  C   UNL     1       5.995   5.208  15.556  0.00  0.00    +0.000 C 
ATOM      2  O   UNL     1       5.981   6.383  15.918  0.00  0.00    +0.000 OA
ATOM      3  N   UNL     1       5.396   4.146  16.224  0.00  0.00    +0.000 N 
ATOM      4  H   UNL     1       5.617   3.209  15.908  0.00  0.00    +0.000 HD
ENDROOT
BRANCH   3   5
ATOM      5  C   UNL     1       4.587   4.249  17.379  0.00  0.00    +0.000 A 
ATOM      6  C   UNL     1       4.939   5.017  18.483  0.00  0.00    +0.000 A 
ATOM      7  C   UNL     1       4.118   5.052  19.612  0.00  0.00    +0.000 A 
ATOM      8  C   UNL     1       2.921   4.326  19.683  0.00  0.00    +0.000 A 
ATOM      9  C   UNL     1       2.551   3.571  18.564  0.00  0.00    +0.000 A 
ATOM     10 CL   UNL     1       1.124   2.599  18.453  0.00  0.00    +0.000 Cl
ATOM     11  C   UNL     1       3.374   3.553  17.417  0.00  0.00    +0.000 A 
BRANCH   8  12
ATOM     12  O   UNL     1       2.319   4.509  20.894  0.00  0.00    +0.000 OA
ATOM     13  C   UNL     1       2.010   3.414  21.734  0.00  0.00    +0.000 C 
ENDBRANCH   8  12
ENDBRANCH   3   5
BRANCH   1  14
ATOM     14  C   UNL     1       6.763   4.791  14.296  0.00  0.00    +0.000 C 
BRANCH  14  15
ATOM     15  O   UNL     1       6.164   3.663  13.649  0.00  0.00    +0.000 OA
BRANCH  15  16
ATOM     16  C   UNL     1       6.419   3.609  12.320  0.00  0.00    +0.000 C 
ATOM     17  O   UNL     1       7.395   4.086  11.759  0.00  0.00    +0.000 OA
BRANCH  16  20
ATOM     18  C   UNL     1       3.073   2.923  10.538  0.00  0.00    +0.000 C 
ATOM     19  C   UNL     1       4.228   3.570  11.228  0.00  0.00    +0.000 C 
ATOM     20  C   UNL     1       5.311   2.897  11.649  0.00  0.00    +0.000 C 
ENDBRANCH  16  20
ENDBRANCH  15  16
ENDBRANCH  14  15
ENDBRANCH   1  14
TORSDOF 6
ENDMDL
MODEL 4
REMARK VINA RESULT:      -6.6      3.044      7.089
REMARK  Name = 
REMARK  8 active torsions:
REMARK  status: ('A' for Active; 'I' for Inactive)
REMARK    1  A    between atoms: C_1  and  C_2
REMARK    2  A    between atoms: C_3  and  C_4
REMARK    3  A    between atoms: C_4  and  O_6
REMARK    4  A    between atoms: O_6  and  C_7
REMARK    5  A    between atoms: C_7  and  C_8
REMARK    6  A    between atoms: N_10  and  C_11
REMARK    7  A    between atoms: C_14  and  O_15
REMARK    8  A    between atoms: O_15  and  C_16
REMARK                            x       y       z     vdW  Elec       q    Type
REMARK                         _______ _______ _______ _____ _____    ______ ____
ROOT
ATOM      1  C   UNL     1       6.383   4.545  17.227  0.00  0.00    +0.000 C 
ATOM      2  O   UNL     1       6.955   4.382  18.303  0.00  0.00    +0.000 OA
ATOM      3  N   UNL     1       5.012   4.450  17.014  0.00  0.00    +0.000 N 
ATOM      4  H   UNL     1       4.685   4.446  16.055  0.00  0.00    +0.000 HD
ENDROOT
BRANCH   3   5
ATOM      5  C   UNL     1       4.034   4.251  18.016  0.00  0.00    +0.000 A 
ATOM      6  C   UNL     1       3.566   2.992  18.377  0.00  0.00    +0.000 A 
ATOM      7  C   UNL     1       2.572   2.857  19.348  0.00  0.00    +0.000 A 
ATOM      8  C   UNL     1       2.008   3.967  19.991  0.00  0.00    +0.000 A 
ATOM      9  C   UNL     1       2.493   5.235  19.648  0.00  0.00    +0.000 A 
ATOM     10 CL   UNL     1       1.925   6.726  20.316  0.00  0.00    +0.000 Cl
ATOM     11  C   UNL     1       3.512   5.366  18.680  0.00  0.00    +0.000 A 
BRANCH   8  12
ATOM     12  O   UNL     1       1.045   3.572  20.875  0.00  0.00    +0.000 OA
ATOM     13  C   UNL     1       1.316   2.605  21.872  0.00  0.00    +0.000 C 
ENDBRANCH   8  12
ENDBRANCH   3   5
BRANCH   1  14
ATOM     14  C   UNL     1       7.188   4.826  15.952  0.00  0.00    +0.000 C 
BRANCH  14  15
ATOM     15  O   UNL     1       6.464   4.470  14.770  0.00  0.00    +0.000 OA
BRANCH  15  16
ATOM     16  C   UNL     1       7.144   4.730  13.627  0.00  0.00    +0.000 C 
ATOM     17  O   UNL     1       8.054   5.536  13.504  0.00  0.00    +0.000 OA
BRANCH  16  20
ATOM     18  C   UNL     1       4.631   2.862  11.383  0.00  0.00    +0.000 C 
ATOM     19  C   UNL     1       5.266   3.686  12.453  0.00  0.00    +0.000 C 
ATOM     20  C   UNL     1       6.589   3.894  12.540  0.00  0.00    +0.000 C 
ENDBRANCH  16  20
ENDBRANCH  15  16
ENDBRANCH  14  15
ENDBRANCH   1  14
TORSDOF 6
ENDMDL
MODEL 5
REMARK VINA RESULT:      -6.6      3.250      6.848
REMARK  Name = 
REMARK  8 active torsions:
REMARK  status: ('A' for Active; 'I' for Inactive)
REMARK    1  A    between atoms: C_1  and  C_2
REMARK    2  A    between atoms: C_3  and  C_4
REMARK    3  A    between atoms: C_4  and  O_6
REMARK    4  A    between atoms: O_6  and  C_7
REMARK    5  A    between atoms: C_7  and  C_8
REMARK    6  A    between atoms: N_10  and  C_11
REMARK    7  A    between atoms: C_14  and  O_15
REMARK    8  A    between atoms: O_15  and  C_16
REMARK                            x       y       z     vdW  Elec       q    Type
REMARK                         _______ _______ _______ _____ _____    ______ ____
ROOT
ATOM      1  C   UNL     1       5.652   4.377  17.291  0.00  0.00    +0.000 C 
ATOM      2  O   UNL     1       6.109   4.130  18.406  0.00  0.00    +0.000 OA
ATOM      3  N   UNL     1       4.443   5.014  17.032  0.00  0.00    +0.000 N 
ATOM      4  H   UNL     1       4.107   5.013  16.076  0.00  0.00    +0.000 HD
ENDROOT
BRANCH   3   5
ATOM      5  C   UNL     1       3.582   5.575  18.003  0.00  0.00    +0.000 A 
ATOM      6  C   UNL     1       3.385   6.944  18.139  0.00  0.00    +0.000 A 
ATOM      7  C   UNL     1       2.550   7.444  19.140  0.00  0.00    +0.000 A 
ATOM      8  C   UNL     1       1.885   6.602  20.041  0.00  0.00    +0.000 A 
ATOM      9  C   UNL     1       2.062   5.221  19.893  0.00  0.00    +0.000 A 
ATOM     10 CL   UNL     1       1.341   4.016  20.904  0.00  0.00    +0.000 Cl
ATOM     11  C   UNL     1       2.891   4.718  18.867  0.00  0.00    +0.000 A 
BRANCH   8  12
ATOM     12  O   UNL     1       1.155   7.333  20.933  0.00  0.00    +0.000 OA
ATOM     13  C   UNL     1       1.116   8.746  20.867  0.00  0.00    +0.000 C 
ENDBRANCH   8  12
ENDBRANCH   3   5
BRANCH   1  14
ATOM     14  C   UNL     1       6.396   3.928  16.027  0.00  0.00    +0.000 C 
BRANCH  14  15
ATOM     15  O   UNL     1       7.216   4.969  15.487  0.00  0.00    +0.000 OA
BRANCH  15  16
ATOM     16  C   UNL     1       7.280   4.953  14.133  0.00  0.00    +0.000 C 
ATOM     17  O   UNL     1       8.015   5.645  13.445  0.00  0.00    +0.000 OA
BRANCH  16  20
ATOM     18  C   UNL     1       5.383   2.599  11.746  0.00  0.00    +0.000 C 
ATOM     19  C   UNL     1       6.335   3.585  12.336  0.00  0.00    +0.000 C 
ATOM     20  C   UNL     1       6.296   3.976  13.620  0.00  0.00    +0.000 C 
ENDBRANCH  16  20
ENDBRANCH  15  16
ENDBRANCH  14  15
ENDBRANCH   1  14
TORSDOF 6
ENDMDL
MODEL 6
REMARK VINA RESULT:      -6.6      1.541      1.626
REMARK  Name = 
REMARK  8 active torsions:
REMARK  status: ('A' for Active; 'I' for Inactive)
REMARK    1  A    between atoms: C_1  and  C_2
REMARK    2  A    between atoms: C_3  and  C_4
REMARK    3  A    between atoms: C_4  and  O_6
REMARK    4  A    between atoms: O_6  and  C_7
REMARK    5  A    between atoms: C_7  and  C_8
REMARK    6  A    between atoms: N_10  and  C_11
REMARK    7  A    between atoms: C_14  and  O_15
REMARK    8  A    between atoms: O_15  and  C_16
REMARK                            x       y       z     vdW  Elec       q    Type
REMARK                         _______ _______ _______ _____ _____    ______ ____
ROOT
ATOM      1  C   UNL     1       4.032   2.884  18.818  0.00  0.00    +0.000 C 
ATOM      2  O   UNL     1       3.780   2.842  17.615  0.00  0.00    +0.000 OA
ATOM      3  N   UNL     1       4.952   3.733  19.424  0.00  0.00    +0.000 N 
ATOM      4  H   UNL     1       5.182   3.558  20.395  0.00  0.00    +0.000 HD
ENDROOT
BRANCH   3   5
ATOM      5  C   UNL     1       5.679   4.758  18.777  0.00  0.00    +0.000 A 
ATOM      6  C   UNL     1       6.876   5.264  19.272  0.00  0.00    +0.000 A 
ATOM      7  C   UNL     1       7.534   6.304  18.611  0.00  0.00    +0.000 A 
ATOM      8  C   UNL     1       7.025   6.876  17.437  0.00  0.00    +0.000 A 
ATOM      9  C   UNL     1       5.832   6.353  16.922  0.00  0.00    +0.000 A 
ATOM     10 CL   UNL     1       5.035   6.924  15.496  0.00  0.00    +0.000 Cl
ATOM     11  C   UNL     1       5.180   5.289  17.583  0.00  0.00    +0.000 A 
BRANCH   8  12
ATOM     12  O   UNL     1       7.836   7.884  17.003  0.00  0.00    +0.000 OA
ATOM     13  C   UNL     1       8.175   8.968  17.847  0.00  0.00    +0.000 C 
ENDBRANCH   8  12
ENDBRANCH   3   5
BRANCH   1  14
ATOM     14  C   UNL     1       3.354   1.912  19.790  0.00  0.00    +0.000 C 
BRANCH  14  15
ATOM     15  O   UNL     1       1.945   2.143  19.887  0.00  0.00    +0.000 OA
BRANCH  15  16
ATOM     16  C   UNL     1       1.593   2.861  20.981  0.00  0.00    +0.000 C 
ATOM     17  O   UNL     1       1.579   2.449  22.132  0.00  0.00    +0.000 OA
BRANCH  16  20
ATOM     18  C   UNL     1       1.694   6.667  20.396  0.00  0.00    +0.000 C 
ATOM     19  C   UNL     1       2.012   5.267  20.801  0.00  0.00    +0.000 C 
ATOM     20  C   UNL     1       1.205   4.222  20.555  0.00  0.00    +0.000 C 
ENDBRANCH  16  20
ENDBRANCH  15  16
ENDBRANCH  14  15
ENDBRANCH   1  14
TORSDOF 6
ENDMDL
MODEL 7
REMARK VINA RESULT:      -6.5      1.920      3.131
REMARK  Name = 
REMARK  8 active torsions:
REMARK  status: ('A' for Active; 'I' for Inactive)
REMARK    1  A    between atoms: C_1  and  C_2
REMARK    2  A    between atoms: C_3  and  C_4
REMARK    3  A    between atoms: C_4  and  O_6
REMARK    4  A    between atoms: O_6  and  C_7
REMARK    5  A    between atoms: C_7  and  C_8
REMARK    6  A    between atoms: N_10  and  C_11
REMARK    7  A    between atoms: C_14  and  O_15
REMARK    8  A    between atoms: O_15  and  C_16
REMARK                            x       y       z     vdW  Elec       q    Type
REMARK                         _______ _______ _______ _____ _____    ______ ____
ROOT
ATOM      1  C   UNL     1       2.616   6.006  19.393  0.00  0.00    +0.000 C 
ATOM      2  O   UNL     1       2.165   6.809  18.578  0.00  0.00    +0.000 OA
ATOM      3  N   UNL     1       3.781   5.262  19.239  0.00  0.00    +0.000 N 
ATOM      4  H   UNL     1       3.956   4.521  19.908  0.00  0.00    +0.000 HD
ENDROOT
BRANCH   3   5
ATOM      5  C   UNL     1       4.696   5.375  18.168  0.00  0.00    +0.000 A 
ATOM      6  C   UNL     1       4.648   4.559  17.043  0.00  0.00    +0.000 A 
ATOM      7  C   UNL     1       5.602   4.690  16.031  0.00  0.00    +0.000 A 
ATOM      8  C   UNL     1       6.634   5.635  16.102  0.00  0.00    +0.000 A 
ATOM      9  C   UNL     1       6.672   6.475  17.222  0.00  0.00    +0.000 A 
ATOM     10 CL   UNL     1       7.866   7.695  17.505  0.00  0.00    +0.000 Cl
ATOM     11  C   UNL     1       5.695   6.352  18.234  0.00  0.00    +0.000 A 
BRANCH   8  12
ATOM     12  O   UNL     1       7.443   5.547  15.006  0.00  0.00    +0.000 OA
ATOM     13  C   UNL     1       7.040   4.836  13.852  0.00  0.00    +0.000 C 
ENDBRANCH   8  12
ENDBRANCH   3   5
BRANCH   1  14
ATOM     14  C   UNL     1       1.858   5.705  20.691  0.00  0.00    +0.000 C 
BRANCH  14  15
ATOM     15  O   UNL     1       1.046   4.531  20.581  0.00  0.00    +0.000 OA
BRANCH  15  16
ATOM     16  C   UNL     1       1.645   3.417  21.067  0.00  0.00    +0.000 C 
ATOM     17  O   UNL     1       1.948   3.220  22.234  0.00  0.00    +0.000 OA
BRANCH  16  20
ATOM     18  C   UNL     1       3.484   1.287  18.436  0.00  0.00    +0.000 C 
ATOM     19  C   UNL     1       3.150   2.222  19.550  0.00  0.00    +0.000 C 
ATOM     20  C   UNL     1       1.895   2.483  19.949  0.00  0.00    +0.000 C 
ENDBRANCH  16  20
ENDBRANCH  15  16
ENDBRANCH  14  15
ENDBRANCH   1  14
TORSDOF 6
ENDMDL
MODEL 8
REMARK VINA RESULT:      -6.4      1.708      2.282
REMARK  Name = 
REMARK  8 active torsions:
REMARK  status: ('A' for Active; 'I' for Inactive)
REMARK    1  A    between atoms: C_1  and  C_2
REMARK    2  A    between atoms: C_3  and  C_4
REMARK    3  A    between atoms: C_4  and  O_6
REMARK    4  A    between atoms: O_6  and  C_7
REMARK    5  A    between atoms: C_7  and  C_8
REMARK    6  A    between atoms: N_10  and  C_11
REMARK    7  A    between atoms: C_14  and  O_15
REMARK    8  A    between atoms: O_15  and  C_16
REMARK                            x       y       z     vdW  Elec       q    Type
REMARK                         _______ _______ _______ _____ _____    ______ ____
ROOT
ATOM      1  C   UNL     1       3.443   2.351  18.288  0.00  0.00    +0.000 C 
ATOM      2  O   UNL     1       4.001   1.396  17.750  0.00  0.00    +0.000 OA
ATOM      3  N   UNL     1       3.792   3.687  18.132  0.00  0.00    +0.000 N 
ATOM      4  H   UNL     1       3.359   4.361  18.753  0.00  0.00    +0.000 HD
ENDROOT
BRANCH   3   5
ATOM      5  C   UNL     1       4.781   4.185  17.253  0.00  0.00    +0.000 A 
ATOM      6  C   UNL     1       4.936   3.724  15.950  0.00  0.00    +0.000 A 
ATOM      7  C   UNL     1       5.955   4.225  15.137  0.00  0.00    +0.000 A 
ATOM      8  C   UNL     1       6.854   5.199  15.591  0.00  0.00    +0.000 A 
ATOM      9  C   UNL     1       6.687   5.683  16.894  0.00  0.00    +0.000 A 
ATOM     10 CL   UNL     1       7.694   6.874  17.645  0.00  0.00    +0.000 Cl
ATOM     11  C   UNL     1       5.644   5.188  17.706  0.00  0.00    +0.000 A 
BRANCH   8  12
ATOM     12  O   UNL     1       7.765   5.501  14.620  0.00  0.00    +0.000 OA
ATOM     13  C   UNL     1       7.616   5.020  13.298  0.00  0.00    +0.000 C 
ENDBRANCH   8  12
ENDBRANCH   3   5
BRANCH   1  14
ATOM     14  C   UNL     1       2.288   2.124  19.271  0.00  0.00    +0.000 C 
BRANCH  14  15
ATOM     15  O   UNL     1       2.662   2.423  20.619  0.00  0.00    +0.000 OA
BRANCH  15  16
ATOM     16  C   UNL     1       1.666   2.993  21.339  0.00  0.00    +0.000 C 
ATOM     17  O   UNL     1       1.130   2.509  22.325  0.00  0.00    +0.000 OA
BRANCH  16  20
ATOM     18  C   UNL     1       1.881   6.664  20.193  0.00  0.00    +0.000 C 
ATOM     19  C   UNL     1       2.162   5.328  20.795  0.00  0.00    +0.000 C 
ATOM     20  C   UNL     1       1.313   4.290  20.723  0.00  0.00    +0.000 C 
ENDBRANCH  16  20
ENDBRANCH  15  16
ENDBRANCH  14  15
ENDBRANCH   1  14
TORSDOF 6
ENDMDL
MODEL 9
REMARK VINA RESULT:      -6.4      1.241      1.720
REMARK  Name = 
REMARK  8 active torsions:
REMARK  status: ('A' for Active; 'I' for Inactive)
REMARK    1  A    between atoms: C_1  and  C_2
REMARK    2  A    between atoms: C_3  and  C_4
REMARK    3  A    between atoms: C_4  and  O_6
REMARK    4  A    between atoms: O_6  and  C_7
REMARK    5  A    between atoms: C_7  and  C_8
REMARK    6  A    between atoms: N_10  and  C_11
REMARK    7  A    between atoms: C_14  and  O_15
REMARK    8  A    between atoms: O_15  and  C_16
REMARK                            x       y       z     vdW  Elec       q    Type
REMARK                         _______ _______ _______ _____ _____    ______ ____
ROOT
ATOM      1  C   UNL     1       4.210   2.515  18.988  0.00  0.00    +0.000 C 
ATOM      2  O   UNL     1       5.026   2.569  19.906  0.00  0.00    +0.000 OA
ATOM      3  N   UNL     1       4.184   3.350  17.876  0.00  0.00    +0.000 N 
ATOM      4  H   UNL     1       3.369   3.308  17.276  0.00  0.00    +0.000 HD
ENDROOT
BRANCH   3   5
ATOM      5  C   UNL     1       5.148   4.336  17.562  0.00  0.00    +0.000 A 
ATOM      6  C   UNL     1       5.493   5.361  18.435  0.00  0.00    +0.000 A 
ATOM      7  C   UNL     1       6.426   6.330  18.057  0.00  0.00    +0.000 A 
ATOM      8  C   UNL     1       7.046   6.312  16.801  0.00  0.00    +0.000 A 
ATOM      9  C   UNL     1       6.719   5.267  15.928  0.00  0.00    +0.000 A 
ATOM     10 CL   UNL     1       7.362   5.071  14.333  0.00  0.00    +0.000 Cl
ATOM     11  C   UNL     1       5.790   4.279  16.320  0.00  0.00    +0.000 A 
BRANCH   8  12
ATOM     12  O   UNL     1       7.893   7.374  16.668  0.00  0.00    +0.000 OA
ATOM     13  C   UNL     1       8.022   8.343  17.691  0.00  0.00    +0.000 C 
ENDBRANCH   8  12
ENDBRANCH   3   5
BRANCH   1  14
ATOM     14  C   UNL     1       3.060   1.502  19.026  0.00  0.00    +0.000 C 
BRANCH  14  15
ATOM     15  O   UNL     1       1.969   1.957  19.833  0.00  0.00    +0.000 OA
BRANCH  15  16
ATOM     16  C   UNL     1       0.998   2.579  19.121  0.00  0.00    +0.000 C 
ATOM     17  O   UNL     1       0.145   2.027  18.441  0.00  0.00    +0.000 OA
BRANCH  16  20
ATOM     18  C   UNL     1       1.660   6.024  20.712  0.00  0.00    +0.000 C 
ATOM     19  C   UNL     1       1.481   4.562  20.473  0.00  0.00    +0.000 C 
ATOM     20  C   UNL     1       1.150   4.040  19.281  0.00  0.00    +0.000 C 
ENDBRANCH  16  20
ENDBRANCH  15  16
ENDBRANCH  14  15
ENDBRANCH   1  14
TORSDOF 6
ENDMDL
