MODEL 1
REMARK VINA RESULT:      -8.0      0.000      0.000
REMARK  Name = 
REMARK  6 active torsions:
REMARK  status: ('A' for Active; 'I' for Inactive)
REMARK    1  A    between atoms: C_2  and  C_4
REMARK    2  A    between atoms: C_4  and  C_5
REMARK    3  A    between atoms: C_4  and  N_11
REMARK    4  A    between atoms: N_11  and  C_12
REMARK    5  A    between atoms: C_12  and  C_13
REMARK    6  A    between atoms: C_20  and  C_22
REMARK                            x       y       z     vdW  Elec       q    Type
REMARK                         _______ _______ _______ _____ _____    ______ ____
ROOT
ATOM      1  N   UNL     1       5.361   4.431  16.786  0.00  0.00    +0.000 N 
ATOM      2  C   UNL     1       6.157   4.964  15.748  0.00  0.00    +0.000 C 
ATOM      3  O   UNL     1       6.826   5.985  15.936  0.00  0.00    +0.000 OA
ENDROOT
BRANCH   2   4
ATOM      4  C   UNL     1       6.181   4.435  14.342  0.00  0.00    +0.000 A 
ATOM      5  C   UNL     1       7.318   4.763  13.575  0.00  0.00    +0.000 A 
ATOM      6  C   UNL     1       7.437   4.362  12.241  0.00  0.00    +0.000 A 
ATOM      7  C   UNL     1       6.410   3.641  11.642  0.00  0.00    +0.000 A 
ATOM      8  C   UNL     1       5.298   3.277  12.394  0.00  0.00    +0.000 A 
ATOM      9  C   UNL     1       5.206   3.635  13.744  0.00  0.00    +0.000 A 
ENDBRANCH   2   4
BRANCH   1  10
ATOM     10  C   UNL     1       5.489   5.111  18.103  0.00  0.00    +0.000 C 
BRANCH  10  11
ATOM     11  C   UNL     1       4.343   6.096  18.352  0.00  0.00    +0.000 A 
ATOM     12  C   UNL     1       4.023   7.123  17.452  0.00  0.00    +0.000 A 
ATOM     13  C   UNL     1       2.962   7.998  17.719  0.00  0.00    +0.000 A 
ATOM     14  C   UNL     1       2.213   7.858  18.884  0.00  0.00    +0.000 A 
ATOM     15  C   UNL     1       2.513   6.843  19.784  0.00  0.00    +0.000 A 
ATOM     16  C   UNL     1       3.565   5.964  19.518  0.00  0.00    +0.000 A 
ENDBRANCH  10  11
BRANCH  10  18
ATOM     17  N   UNL     1       7.887   4.836  18.704  0.00  0.00    +0.000 N 
ATOM     18  C   UNL     1       6.878   5.732  18.458  0.00  0.00    +0.000 C 
ATOM     19  O   UNL     1       7.121   6.932  18.561  0.00  0.00    +0.000 OA
ATOM     20  H   UNL     1       8.801   5.219  18.905  0.00  0.00    +0.000 HD
ATOM     21  H   UNL     1       7.827   3.863  18.432  0.00  0.00    +0.000 HD
ENDBRANCH  10  18
ENDBRANCH   1  10
BRANCH   1  22
ATOM     22  C   UNL     1       4.627   3.159  16.749  0.00  0.00    +0.000 C 
BRANCH  22  23
ATOM     23  C   UNL     1       3.353   3.084  17.572  0.00  0.00    +0.000 A 
ATOM     24  C   UNL     1       2.181   3.767  17.196  0.00  0.00    +0.000 A 
ATOM     25  C   UNL     1       1.000   3.631  17.922  0.00  0.00    +0.000 A 
ATOM     26  C   UNL     1       0.962   2.844  19.067  0.00  0.00    +0.000 A 
ATOM     27  C   UNL     1       2.127   2.197  19.489  0.00  0.00    +0.000 A 
ATOM     28  C   UNL     1       3.309   2.317  18.751  0.00  0.00    +0.000 A 
ATOM     29 CL   UNL     1       4.697   1.463  19.334  0.00  0.00    +0.000 Cl
ENDBRANCH  22  23
ENDBRANCH   1  22
TORSDOF 6
ENDMDL
MODEL 2
REMARK VINA RESULT:      -7.8      2.135      5.270
REMARK  Name = 
REMARK  6 active torsions:
REMARK  status: ('A' for Active; 'I' for Inactive)
REMARK    1  A    between atoms: C_2  and  C_4
REMARK    2  A    between atoms: C_4  and  C_5
REMARK    3  A    between atoms: C_4  and  N_11
REMARK    4  A    between atoms: N_11  and  C_12
REMARK    5  A    between atoms: C_12  and  C_13
REMARK    6  A    between atoms: C_20  and  C_22
REMARK                            x       y       z     vdW  Elec       q    Type
REMARK                         _______ _______ _______ _____ _____    ______ ____
ROOT
ATOM      1  N   UNL     1       5.004   4.874  17.698  0.00  0.00    +0.000 N 
ATOM      2  C   UNL     1       4.356   3.670  17.348  0.00  0.00    +0.000 C 
ATOM      3  O   UNL     1       4.746   3.008  16.380  0.00  0.00    +0.000 OA
ENDROOT
BRANCH   2   4
ATOM      4  C   UNL     1       3.113   3.151  18.013  0.00  0.00    +0.000 A 
ATOM      5  C   UNL     1       1.902   3.766  17.634  0.00  0.00    +0.000 A 
ATOM      6  C   UNL     1       0.685   3.397  18.213  0.00  0.00    +0.000 A 
ATOM      7  C   UNL     1       0.657   2.418  19.199  0.00  0.00    +0.000 A 
ATOM      8  C   UNL     1       1.836   1.774  19.560  0.00  0.00    +0.000 A 
ATOM      9  C   UNL     1       3.046   2.110  18.940  0.00  0.00    +0.000 A 
ENDBRANCH   2   4
BRANCH   1  10
ATOM     10  C   UNL     1       6.221   5.199  16.906  0.00  0.00    +0.000 C 
BRANCH  10  11
ATOM     11  C   UNL     1       7.061   6.294  17.571  0.00  0.00    +0.000 A 
ATOM     12  C   UNL     1       7.809   6.067  18.735  0.00  0.00    +0.000 A 
ATOM     13  C   UNL     1       8.568   7.098  19.305  0.00  0.00    +0.000 A 
ATOM     14  C   UNL     1       8.585   8.362  18.722  0.00  0.00    +0.000 A 
ATOM     15  C   UNL     1       7.853   8.603  17.565  0.00  0.00    +0.000 A 
ATOM     16  C   UNL     1       7.102   7.576  16.990  0.00  0.00    +0.000 A 
ENDBRANCH  10  11
BRANCH  10  18
ATOM     17  N   UNL     1       6.817   4.703  14.543  0.00  0.00    +0.000 N 
ATOM     18  C   UNL     1       6.033   5.459  15.376  0.00  0.00    +0.000 C 
ATOM     19  O   UNL     1       5.277   6.290  14.878  0.00  0.00    +0.000 OA
ATOM     20  H   UNL     1       6.688   4.835  13.548  0.00  0.00    +0.000 HD
ATOM     21  H   UNL     1       7.291   3.866  14.855  0.00  0.00    +0.000 HD
ENDBRANCH  10  18
ENDBRANCH   1  10
BRANCH   1  22
ATOM     22  C   UNL     1       4.738   5.685  18.893  0.00  0.00    +0.000 C 
BRANCH  22  23
ATOM     23  C   UNL     1       3.611   6.699  18.791  0.00  0.00    +0.000 A 
ATOM     24  C   UNL     1       3.616   7.723  17.825  0.00  0.00    +0.000 A 
ATOM     25  C   UNL     1       2.542   8.601  17.696  0.00  0.00    +0.000 A 
ATOM     26  C   UNL     1       1.450   8.511  18.552  0.00  0.00    +0.000 A 
ATOM     27  C   UNL     1       1.447   7.535  19.553  0.00  0.00    +0.000 A 
ATOM     28  C   UNL     1       2.516   6.640  19.671  0.00  0.00    +0.000 A 
ATOM     29 CL   UNL     1       2.417   5.450  20.923  0.00  0.00    +0.000 Cl
ENDBRANCH  22  23
ENDBRANCH   1  22
TORSDOF 6
ENDMDL
MODEL 3
REMARK VINA RESULT:      -7.8      0.231      1.317
REMARK  Name = 
REMARK  6 active torsions:
REMARK  status: ('A' for Active; 'I' for Inactive)
REMARK    1  A    between atoms: C_2  and  C_4
REMARK    2  A    between atoms: C_4  and  C_5
REMARK    3  A    between atoms: C_4  and  N_11
REMARK    4  A    between atoms: N_11  and  C_12
REMARK    5  A    between atoms: C_12  and  C_13
REMARK    6  A    between atoms: C_20  and  C_22
REMARK                            x       y       z     vdW  Elec       q    Type
REMARK                         _______ _______ _______ _____ _____    ______ ____
ROOT
ATOM      1  N   UNL     1       5.408   4.463  16.803  0.00  0.00    +0.000 N 
ATOM      2  C   UNL     1       6.163   5.006  15.741  0.00  0.00    +0.000 C 
ATOM      3  O   UNL     1       6.812   6.045  15.903  0.00  0.00    +0.000 OA
ENDROOT
BRANCH   2   4
ATOM      4  C   UNL     1       6.166   4.466  14.339  0.00  0.00    +0.000 A 
ATOM      5  C   UNL     1       4.942   3.948  13.870  0.00  0.00    +0.000 A 
ATOM      6  C   UNL     1       4.830   3.381  12.598  0.00  0.00    +0.000 A 
ATOM      7  C   UNL     1       5.948   3.305  11.774  0.00  0.00    +0.000 A 
ATOM      8  C   UNL     1       7.156   3.843  12.205  0.00  0.00    +0.000 A 
ATOM      9  C   UNL     1       7.251   4.457  13.460  0.00  0.00    +0.000 A 
ENDBRANCH   2   4
BRANCH   1  10
ATOM     10  C   UNL     1       5.551   5.157  18.111  0.00  0.00    +0.000 C 
BRANCH  10  11
ATOM     11  C   UNL     1       4.366   6.084  18.400  0.00  0.00    +0.000 A 
ATOM     12  C   UNL     1       3.592   5.977  19.564  0.00  0.00    +0.000 A 
ATOM     13  C   UNL     1       2.521   6.852  19.789  0.00  0.00    +0.000 A 
ATOM     14  C   UNL     1       2.211   7.837  18.855  0.00  0.00    +0.000 A 
ATOM     15  C   UNL     1       2.971   7.960  17.698  0.00  0.00    +0.000 A 
ATOM     16  C   UNL     1       4.044   7.096  17.474  0.00  0.00    +0.000 A 
ENDBRANCH  10  11
BRANCH  10  18
ATOM     17  N   UNL     1       7.943   5.018  18.778  0.00  0.00    +0.000 N 
ATOM     18  C   UNL     1       6.919   5.852  18.408  0.00  0.00    +0.000 C 
ATOM     19  O   UNL     1       7.133   7.061  18.366  0.00  0.00    +0.000 OA
ATOM     20  H   UNL     1       8.844   5.445  18.945  0.00  0.00    +0.000 HD
ATOM     21  H   UNL     1       7.910   4.018  18.627  0.00  0.00    +0.000 HD
ENDBRANCH  10  18
ENDBRANCH   1  10
BRANCH   1  22
ATOM     22  C   UNL     1       4.705   3.173  16.795  0.00  0.00    +0.000 C 
BRANCH  22  23
ATOM     23  C   UNL     1       3.408   3.099  17.581  0.00  0.00    +0.000 A 
ATOM     24  C   UNL     1       2.240   3.763  17.158  0.00  0.00    +0.000 A 
ATOM     25  C   UNL     1       1.039   3.628  17.851  0.00  0.00    +0.000 A 
ATOM     26  C   UNL     1       0.975   2.862  19.009  0.00  0.00    +0.000 A 
ATOM     27  C   UNL     1       2.134   2.236  19.478  0.00  0.00    +0.000 A 
ATOM     28  C   UNL     1       3.336   2.354  18.772  0.00  0.00    +0.000 A 
ATOM     29 CL   UNL     1       4.714   1.527  19.412  0.00  0.00    +0.000 Cl
ENDBRANCH  22  23
ENDBRANCH   1  22
TORSDOF 6
ENDMDL
MODEL 4
REMARK VINA RESULT:      -7.7      2.376      5.539
REMARK  Name = 
REMARK  6 active torsions:
REMARK  status: ('A' for Active; 'I' for Inactive)
REMARK    1  A    between atoms: C_2  and  C_4
REMARK    2  A    between atoms: C_4  and  C_5
REMARK    3  A    between atoms: C_4  and  N_11
REMARK    4  A    between atoms: N_11  and  C_12
REMARK    5  A    between atoms: C_12  and  C_13
REMARK    6  A    between atoms: C_20  and  C_22
REMARK                            x       y       z     vdW  Elec       q    Type
REMARK                         _______ _______ _______ _____ _____    ______ ____
ROOT
ATOM      1  N   UNL     1       4.599   5.120  17.886  0.00  0.00    +0.000 N 
ATOM      2  C   UNL     1       3.973   3.861  17.757  0.00  0.00    +0.000 C 
ATOM      3  O   UNL     1       4.320   3.079  16.866  0.00  0.00    +0.000 OA
ENDROOT
BRANCH   2   4
ATOM      4  C   UNL     1       2.798   3.410  18.578  0.00  0.00    +0.000 A 
ATOM      5  C   UNL     1       3.090   2.934  19.872  0.00  0.00    +0.000 A 
ATOM      6  C   UNL     1       2.086   2.450  20.714  0.00  0.00    +0.000 A 
ATOM      7  C   UNL     1       0.769   2.414  20.270  0.00  0.00    +0.000 A 
ATOM      8  C   UNL     1       0.456   2.912  19.010  0.00  0.00    +0.000 A 
ATOM      9  C   UNL     1       1.457   3.445  18.189  0.00  0.00    +0.000 A 
ENDBRANCH   2   4
BRANCH   1  10
ATOM     10  C   UNL     1       5.745   5.361  16.969  0.00  0.00    +0.000 C 
BRANCH  10  11
ATOM     11  C   UNL     1       6.753   6.351  17.562  0.00  0.00    +0.000 A 
ATOM     12  C   UNL     1       6.895   7.661  17.082  0.00  0.00    +0.000 A 
ATOM     13  C   UNL     1       7.826   8.533  17.660  0.00  0.00    +0.000 A 
ATOM     14  C   UNL     1       8.625   8.108  18.718  0.00  0.00    +0.000 A 
ATOM     15  C   UNL     1       8.493   6.814  19.210  0.00  0.00    +0.000 A 
ATOM     16  C   UNL     1       7.561   5.944  18.642  0.00  0.00    +0.000 A 
ENDBRANCH  10  11
BRANCH  10  18
ATOM     17  N   UNL     1       5.604   4.668  14.585  0.00  0.00    +0.000 N 
ATOM     18  C   UNL     1       5.414   5.692  15.478  0.00  0.00    +0.000 C 
ATOM     19  O   UNL     1       5.036   6.780  15.052  0.00  0.00    +0.000 OA
ATOM     20  H   UNL     1       5.367   4.853  13.619  0.00  0.00    +0.000 HD
ATOM     21  H   UNL     1       5.700   3.704  14.876  0.00  0.00    +0.000 HD
ENDBRANCH  10  18
ENDBRANCH   1  10
BRANCH   1  22
ATOM     22  C   UNL     1       4.385   6.086  18.972  0.00  0.00    +0.000 C 
BRANCH  22  23
ATOM     23  C   UNL     1       3.289   7.117  18.760  0.00  0.00    +0.000 A 
ATOM     24  C   UNL     1       3.335   8.047  17.703  0.00  0.00    +0.000 A 
ATOM     25  C   UNL     1       2.289   8.939  17.478  0.00  0.00    +0.000 A 
ATOM     26  C   UNL     1       1.186   8.959  18.323  0.00  0.00    +0.000 A 
ATOM     27  C   UNL     1       1.142   8.081  19.410  0.00  0.00    +0.000 A 
ATOM     28  C   UNL     1       2.183   7.171  19.626  0.00  0.00    +0.000 A 
ATOM     29 CL   UNL     1       2.034   6.106  20.981  0.00  0.00    +0.000 Cl
ENDBRANCH  22  23
ENDBRANCH   1  22
TORSDOF 6
ENDMDL
MODEL 5
REMARK VINA RESULT:      -7.5      2.447      5.451
REMARK  Name = 
REMARK  6 active torsions:
REMARK  status: ('A' for Active; 'I' for Inactive)
REMARK    1  A    between atoms: C_2  and  C_4
REMARK    2  A    between atoms: C_4  and  C_5
REMARK    3  A    between atoms: C_4  and  N_11
REMARK    4  A    between atoms: N_11  and  C_12
REMARK    5  A    between atoms: C_12  and  C_13
REMARK    6  A    between atoms: C_20  and  C_22
REMARK                            x       y       z     vdW  Elec       q    Type
REMARK                         _______ _______ _______ _____ _____    ______ ____
ROOT
ATOM      1  N   UNL     1       3.506   6.042  17.661  0.00  0.00    +0.000 N 
ATOM      2  C   UNL     1       3.476   7.440  17.856  0.00  0.00    +0.000 C 
ATOM      3  O   UNL     1       4.469   8.128  17.595  0.00  0.00    +0.000 OA
ENDROOT
BRANCH   2   4
ATOM      4  C   UNL     1       2.330   8.185  18.478  0.00  0.00    +0.000 A 
ATOM      5  C   UNL     1       1.567   8.990  17.608  0.00  0.00    +0.000 A 
ATOM      6  C   UNL     1       0.501   9.762  18.077  0.00  0.00    +0.000 A 
ATOM      7  C   UNL     1       0.188   9.758  19.432  0.00  0.00    +0.000 A 
ATOM      8  C   UNL     1       0.906   8.942  20.300  0.00  0.00    +0.000 A 
ATOM      9  C   UNL     1       1.940   8.130  19.818  0.00  0.00    +0.000 A 
ENDBRANCH   2   4
BRANCH   1  10
ATOM     10  C   UNL     1       4.743   5.510  17.028  0.00  0.00    +0.000 C 
BRANCH  10  11
ATOM     11  C   UNL     1       5.985   5.787  17.880  0.00  0.00    +0.000 A 
ATOM     12  C   UNL     1       6.976   6.701  17.493  0.00  0.00    +0.000 A 
ATOM     13  C   UNL     1       8.093   6.927  18.307  0.00  0.00    +0.000 A 
ATOM     14  C   UNL     1       8.234   6.243  19.512  0.00  0.00    +0.000 A 
ATOM     15  C   UNL     1       7.259   5.337  19.913  0.00  0.00    +0.000 A 
ATOM     16  C   UNL     1       6.140   5.115  19.108  0.00  0.00    +0.000 A 
ENDBRANCH  10  11
BRANCH  10  18
ATOM     17  N   UNL     1       5.322   4.793  14.718  0.00  0.00    +0.000 N 
ATOM     18  C   UNL     1       4.982   5.851  15.522  0.00  0.00    +0.000 C 
ATOM     19  O   UNL     1       4.920   6.972  15.022  0.00  0.00    +0.000 OA
ATOM     20  H   UNL     1       5.452   4.988  13.734  0.00  0.00    +0.000 HD
ATOM     21  H   UNL     1       5.183   3.831  14.999  0.00  0.00    +0.000 HD
ENDBRANCH  10  18
ENDBRANCH   1  10
BRANCH   1  22
ATOM     22  C   UNL     1       2.367   5.124  17.797  0.00  0.00    +0.000 C 
BRANCH  22  23
ATOM     23  C   UNL     1       2.324   4.274  19.055  0.00  0.00    +0.000 A 
ATOM     24  C   UNL     1       2.199   4.844  20.336  0.00  0.00    +0.000 A 
ATOM     25  C   UNL     1       2.089   4.048  21.475  0.00  0.00    +0.000 A 
ATOM     26  C   UNL     1       2.141   2.663  21.375  0.00  0.00    +0.000 A 
ATOM     27  C   UNL     1       2.317   2.076  20.119  0.00  0.00    +0.000 A 
ATOM     28  C   UNL     1       2.408   2.872  18.972  0.00  0.00    +0.000 A 
ATOM     29 CL   UNL     1       2.601   2.060  17.457  0.00  0.00    +0.000 Cl
ENDBRANCH  22  23
ENDBRANCH   1  22
TORSDOF 6
ENDMDL
MODEL 6
REMARK VINA RESULT:      -7.4      1.561      5.396
REMARK  Name = 
REMARK  6 active torsions:
REMARK  status: ('A' for Active; 'I' for Inactive)
REMARK    1  A    between atoms: C_2  and  C_4
REMARK    2  A    between atoms: C_4  and  C_5
REMARK    3  A    between atoms: C_4  and  N_11
REMARK    4  A    between atoms: N_11  and  C_12
REMARK    5  A    between atoms: C_12  and  C_13
REMARK    6  A    between atoms: C_20  and  C_22
REMARK                            x       y       z     vdW  Elec       q    Type
REMARK                         _______ _______ _______ _____ _____    ______ ____
ROOT
ATOM      1  N   UNL     1       5.164   5.679  17.003  0.00  0.00    +0.000 N 
ATOM      2  C   UNL     1       4.900   6.973  17.501  0.00  0.00    +0.000 C 
ATOM      3  O   UNL     1       5.789   7.830  17.516  0.00  0.00    +0.000 OA
ENDROOT
BRANCH   2   4
ATOM      4  C   UNL     1       3.605   7.388  18.139  0.00  0.00    +0.000 A 
ATOM      5  C   UNL     1       2.814   8.297  17.407  0.00  0.00    +0.000 A 
ATOM      6  C   UNL     1       1.608   8.787  17.915  0.00  0.00    +0.000 A 
ATOM      7  C   UNL     1       1.177   8.390  19.176  0.00  0.00    +0.000 A 
ATOM      8  C   UNL     1       1.925   7.466  19.898  0.00  0.00    +0.000 A 
ATOM      9  C   UNL     1       3.106   6.938  19.363  0.00  0.00    +0.000 A 
ENDBRANCH   2   4
BRANCH   1  10
ATOM     10  C   UNL     1       6.516   5.483  16.413  0.00  0.00    +0.000 C 
BRANCH  10  11
ATOM     11  C   UNL     1       6.447   4.844  15.023  0.00  0.00    +0.000 A 
ATOM     12  C   UNL     1       5.469   3.901  14.675  0.00  0.00    +0.000 A 
ATOM     13  C   UNL     1       5.440   3.347  13.389  0.00  0.00    +0.000 A 
ATOM     14  C   UNL     1       6.387   3.725  12.440  0.00  0.00    +0.000 A 
ATOM     15  C   UNL     1       7.360   4.662  12.767  0.00  0.00    +0.000 A 
ATOM     16  C   UNL     1       7.387   5.222  14.045  0.00  0.00    +0.000 A 
ENDBRANCH  10  11
BRANCH  10  18
ATOM     17  N   UNL     1       7.729   5.318  18.578  0.00  0.00    +0.000 N 
ATOM     18  C   UNL     1       7.600   4.806  17.312  0.00  0.00    +0.000 C 
ATOM     19  O   UNL     1       8.347   3.892  16.969  0.00  0.00    +0.000 OA
ATOM     20  H   UNL     1       8.405   4.873  19.185  0.00  0.00    +0.000 HD
ATOM     21  H   UNL     1       7.023   5.906  19.000  0.00  0.00    +0.000 HD
ENDBRANCH  10  18
ENDBRANCH   1  10
BRANCH   1  22
ATOM     22  C   UNL     1       4.176   4.610  16.800  0.00  0.00    +0.000 C 
BRANCH  22  23
ATOM     23  C   UNL     1       3.771   3.814  18.028  0.00  0.00    +0.000 A 
ATOM     24  C   UNL     1       4.712   3.112  18.805  0.00  0.00    +0.000 A 
ATOM     25  C   UNL     1       4.336   2.446  19.970  0.00  0.00    +0.000 A 
ATOM     26  C   UNL     1       3.006   2.425  20.372  0.00  0.00    +0.000 A 
ATOM     27  C   UNL     1       2.046   3.072  19.589  0.00  0.00    +0.000 A 
ATOM     28  C   UNL     1       2.424   3.757  18.430  0.00  0.00    +0.000 A 
ATOM     29 CL   UNL     1       1.173   4.549  17.534  0.00  0.00    +0.000 Cl
ENDBRANCH  22  23
ENDBRANCH   1  22
TORSDOF 6
ENDMDL
MODEL 7
REMARK VINA RESULT:      -7.3      1.152      1.515
REMARK  Name = 
REMARK  6 active torsions:
REMARK  status: ('A' for Active; 'I' for Inactive)
REMARK    1  A    between atoms: C_2  and  C_4
REMARK    2  A    between atoms: C_4  and  C_5
REMARK    3  A    between atoms: C_4  and  N_11
REMARK    4  A    between atoms: N_11  and  C_12
REMARK    5  A    between atoms: C_12  and  C_13
REMARK    6  A    between atoms: C_20  and  C_22
REMARK                            x       y       z     vdW  Elec       q    Type
REMARK                         _______ _______ _______ _____ _____    ______ ____
ROOT
ATOM      1  N   UNL     1       5.087   4.611  16.825  0.00  0.00    +0.000 N 
ATOM      2  C   UNL     1       5.869   5.043  15.733  0.00  0.00    +0.000 C 
ATOM      3  O   UNL     1       6.568   6.058  15.828  0.00  0.00    +0.000 OA
ENDROOT
BRANCH   2   4
ATOM      4  C   UNL     1       5.847   4.410  14.371  0.00  0.00    +0.000 A 
ATOM      5  C   UNL     1       7.064   4.423  13.659  0.00  0.00    +0.000 A 
ATOM      6  C   UNL     1       7.158   3.900  12.367  0.00  0.00    +0.000 A 
ATOM      7  C   UNL     1       6.030   3.370  11.752  0.00  0.00    +0.000 A 
ATOM      8  C   UNL     1       4.828   3.316  12.451  0.00  0.00    +0.000 A 
ATOM      9  C   UNL     1       4.751   3.793  13.765  0.00  0.00    +0.000 A 
ENDBRANCH   2   4
BRANCH   1  10
ATOM     10  C   UNL     1       5.263   5.383  18.084  0.00  0.00    +0.000 C 
BRANCH  10  11
ATOM     11  C   UNL     1       4.135   6.398  18.295  0.00  0.00    +0.000 A 
ATOM     12  C   UNL     1       3.800   7.364  17.334  0.00  0.00    +0.000 A 
ATOM     13  C   UNL     1       2.756   8.268  17.568  0.00  0.00    +0.000 A 
ATOM     14  C   UNL     1       2.040   8.220  18.761  0.00  0.00    +0.000 A 
ATOM     15  C   UNL     1       2.354   7.267  19.722  0.00  0.00    +0.000 A 
ATOM     16  C   UNL     1       3.389   6.358  19.489  0.00  0.00    +0.000 A 
ENDBRANCH  10  11
BRANCH  10  18
ATOM     17  N   UNL     1       7.647   5.138  18.748  0.00  0.00    +0.000 N 
ATOM     18  C   UNL     1       6.668   6.012  18.349  0.00  0.00    +0.000 C 
ATOM     19  O   UNL     1       6.948   7.206  18.260  0.00  0.00    +0.000 OA
ATOM     20  H   UNL     1       8.571   5.521  18.896  0.00  0.00    +0.000 HD
ATOM     21  H   UNL     1       7.558   4.136  18.637  0.00  0.00    +0.000 HD
ENDBRANCH  10  18
ENDBRANCH   1  10
BRANCH   1  22
ATOM     22  C   UNL     1       4.321   3.358  16.901  0.00  0.00    +0.000 C 
BRANCH  22  23
ATOM     23  C   UNL     1       3.641   3.055  18.225  0.00  0.00    +0.000 A 
ATOM     24  C   UNL     1       4.318   2.417  19.282  0.00  0.00    +0.000 A 
ATOM     25  C   UNL     1       3.703   2.210  20.515  0.00  0.00    +0.000 A 
ATOM     26  C   UNL     1       2.383   2.595  20.718  0.00  0.00    +0.000 A 
ATOM     27  C   UNL     1       1.675   3.183  19.666  0.00  0.00    +0.000 A 
ATOM     28  C   UNL     1       2.296   3.409  18.434  0.00  0.00    +0.000 A 
ATOM     29 CL   UNL     1       1.351   4.163  17.197  0.00  0.00    +0.000 Cl
ENDBRANCH  22  23
ENDBRANCH   1  22
TORSDOF 6
ENDMDL
MODEL 8
REMARK VINA RESULT:      -7.3      1.585      5.346
REMARK  Name = 
REMARK  6 active torsions:
REMARK  status: ('A' for Active; 'I' for Inactive)
REMARK    1  A    between atoms: C_2  and  C_4
REMARK    2  A    between atoms: C_4  and  C_5
REMARK    3  A    between atoms: C_4  and  N_11
REMARK    4  A    between atoms: N_11  and  C_12
REMARK    5  A    between atoms: C_12  and  C_13
REMARK    6  A    between atoms: C_20  and  C_22
REMARK                            x       y       z     vdW  Elec       q    Type
REMARK                         _______ _______ _______ _____ _____    ______ ____
ROOT
ATOM      1  N   UNL     1       5.184   5.749  17.025  0.00  0.00    +0.000 N 
ATOM      2  C   UNL     1       4.921   7.057  17.488  0.00  0.00    +0.000 C 
ATOM      3  O   UNL     1       5.825   7.898  17.530  0.00  0.00    +0.000 OA
ENDROOT
BRANCH   2   4
ATOM      4  C   UNL     1       3.605   7.507  18.055  0.00  0.00    +0.000 A 
ATOM      5  C   UNL     1       3.266   6.991  19.323  0.00  0.00    +0.000 A 
ATOM      6  C   UNL     1       2.050   7.305  19.936  0.00  0.00    +0.000 A 
ATOM      7  C   UNL     1       1.140   8.129  19.283  0.00  0.00    +0.000 A 
ATOM      8  C   UNL     1       1.472   8.677  18.049  0.00  0.00    +0.000 A 
ATOM      9  C   UNL     1       2.713   8.402  17.462  0.00  0.00    +0.000 A 
ENDBRANCH   2   4
BRANCH   1  10
ATOM     10  C   UNL     1       6.558   5.518  16.504  0.00  0.00    +0.000 C 
BRANCH  10  11
ATOM     11  C   UNL     1       6.543   4.942  15.085  0.00  0.00    +0.000 A 
ATOM     12  C   UNL     1       7.487   5.305  14.114  0.00  0.00    +0.000 A 
ATOM     13  C   UNL     1       7.438   4.747  12.830  0.00  0.00    +0.000 A 
ATOM     14  C   UNL     1       6.446   3.826  12.502  0.00  0.00    +0.000 A 
ATOM     15  C   UNL     1       5.506   3.451  13.454  0.00  0.00    +0.000 A 
ATOM     16  C   UNL     1       5.556   3.999  14.738  0.00  0.00    +0.000 A 
ENDBRANCH  10  11
BRANCH  10  18
ATOM     17  N   UNL     1       7.536   5.114  18.755  0.00  0.00    +0.000 N 
ATOM     18  C   UNL     1       7.558   4.754  17.432  0.00  0.00    +0.000 C 
ATOM     19  O   UNL     1       8.363   3.900  17.068  0.00  0.00    +0.000 OA
ATOM     20  H   UNL     1       8.155   4.610  19.377  0.00  0.00    +0.000 HD
ATOM     21  H   UNL     1       6.772   5.637  19.163  0.00  0.00    +0.000 HD
ENDBRANCH  10  18
ENDBRANCH   1  10
BRANCH   1  22
ATOM     22  C   UNL     1       4.186   4.695  16.793  0.00  0.00    +0.000 C 
BRANCH  22  23
ATOM     23  C   UNL     1       3.719   3.920  18.012  0.00  0.00    +0.000 A 
ATOM     24  C   UNL     1       4.618   3.228  18.846  0.00  0.00    +0.000 A 
ATOM     25  C   UNL     1       4.183   2.581  20.000  0.00  0.00    +0.000 A 
ATOM     26  C   UNL     1       2.835   2.569  20.337  0.00  0.00    +0.000 A 
ATOM     27  C   UNL     1       1.916   3.205  19.496  0.00  0.00    +0.000 A 
ATOM     28  C   UNL     1       2.353   3.871  18.347  0.00  0.00    +0.000 A 
ATOM     29 CL   UNL     1       1.150   4.651  17.378  0.00  0.00    +0.000 Cl
ENDBRANCH  22  23
ENDBRANCH   1  22
TORSDOF 6
ENDMDL
MODEL 9
REMARK VINA RESULT:      -7.0      8.139     11.701
REMARK  Name = 
REMARK  6 active torsions:
REMARK  status: ('A' for Active; 'I' for Inactive)
REMARK    1  A    between atoms: C_2  and  C_4
REMARK    2  A    between atoms: C_4  and  C_5
REMARK    3  A    between atoms: C_4  and  N_11
REMARK    4  A    between atoms: N_11  and  C_12
REMARK    5  A    between atoms: C_12  and  C_13
REMARK    6  A    between atoms: C_20  and  C_22
REMARK                            x       y       z     vdW  Elec       q    Type
REMARK                         _______ _______ _______ _____ _____    ______ ____
ROOT
ATOM      1  N   UNL     1       0.535  12.986  19.744  0.00  0.00    +0.000 N 
ATOM      2  C   UNL     1      -0.512  13.927  19.635  0.00  0.00    +0.000 C 
ATOM      3  O   UNL     1      -1.648  13.564  19.314  0.00  0.00    +0.000 OA
ENDROOT
BRANCH   2   4
ATOM      4  C   UNL     1      -0.335  15.412  19.781  0.00  0.00    +0.000 A 
ATOM      5  C   UNL     1      -0.228  16.146  18.582  0.00  0.00    +0.000 A 
ATOM      6  C   UNL     1      -0.021  17.528  18.589  0.00  0.00    +0.000 A 
ATOM      7  C   UNL     1       0.102  18.202  19.798  0.00  0.00    +0.000 A 
ATOM      8  C   UNL     1      -0.037  17.501  20.992  0.00  0.00    +0.000 A 
ATOM      9  C   UNL     1      -0.297  16.125  20.980  0.00  0.00    +0.000 A 
ENDBRANCH   2   4
BRANCH   1  10
ATOM     10  C   UNL     1       0.138  11.564  19.562  0.00  0.00    +0.000 C 
BRANCH  10  11
ATOM     11  C   UNL     1       0.099  10.806  20.892  0.00  0.00    +0.000 A 
ATOM     12  C   UNL     1       0.971   9.746  21.182  0.00  0.00    +0.000 A 
ATOM     13  C   UNL     1       0.903   9.086  22.415  0.00  0.00    +0.000 A 
ATOM     14  C   UNL     1      -0.035   9.474  23.369  0.00  0.00    +0.000 A 
ATOM     15  C   UNL     1      -0.903  10.525  23.100  0.00  0.00    +0.000 A 
ATOM     16  C   UNL     1      -0.833  11.191  21.875  0.00  0.00    +0.000 A 
ENDBRANCH  10  11
BRANCH  10  18
ATOM     17  N   UNL     1       0.095   9.876  17.735  0.00  0.00    +0.000 N 
ATOM     18  C   UNL     1       0.875  10.750  18.450  0.00  0.00    +0.000 C 
ATOM     19  O   UNL     1       2.076  10.809  18.195  0.00  0.00    +0.000 OA
ATOM     20  H   UNL     1       0.548   9.362  16.990  0.00  0.00    +0.000 HD
ATOM     21  H   UNL     1      -0.915   9.927  17.734  0.00  0.00    +0.000 HD
ENDBRANCH  10  18
ENDBRANCH   1  10
BRANCH   1  22
ATOM     22  C   UNL     1       1.891  13.251  20.244  0.00  0.00    +0.000 C 
BRANCH  22  23
ATOM     23  C   UNL     1       2.672  14.349  19.543  0.00  0.00    +0.000 A 
ATOM     24  C   UNL     1       2.873  14.348  18.150  0.00  0.00    +0.000 A 
ATOM     25  C   UNL     1       3.530  15.399  17.513  0.00  0.00    +0.000 A 
ATOM     26  C   UNL     1       4.041  16.461  18.249  0.00  0.00    +0.000 A 
ATOM     27  C   UNL     1       3.900  16.458  19.639  0.00  0.00    +0.000 A 
ATOM     28  C   UNL     1       3.224  15.414  20.279  0.00  0.00    +0.000 A 
ATOM     29 CL   UNL     1       3.074  15.504  22.000  0.00  0.00    +0.000 Cl
ENDBRANCH  22  23
ENDBRANCH   1  22
TORSDOF 6
ENDMDL
