MODEL 1
REMARK VINA RESULT:      -8.6      0.000      0.000
REMARK  Name = 
REMARK  5 active torsions:
REMARK  status: ('A' for Active; 'I' for Inactive)
REMARK    1  A    between atoms: C_1  and  C_2
REMARK    2  A    between atoms: C_4  and  C_5
REMARK    3  A    between atoms: C_16  and  N_17
REMARK    4  A    between atoms: C_18  and  C_20
REMARK    5  A    between atoms: C_23  and  N_24
REMARK                            x       y       z     vdW  Elec       q    Type
REMARK                         _______ _______ _______ _____ _____    ______ ____
ROOT
ATOM      1  C   UNL     1      -0.042  11.018  18.424  0.00  0.00    +0.000 C 
ATOM      2  C   UNL     1       0.510   9.876  19.236  0.00  0.00    +0.000 A 
ATOM      3  C   UNL     1       1.370   8.977  18.568  0.00  0.00    +0.000 A 
ATOM      4  C   UNL     1       1.933   7.863  19.206  0.00  0.00    +0.000 A 
ATOM      5  C   UNL     1       1.615   7.648  20.544  0.00  0.00    +0.000 A 
ATOM      6  C   UNL     1       0.767   8.533  21.223  0.00  0.00    +0.000 A 
ATOM      7  C   UNL     1       0.206   9.656  20.596  0.00  0.00    +0.000 A 
ENDROOT
BRANCH   4   8
ATOM      8  C   UNL     1       2.823   6.984  18.456  0.00  0.00    +0.000 A 
ATOM      9  N   UNL     1       2.856   5.663  18.463  0.00  0.00    +0.000 NA
ATOM     10  C   UNL     1       3.882   5.365  17.620  0.00  0.00    +0.000 A 
ATOM     11  N   UNL     1       4.320   4.127  17.301  0.00  0.00    +0.000 NA
ATOM     12  C   UNL     1       5.375   4.126  16.452  0.00  0.00    +0.000 A 
ATOM     13  C   UNL     1       5.995   5.258  15.920  0.00  0.00    +0.000 A 
ATOM     14  C   UNL     1       5.527   6.531  16.254  0.00  0.00    +0.000 A 
ATOM     15  C   UNL     1       4.449   6.527  17.124  0.00  0.00    +0.000 A 
ATOM     16  O   UNL     1       3.766   7.583  17.651  0.00  0.00    +0.000 OA
ENDBRANCH   4   8
BRANCH   7  17
ATOM     17  N   UNL     1      -0.621  10.572  21.303  0.00  0.00    +0.000 N 
ATOM     18  C   UNL     1      -0.669  10.762  22.682  0.00  0.00    +0.000 C 
ATOM     19  O   UNL     1      -0.070  10.086  23.512  0.00  0.00    +0.000 OA
ATOM     20  H   UNL     1      -1.224  11.174  20.756  0.00  0.00    +0.000 HD
BRANCH  18  21
ATOM     21  C   UNL     1      -1.508  11.865  23.118  0.00  0.00    +0.000 A 
ATOM     22  C   UNL     1      -1.200  13.215  23.234  0.00  0.00    +0.000 A 
ATOM     23  C   UNL     1      -2.381  13.883  23.637  0.00  0.00    +0.000 A 
ATOM     24  C   UNL     1      -3.333  12.895  23.746  0.00  0.00    +0.000 A 
ATOM     25  O   UNL     1      -2.825  11.664  23.450  0.00  0.00    +0.000 OA
BRANCH  24  26
ATOM     26  N   UNL     1      -4.717  12.952  24.084  0.00  0.00    +0.000 N 
ATOM     27  O   UNL     1      -5.352  13.918  23.645  0.00  0.00    +0.000 OA
ATOM     28  O   UNL     1      -5.173  12.037  24.784  0.00  0.00    +0.000 OA
ENDBRANCH  24  26
ENDBRANCH  18  21
ENDBRANCH   7  17
TORSDOF 4
ENDMDL
MODEL 2
REMARK VINA RESULT:      -8.5      1.561      2.230
REMARK  Name = 
REMARK  5 active torsions:
REMARK  status: ('A' for Active; 'I' for Inactive)
REMARK    1  A    between atoms: C_1  and  C_2
REMARK    2  A    between atoms: C_4  and  C_5
REMARK    3  A    between atoms: C_16  and  N_17
REMARK    4  A    between atoms: C_18  and  C_20
REMARK    5  A    between atoms: C_23  and  N_24
REMARK                            x       y       z     vdW  Elec       q    Type
REMARK                         _______ _______ _______ _____ _____    ______ ____
ROOT
ATOM      1  C   UNL     1       0.900   8.085  21.765  0.00  0.00    +0.000 C 
ATOM      2  C   UNL     1       1.182   8.454  20.332  0.00  0.00    +0.000 A 
ATOM      3  C   UNL     1       2.159   7.688  19.657  0.00  0.00    +0.000 A 
ATOM      4  C   UNL     1       2.527   7.943  18.329  0.00  0.00    +0.000 A 
ATOM      5  C   UNL     1       1.901   8.998  17.671  0.00  0.00    +0.000 A 
ATOM      6  C   UNL     1       0.928   9.765  18.324  0.00  0.00    +0.000 A 
ATOM      7  C   UNL     1       0.545   9.512  19.650  0.00  0.00    +0.000 A 
ENDROOT
BRANCH   4   8
ATOM      8  C   UNL     1       3.534   7.102  17.693  0.00  0.00    +0.000 A 
ATOM      9  N   UNL     1       4.664   7.480  17.121  0.00  0.00    +0.000 NA
ATOM     10  C   UNL     1       5.199   6.312  16.670  0.00  0.00    +0.000 A 
ATOM     11  N   UNL     1       6.364   6.174  15.999  0.00  0.00    +0.000 NA
ATOM     12  C   UNL     1       6.642   4.895  15.653  0.00  0.00    +0.000 A 
ATOM     13  C   UNL     1       5.847   3.781  15.934  0.00  0.00    +0.000 A 
ATOM     14  C   UNL     1       4.649   3.940  16.634  0.00  0.00    +0.000 A 
ATOM     15  C   UNL     1       4.368   5.250  16.984  0.00  0.00    +0.000 A 
ATOM     16  O   UNL     1       3.289   5.747  17.655  0.00  0.00    +0.000 OA
ENDBRANCH   4   8
BRANCH   7  17
ATOM     17  N   UNL     1      -0.473  10.269  20.292  0.00  0.00    +0.000 N 
ATOM     18  C   UNL     1      -0.297  11.376  21.118  0.00  0.00    +0.000 C 
ATOM     19  O   UNL     1       0.785  11.809  21.502  0.00  0.00    +0.000 OA
ATOM     20  H   UNL     1      -1.434  10.001  20.117  0.00  0.00    +0.000 HD
BRANCH  18  21
ATOM     21  C   UNL     1      -1.525  12.038  21.524  0.00  0.00    +0.000 A 
ATOM     22  C   UNL     1      -2.487  12.665  20.745  0.00  0.00    +0.000 A 
ATOM     23  C   UNL     1      -3.521  13.092  21.613  0.00  0.00    +0.000 A 
ATOM     24  C   UNL     1      -3.118  12.699  22.870  0.00  0.00    +0.000 A 
ATOM     25  O   UNL     1      -1.907  12.072  22.842  0.00  0.00    +0.000 OA
BRANCH  24  26
ATOM     26  N   UNL     1      -3.749  12.820  24.143  0.00  0.00    +0.000 N 
ATOM     27  O   UNL     1      -4.521  11.910  24.463  0.00  0.00    +0.000 OA
ATOM     28  O   UNL     1      -3.476  13.819  24.824  0.00  0.00    +0.000 OA
ENDBRANCH  24  26
ENDBRANCH  18  21
ENDBRANCH   7  17
TORSDOF 4
ENDMDL
MODEL 3
REMARK VINA RESULT:      -8.5      2.593     10.728
REMARK  Name = 
REMARK  5 active torsions:
REMARK  status: ('A' for Active; 'I' for Inactive)
REMARK    1  A    between atoms: C_1  and  C_2
REMARK    2  A    between atoms: C_4  and  C_5
REMARK    3  A    between atoms: C_16  and  N_17
REMARK    4  A    between atoms: C_18  and  C_20
REMARK    5  A    between atoms: C_23  and  N_24
REMARK                            x       y       z     vdW  Elec       q    Type
REMARK                         _______ _______ _______ _____ _____    ______ ____
ROOT
ATOM      1  C   UNL     1       2.621   5.799  20.091  0.00  0.00    +0.000 C 
ATOM      2  C   UNL     1       2.295   7.141  19.491  0.00  0.00    +0.000 A 
ATOM      3  C   UNL     1       1.584   8.049  20.306  0.00  0.00    +0.000 A 
ATOM      4  C   UNL     1       1.203   9.321  19.858  0.00  0.00    +0.000 A 
ATOM      5  C   UNL     1       1.541   9.682  18.557  0.00  0.00    +0.000 A 
ATOM      6  C   UNL     1       2.250   8.796  17.736  0.00  0.00    +0.000 A 
ATOM      7  C   UNL     1       2.645   7.524  18.179  0.00  0.00    +0.000 A 
ENDROOT
BRANCH   4   8
ATOM      8  C   UNL     1       0.480  10.209  20.761  0.00  0.00    +0.000 A 
ATOM      9  N   UNL     1      -0.480   9.895  21.613  0.00  0.00    +0.000 NA
ATOM     10  C   UNL     1      -0.816  11.091  22.170  0.00  0.00    +0.000 A 
ATOM     11  N   UNL     1      -1.769  11.297  23.106  0.00  0.00    +0.000 NA
ATOM     12  C   UNL     1      -1.905  12.595  23.466  0.00  0.00    +0.000 A 
ATOM     13  C   UNL     1      -1.163  13.665  22.960  0.00  0.00    +0.000 A 
ATOM     14  C   UNL     1      -0.177  13.435  21.998  0.00  0.00    +0.000 A 
ATOM     15  C   UNL     1      -0.043  12.106  21.632  0.00  0.00    +0.000 A 
ATOM     16  O   UNL     1       0.807  11.547  20.723  0.00  0.00    +0.000 OA
ENDBRANCH   4   8
BRANCH   7  17
ATOM     17  N   UNL     1       3.401   6.646  17.353  0.00  0.00    +0.000 N 
ATOM     18  C   UNL     1       4.772   6.697  17.115  0.00  0.00    +0.000 C 
ATOM     19  O   UNL     1       5.528   7.579  17.507  0.00  0.00    +0.000 OA
ATOM     20  H   UNL     1       2.905   5.884  16.906  0.00  0.00    +0.000 HD
BRANCH  18  21
ATOM     21  C   UNL     1       5.298   5.586  16.338  0.00  0.00    +0.000 A 
ATOM     22  C   UNL     1       5.220   4.222  16.585  0.00  0.00    +0.000 A 
ATOM     23  C   UNL     1       5.834   3.560  15.495  0.00  0.00    +0.000 A 
ATOM     24  C   UNL     1       6.252   4.567  14.654  0.00  0.00    +0.000 A 
ATOM     25  O   UNL     1       5.951   5.802  15.150  0.00  0.00    +0.000 OA
BRANCH  24  26
ATOM     26  N   UNL     1       6.904   4.527  13.387  0.00  0.00    +0.000 N 
ATOM     27  O   UNL     1       7.749   5.405  13.174  0.00  0.00    +0.000 OA
ATOM     28  O   UNL     1       6.578   3.623  12.604  0.00  0.00    +0.000 OA
ENDBRANCH  24  26
ENDBRANCH  18  21
ENDBRANCH   7  17
TORSDOF 4
ENDMDL
MODEL 4
REMARK VINA RESULT:      -8.4      2.595     10.772
REMARK  Name = 
REMARK  5 active torsions:
REMARK  status: ('A' for Active; 'I' for Inactive)
REMARK    1  A    between atoms: C_1  and  C_2
REMARK    2  A    between atoms: C_4  and  C_5
REMARK    3  A    between atoms: C_16  and  N_17
REMARK    4  A    between atoms: C_18  and  C_20
REMARK    5  A    between atoms: C_23  and  N_24
REMARK                            x       y       z     vdW  Elec       q    Type
REMARK                         _______ _______ _______ _____ _____    ______ ____
ROOT
ATOM      1  C   UNL     1       2.643   5.970  19.982  0.00  0.00    +0.000 C 
ATOM      2  C   UNL     1       2.285   7.288  19.348  0.00  0.00    +0.000 A 
ATOM      3  C   UNL     1       1.516   8.181  20.126  0.00  0.00    +0.000 A 
ATOM      4  C   UNL     1       1.100   9.430  19.644  0.00  0.00    +0.000 A 
ATOM      5  C   UNL     1       1.463   9.782  18.347  0.00  0.00    +0.000 A 
ATOM      6  C   UNL     1       2.230   8.910  17.563  0.00  0.00    +0.000 A 
ATOM      7  C   UNL     1       2.659   7.662  18.040  0.00  0.00    +0.000 A 
ENDROOT
BRANCH   4   8
ATOM      8  C   UNL     1       0.318  10.306  20.510  0.00  0.00    +0.000 A 
ATOM      9  N   UNL     1       0.437  10.474  21.815  0.00  0.00    +0.000 NA
ATOM     10  C   UNL     1      -0.548  11.366  22.112  0.00  0.00    +0.000 A 
ATOM     11  N   UNL     1      -0.840  11.854  23.338  0.00  0.00    +0.000 NA
ATOM     12  C   UNL     1      -1.887  12.712  23.345  0.00  0.00    +0.000 A 
ATOM     13  C   UNL     1      -2.633  13.099  22.230  0.00  0.00    +0.000 A 
ATOM     14  C   UNL     1      -2.314  12.592  20.968  0.00  0.00    +0.000 A 
ATOM     15  C   UNL     1      -1.243  11.713  20.967  0.00  0.00    +0.000 A 
ATOM     16  O   UNL     1      -0.687  11.039  19.919  0.00  0.00    +0.000 OA
ENDBRANCH   4   8
BRANCH   7  17
ATOM     17  N   UNL     1       3.471   6.800  17.253  0.00  0.00    +0.000 N 
ATOM     18  C   UNL     1       4.858   6.834  17.137  0.00  0.00    +0.000 C 
ATOM     19  O   UNL     1       5.590   7.689  17.625  0.00  0.00    +0.000 OA
ATOM     20  H   UNL     1       3.006   6.062  16.737  0.00  0.00    +0.000 HD
BRANCH  18  21
ATOM     21  C   UNL     1       5.435   5.742  16.370  0.00  0.00    +0.000 A 
ATOM     22  C   UNL     1       5.348   4.373  16.583  0.00  0.00    +0.000 A 
ATOM     23  C   UNL     1       6.028   3.736  15.518  0.00  0.00    +0.000 A 
ATOM     24  C   UNL     1       6.492   4.762  14.725  0.00  0.00    +0.000 A 
ATOM     25  O   UNL     1       6.157   5.985  15.228  0.00  0.00    +0.000 OA
BRANCH  24  26
ATOM     26  N   UNL     1       7.219   4.751  13.498  0.00  0.00    +0.000 N 
ATOM     27  O   UNL     1       6.838   3.947  12.639  0.00  0.00    +0.000 OA
ATOM     28  O   UNL     1       8.167   5.541  13.388  0.00  0.00    +0.000 OA
ENDBRANCH  24  26
ENDBRANCH  18  21
ENDBRANCH   7  17
TORSDOF 4
ENDMDL
MODEL 5
REMARK VINA RESULT:      -8.4      2.243     10.224
REMARK  Name = 
REMARK  5 active torsions:
REMARK  status: ('A' for Active; 'I' for Inactive)
REMARK    1  A    between atoms: C_1  and  C_2
REMARK    2  A    between atoms: C_4  and  C_5
REMARK    3  A    between atoms: C_16  and  N_17
REMARK    4  A    between atoms: C_18  and  C_20
REMARK    5  A    between atoms: C_23  and  N_24
REMARK                            x       y       z     vdW  Elec       q    Type
REMARK                         _______ _______ _______ _____ _____    ______ ____
ROOT
ATOM      1  C   UNL     1       1.754   9.378  17.624  0.00  0.00    +0.000 C 
ATOM      2  C   UNL     1       1.392   9.107  19.061  0.00  0.00    +0.000 A 
ATOM      3  C   UNL     1       0.487  10.005  19.670  0.00  0.00    +0.000 A 
ATOM      4  C   UNL     1       0.086   9.875  21.007  0.00  0.00    +0.000 A 
ATOM      5  C   UNL     1       0.615   8.821  21.746  0.00  0.00    +0.000 A 
ATOM      6  C   UNL     1       1.510   7.919  21.156  0.00  0.00    +0.000 A 
ATOM      7  C   UNL     1       1.910   8.034  19.816  0.00  0.00    +0.000 A 
ENDROOT
BRANCH   4   8
ATOM      8  C   UNL     1      -0.861  10.833  21.565  0.00  0.00    +0.000 A 
ATOM      9  N   UNL     1      -1.265  10.941  22.818  0.00  0.00    +0.000 NA
ATOM     10  C   UNL     1      -2.160  11.965  22.778  0.00  0.00    +0.000 A 
ATOM     11  N   UNL     1      -2.862  12.453  23.825  0.00  0.00    +0.000 NA
ATOM     12  C   UNL     1      -3.700  13.463  23.492  0.00  0.00    +0.000 A 
ATOM     13  C   UNL     1      -3.868  13.997  22.212  0.00  0.00    +0.000 A 
ATOM     14  C   UNL     1      -3.130  13.486  21.143  0.00  0.00    +0.000 A 
ATOM     15  C   UNL     1      -2.276  12.451  21.487  0.00  0.00    +0.000 A 
ATOM     16  O   UNL     1      -1.432  11.733  20.692  0.00  0.00    +0.000 OA
ENDBRANCH   4   8
BRANCH   7  17
ATOM     17  N   UNL     1       2.787   7.091  19.213  0.00  0.00    +0.000 N 
ATOM     18  C   UNL     1       2.640   5.706  19.196  0.00  0.00    +0.000 C 
ATOM     19  O   UNL     1       1.773   5.077  19.794  0.00  0.00    +0.000 OA
ATOM     20  H   UNL     1       3.593   7.453  18.718  0.00  0.00    +0.000 HD
BRANCH  18  21
ATOM     21  C   UNL     1       3.616   4.998  18.385  0.00  0.00    +0.000 A 
ATOM     22  C   UNL     1       3.414   4.058  17.382  0.00  0.00    +0.000 A 
ATOM     23  C   UNL     1       4.686   3.722  16.858  0.00  0.00    +0.000 A 
ATOM     24  C   UNL     1       5.582   4.477  17.580  0.00  0.00    +0.000 A 
ATOM     25  O   UNL     1       4.960   5.246  18.519  0.00  0.00    +0.000 OA
BRANCH  24  26
ATOM     26  N   UNL     1       7.001   4.595  17.492  0.00  0.00    +0.000 N 
ATOM     27  O   UNL     1       7.623   4.569  18.560  0.00  0.00    +0.000 OA
ATOM     28  O   UNL     1       7.497   4.713  16.362  0.00  0.00    +0.000 OA
ENDBRANCH  24  26
ENDBRANCH  18  21
ENDBRANCH   7  17
TORSDOF 4
ENDMDL
MODEL 6
REMARK VINA RESULT:      -8.4      2.223     10.200
REMARK  Name = 
REMARK  5 active torsions:
REMARK  status: ('A' for Active; 'I' for Inactive)
REMARK    1  A    between atoms: C_1  and  C_2
REMARK    2  A    between atoms: C_4  and  C_5
REMARK    3  A    between atoms: C_16  and  N_17
REMARK    4  A    between atoms: C_18  and  C_20
REMARK    5  A    between atoms: C_23  and  N_24
REMARK                            x       y       z     vdW  Elec       q    Type
REMARK                         _______ _______ _______ _____ _____    ______ ____
ROOT
ATOM      1  C   UNL     1       1.077   9.487  18.125  0.00  0.00    +0.000 C 
ATOM      2  C   UNL     1       0.832   9.464  19.611  0.00  0.00    +0.000 A 
ATOM      3  C   UNL     1      -0.100  10.397  20.117  0.00  0.00    +0.000 A 
ATOM      4  C   UNL     1      -0.402  10.491  21.483  0.00  0.00    +0.000 A 
ATOM      5  C   UNL     1       0.257   9.630  22.356  0.00  0.00    +0.000 A 
ATOM      6  C   UNL     1       1.182   8.697  21.870  0.00  0.00    +0.000 A 
ATOM      7  C   UNL     1       1.483   8.588  20.504  0.00  0.00    +0.000 A 
ENDROOT
BRANCH   4   8
ATOM      8  C   UNL     1      -1.385  11.470  21.931  0.00  0.00    +0.000 A 
ATOM      9  N   UNL     1      -1.706  12.618  21.361  0.00  0.00    +0.000 NA
ATOM     10  C   UNL     1      -2.641  13.141  22.201  0.00  0.00    +0.000 A 
ATOM     11  N   UNL     1      -3.275  14.325  22.052  0.00  0.00    +0.000 NA
ATOM     12  C   UNL     1      -4.143  14.605  23.053  0.00  0.00    +0.000 A 
ATOM     13  C   UNL     1      -4.406  13.792  24.158  0.00  0.00    +0.000 A 
ATOM     14  C   UNL     1      -3.747  12.568  24.293  0.00  0.00    +0.000 A 
ATOM     15  C   UNL     1      -2.859  12.287  23.268  0.00  0.00    +0.000 A 
ATOM     16  O   UNL     1      -2.057  11.196  23.101  0.00  0.00    +0.000 OA
ENDBRANCH   4   8
BRANCH   7  17
ATOM     17  N   UNL     1       2.392   7.609  20.014  0.00  0.00    +0.000 N 
ATOM     18  C   UNL     1       2.225   6.227  20.039  0.00  0.00    +0.000 C 
ATOM     19  O   UNL     1       1.301   5.634  20.585  0.00  0.00    +0.000 OA
ATOM     20  H   UNL     1       3.242   7.941  19.576  0.00  0.00    +0.000 HD
BRANCH  18  21
ATOM     21  C   UNL     1       3.254   5.475  19.341  0.00  0.00    +0.000 A 
ATOM     22  C   UNL     1       3.130   4.584  18.282  0.00  0.00    +0.000 A 
ATOM     23  C   UNL     1       4.436   4.172  17.923  0.00  0.00    +0.000 A 
ATOM     24  C   UNL     1       5.273   4.836  18.792  0.00  0.00    +0.000 A 
ATOM     25  O   UNL     1       4.579   5.620  19.668  0.00  0.00    +0.000 OA
BRANCH  24  26
ATOM     26  N   UNL     1       6.694   4.853  18.905  0.00  0.00    +0.000 N 
ATOM     27  O   UNL     1       7.327   4.332  17.979  0.00  0.00    +0.000 OA
ATOM     28  O   UNL     1       7.182   5.384  19.913  0.00  0.00    +0.000 OA
ENDBRANCH  24  26
ENDBRANCH  18  21
ENDBRANCH   7  17
TORSDOF 4
ENDMDL
MODEL 7
REMARK VINA RESULT:      -8.3      2.122     10.238
REMARK  Name = 
REMARK  5 active torsions:
REMARK  status: ('A' for Active; 'I' for Inactive)
REMARK    1  A    between atoms: C_1  and  C_2
REMARK    2  A    between atoms: C_4  and  C_5
REMARK    3  A    between atoms: C_16  and  N_17
REMARK    4  A    between atoms: C_18  and  C_20
REMARK    5  A    between atoms: C_23  and  N_24
REMARK                            x       y       z     vdW  Elec       q    Type
REMARK                         _______ _______ _______ _____ _____    ______ ____
ROOT
ATOM      1  C   UNL     1       0.879   9.691  18.187  0.00  0.00    +0.000 C 
ATOM      2  C   UNL     1       0.850   9.569  19.688  0.00  0.00    +0.000 A 
ATOM      3  C   UNL     1       0.123  10.554  20.393  0.00  0.00    +0.000 A 
ATOM      4  C   UNL     1       0.036  10.565  21.792  0.00  0.00    +0.000 A 
ATOM      5  C   UNL     1       0.702   9.565  22.494  0.00  0.00    +0.000 A 
ATOM      6  C   UNL     1       1.424   8.577  21.810  0.00  0.00    +0.000 A 
ATOM      7  C   UNL     1       1.509   8.552  20.410  0.00  0.00    +0.000 A 
ENDROOT
BRANCH   4   8
ATOM      8  C   UNL     1      -0.743  11.607  22.451  0.00  0.00    +0.000 A 
ATOM      9  N   UNL     1      -0.327  12.789  22.871  0.00  0.00    +0.000 NA
ATOM     10  C   UNL     1      -1.440  13.338  23.430  0.00  0.00    +0.000 A 
ATOM     11  N   UNL     1      -1.523  14.553  24.016  0.00  0.00    +0.000 NA
ATOM     12  C   UNL     1      -2.752  14.835  24.508  0.00  0.00    +0.000 A 
ATOM     13  C   UNL     1      -3.868  13.998  24.448  0.00  0.00    +0.000 A 
ATOM     14  C   UNL     1      -3.768  12.748  23.833  0.00  0.00    +0.000 A 
ATOM     15  C   UNL     1      -2.508  12.463  23.333  0.00  0.00    +0.000 A 
ATOM     16  O   UNL     1      -2.073  11.340  22.692  0.00  0.00    +0.000 OA
ENDBRANCH   4   8
BRANCH   7  17
ATOM     17  N   UNL     1       2.210   7.523  19.722  0.00  0.00    +0.000 N 
ATOM     18  C   UNL     1       2.073   6.150  19.909  0.00  0.00    +0.000 C 
ATOM     19  O   UNL     1       1.392   5.617  20.778  0.00  0.00    +0.000 OA
ATOM     20  H   UNL     1       2.860   7.805  18.999  0.00  0.00    +0.000 HD
BRANCH  18  21
ATOM     21  C   UNL     1       2.815   5.328  18.968  0.00  0.00    +0.000 A 
ATOM     22  C   UNL     1       2.344   4.513  17.947  0.00  0.00    +0.000 A 
ATOM     23  C   UNL     1       3.472   3.981  17.277  0.00  0.00    +0.000 A 
ATOM     24  C   UNL     1       4.560   4.504  17.939  0.00  0.00    +0.000 A 
ATOM     25  O   UNL     1       4.187   5.310  18.974  0.00  0.00    +0.000 OA
BRANCH  24  26
ATOM     26  N   UNL     1       5.961   4.359  17.711  0.00  0.00    +0.000 N 
ATOM     27  O   UNL     1       6.310   4.150  16.544  0.00  0.00    +0.000 OA
ATOM     28  O   UNL     1       6.713   4.455  18.692  0.00  0.00    +0.000 OA
ENDBRANCH  24  26
ENDBRANCH  18  21
ENDBRANCH   7  17
TORSDOF 4
ENDMDL
MODEL 8
REMARK VINA RESULT:      -8.2      2.239     10.193
REMARK  Name = 
REMARK  5 active torsions:
REMARK  status: ('A' for Active; 'I' for Inactive)
REMARK    1  A    between atoms: C_1  and  C_2
REMARK    2  A    between atoms: C_4  and  C_5
REMARK    3  A    between atoms: C_16  and  N_17
REMARK    4  A    between atoms: C_18  and  C_20
REMARK    5  A    between atoms: C_23  and  N_24
REMARK                            x       y       z     vdW  Elec       q    Type
REMARK                         _______ _______ _______ _____ _____    ______ ____
ROOT
ATOM      1  C   UNL     1       0.923   9.723  18.354  0.00  0.00    +0.000 C 
ATOM      2  C   UNL     1       0.840   9.569  19.850  0.00  0.00    +0.000 A 
ATOM      3  C   UNL     1       0.067  10.524  20.547  0.00  0.00    +0.000 A 
ATOM      4  C   UNL     1      -0.073  10.503  21.942  0.00  0.00    +0.000 A 
ATOM      5  C   UNL     1       0.587   9.502  22.648  0.00  0.00    +0.000 A 
ATOM      6  C   UNL     1       1.355   8.544  21.973  0.00  0.00    +0.000 A 
ATOM      7  C   UNL     1       1.493   8.550  20.576  0.00  0.00    +0.000 A 
ENDROOT
BRANCH   4   8
ATOM      8  C   UNL     1      -0.898  11.516  22.592  0.00  0.00    +0.000 A 
ATOM      9  N   UNL     1      -2.156  11.410  22.982  0.00  0.00    +0.000 NA
ATOM     10  C   UNL     1      -2.436  12.641  23.490  0.00  0.00    +0.000 A 
ATOM     11  N   UNL     1      -3.617  13.040  24.013  0.00  0.00    +0.000 NA
ATOM     12  C   UNL     1      -3.620  14.329  24.426  0.00  0.00    +0.000 A 
ATOM     13  C   UNL     1      -2.542  15.214  24.349  0.00  0.00    +0.000 A 
ATOM     14  C   UNL     1      -1.326  14.785  23.813  0.00  0.00    +0.000 A 
ATOM     15  C   UNL     1      -1.328  13.466  23.390  0.00  0.00    +0.000 A 
ATOM     16  O   UNL     1      -0.321  12.746  22.817  0.00  0.00    +0.000 OA
ENDBRANCH   4   8
BRANCH   7  17
ATOM     17  N   UNL     1       2.240   7.550  19.894  0.00  0.00    +0.000 N 
ATOM     18  C   UNL     1       2.078   6.171  19.996  0.00  0.00    +0.000 C 
ATOM     19  O   UNL     1       1.322   5.601  20.777  0.00  0.00    +0.000 OA
ATOM     20  H   UNL     1       2.951   7.862  19.243  0.00  0.00    +0.000 HD
BRANCH  18  21
ATOM     21  C   UNL     1       2.888   5.391  19.077  0.00  0.00    +0.000 A 
ATOM     22  C   UNL     1       2.493   4.604  18.002  0.00  0.00    +0.000 A 
ATOM     23  C   UNL     1       3.669   4.109  17.388  0.00  0.00    +0.000 A 
ATOM     24  C   UNL     1       4.706   4.623  18.133  0.00  0.00    +0.000 A 
ATOM     25  O   UNL     1       4.258   5.391  19.168  0.00  0.00    +0.000 OA
BRANCH  24  26
ATOM     26  N   UNL     1       6.120   4.505  17.988  0.00  0.00    +0.000 N 
ATOM     27  O   UNL     1       6.790   4.599  19.023  0.00  0.00    +0.000 OA
ATOM     28  O   UNL     1       6.565   4.318  16.846  0.00  0.00    +0.000 OA
ENDBRANCH  24  26
ENDBRANCH  18  21
ENDBRANCH   7  17
TORSDOF 4
ENDMDL
MODEL 9
REMARK VINA RESULT:      -8.1      2.525     10.812
REMARK  Name = 
REMARK  5 active torsions:
REMARK  status: ('A' for Active; 'I' for Inactive)
REMARK    1  A    between atoms: C_1  and  C_2
REMARK    2  A    between atoms: C_4  and  C_5
REMARK    3  A    between atoms: C_16  and  N_17
REMARK    4  A    between atoms: C_18  and  C_20
REMARK    5  A    between atoms: C_23  and  N_24
REMARK                            x       y       z     vdW  Elec       q    Type
REMARK                         _______ _______ _______ _____ _____    ______ ____
ROOT
ATOM      1  C   UNL     1       2.609   5.981  19.891  0.00  0.00    +0.000 C 
ATOM      2  C   UNL     1       2.340   7.330  19.278  0.00  0.00    +0.000 A 
ATOM      3  C   UNL     1       1.631   8.261  20.070  0.00  0.00    +0.000 A 
ATOM      4  C   UNL     1       1.300   9.542  19.607  0.00  0.00    +0.000 A 
ATOM      5  C   UNL     1       1.687   9.888  18.316  0.00  0.00    +0.000 A 
ATOM      6  C   UNL     1       2.394   8.979  17.518  0.00  0.00    +0.000 A 
ATOM      7  C   UNL     1       2.739   7.697  17.975  0.00  0.00    +0.000 A 
ENDROOT
BRANCH   4   8
ATOM      8  C   UNL     1       0.577  10.454  20.486  0.00  0.00    +0.000 A 
ATOM      9  N   UNL     1       0.638  11.773  20.515  0.00  0.00    +0.000 NA
ATOM     10  C   UNL     1      -0.202  12.109  21.531  0.00  0.00    +0.000 A 
ATOM     11  N   UNL     1      -0.475  13.361  21.961  0.00  0.00    +0.000 NA
ATOM     12  C   UNL     1      -1.333  13.401  23.008  0.00  0.00    +0.000 A 
ATOM     13  C   UNL     1      -1.918  12.293  23.626  0.00  0.00    +0.000 A 
ATOM     14  C   UNL     1      -1.631  11.007  23.165  0.00  0.00    +0.000 A 
ATOM     15  C   UNL     1      -0.751  10.971  22.097  0.00  0.00    +0.000 A 
ATOM     16  O   UNL     1      -0.261   9.891  21.423  0.00  0.00    +0.000 OA
ENDBRANCH   4   8
BRANCH   7  17
ATOM     17  N   UNL     1       3.492   6.795  17.175  0.00  0.00    +0.000 N 
ATOM     18  C   UNL     1       4.879   6.723  17.078  0.00  0.00    +0.000 C 
ATOM     19  O   UNL     1       5.669   7.503  17.600  0.00  0.00    +0.000 OA
ATOM     20  H   UNL     1       2.978   6.112  16.633  0.00  0.00    +0.000 HD
BRANCH  18  21
ATOM     21  C   UNL     1       5.380   5.609  16.289  0.00  0.00    +0.000 A 
ATOM     22  C   UNL     1       5.271   4.245  16.521  0.00  0.00    +0.000 A 
ATOM     23  C   UNL     1       5.868   3.581  15.422  0.00  0.00    +0.000 A 
ATOM     24  C   UNL     1       6.307   4.588  14.591  0.00  0.00    +0.000 A 
ATOM     25  O   UNL     1       6.035   5.824  15.102  0.00  0.00    +0.000 OA
BRANCH  24  26
ATOM     26  N   UNL     1       6.956   4.547  13.322  0.00  0.00    +0.000 N 
ATOM     27  O   UNL     1       6.570   3.678  12.533  0.00  0.00    +0.000 OA
ATOM     28  O   UNL     1       7.849   5.380  13.110  0.00  0.00    +0.000 OA
ENDBRANCH  24  26
ENDBRANCH  18  21
ENDBRANCH   7  17
TORSDOF 4
ENDMDL
