MODEL 1
REMARK VINA RESULT:      -8.9      0.000      0.000
REMARK  Name = 
REMARK  4 active torsions:
REMARK  status: ('A' for Active; 'I' for Inactive)
REMARK    1  A    between atoms: C_5  and  C_6
REMARK    2  A    between atoms: C_14  and  C_15
REMARK    3  A    between atoms: N_16  and  N_17
REMARK    4  A    between atoms: N_17  and  C_18
REMARK                            x       y       z     vdW  Elec       q    Type
REMARK                         _______ _______ _______ _____ _____    ______ ____
ROOT
ATOM      1  C   UNL     1       4.485   4.240  17.903  0.00  0.00    +0.000 A 
ATOM      2  N   UNL     1       4.663   3.151  18.735  0.00  0.00    +0.000 N 
ATOM      3  C   UNL     1       3.743   3.134  19.751  0.00  0.00    +0.000 A 
ATOM      4  C   UNL     1       3.549   2.200  20.775  0.00  0.00    +0.000 A 
ATOM      5  C   UNL     1       2.510   2.440  21.680  0.00  0.00    +0.000 A 
ATOM      6  C   UNL     1       1.709   3.572  21.566  0.00  0.00    +0.000 A 
ATOM      7  C   UNL     1       1.929   4.499  20.540  0.00  0.00    +0.000 A 
ATOM      8  C   UNL     1       2.966   4.278  19.609  0.00  0.00    +0.000 A 
ATOM      9  C   UNL     1       3.434   4.980  18.446  0.00  0.00    +0.000 A 
ATOM     10  H   UNL     1       5.388   2.451  18.620  0.00  0.00    +0.000 HD
ENDROOT
BRANCH   1  15
ATOM     11  F   UNL     1       7.791   5.180  13.469  0.00  0.00    +0.000 F 
ATOM     12  C   UNL     1       7.008   4.941  14.528  0.00  0.00    +0.000 A 
ATOM     13  C   UNL     1       7.443   5.302  15.796  0.00  0.00    +0.000 A 
ATOM     14  C   UNL     1       6.623   5.055  16.902  0.00  0.00    +0.000 A 
ATOM     15  C   UNL     1       5.357   4.468  16.741  0.00  0.00    +0.000 A 
ATOM     16  C   UNL     1       4.941   4.123  15.445  0.00  0.00    +0.000 A 
ATOM     17  C   UNL     1       5.769   4.346  14.343  0.00  0.00    +0.000 A 
ENDBRANCH   1  15
BRANCH   9  18
ATOM     18  C   UNL     1       2.911   6.212  17.889  0.00  0.00    +0.000 C 
ATOM     19  N   UNL     1       2.909   7.288  18.606  0.00  0.00    +0.000 NA
BRANCH  19  20
ATOM     20  N   UNL     1       2.397   8.396  17.991  0.00  0.00    +0.000 N 
ATOM     21  H   UNL     1       2.091   8.292  17.024  0.00  0.00    +0.000 HD
BRANCH  20  22
ATOM     22  C   UNL     1       1.506   9.165  18.775  0.00  0.00    +0.000 A 
ATOM     23  C   UNL     1       0.971  10.356  18.268  0.00  0.00    +0.000 A 
ATOM     24  C   UNL     1       0.082  11.119  19.033  0.00  0.00    +0.000 A 
ATOM     25  C   UNL     1      -0.255  10.717  20.328  0.00  0.00    +0.000 A 
ATOM     26 CL   UNL     1      -1.371  11.699  21.210  0.00  0.00    +0.000 Cl
ATOM     27  C   UNL     1       0.309   9.557  20.863  0.00  0.00    +0.000 A 
ATOM     28 CL   UNL     1      -0.029   9.015  22.468  0.00  0.00    +0.000 Cl
ATOM     29  C   UNL     1       1.185   8.791  20.088  0.00  0.00    +0.000 A 
ENDBRANCH  20  22
ENDBRANCH  19  20
ENDBRANCH   9  18
TORSDOF 4
ENDMDL
MODEL 2
REMARK VINA RESULT:      -8.8      0.640      1.404
REMARK  Name = 
REMARK  4 active torsions:
REMARK  status: ('A' for Active; 'I' for Inactive)
REMARK    1  A    between atoms: C_5  and  C_6
REMARK    2  A    between atoms: C_14  and  C_15
REMARK    3  A    between atoms: N_16  and  N_17
REMARK    4  A    between atoms: N_17  and  C_18
REMARK                            x       y       z     vdW  Elec       q    Type
REMARK                         _______ _______ _______ _____ _____    ______ ____
ROOT
ATOM      1  C   UNL     1       4.410   4.220  17.933  0.00  0.00    +0.000 A 
ATOM      2  N   UNL     1       4.608   3.150  18.784  0.00  0.00    +0.000 N 
ATOM      3  C   UNL     1       3.670   3.119  19.784  0.00  0.00    +0.000 A 
ATOM      4  C   UNL     1       3.487   2.194  20.819  0.00  0.00    +0.000 A 
ATOM      5  C   UNL     1       2.424   2.414  21.701  0.00  0.00    +0.000 A 
ATOM      6  C   UNL     1       1.590   3.518  21.555  0.00  0.00    +0.000 A 
ATOM      7  C   UNL     1       1.799   4.437  20.520  0.00  0.00    +0.000 A 
ATOM      8  C   UNL     1       2.860   4.235  19.611  0.00  0.00    +0.000 A 
ATOM      9  C   UNL     1       3.327   4.933  18.446  0.00  0.00    +0.000 A 
ATOM     10  H   UNL     1       5.356   2.471  18.693  0.00  0.00    +0.000 HD
ENDROOT
BRANCH   1  15
ATOM     11  F   UNL     1       7.769   5.199  13.548  0.00  0.00    +0.000 F 
ATOM     12  C   UNL     1       6.973   4.951  14.594  0.00  0.00    +0.000 A 
ATOM     13  C   UNL     1       7.406   5.270  15.875  0.00  0.00    +0.000 A 
ATOM     14  C   UNL     1       6.573   5.014  16.968  0.00  0.00    +0.000 A 
ATOM     15  C   UNL     1       5.296   4.458  16.784  0.00  0.00    +0.000 A 
ATOM     16  C   UNL     1       4.882   4.155  15.476  0.00  0.00    +0.000 A 
ATOM     17  C   UNL     1       5.724   4.388  14.386  0.00  0.00    +0.000 A 
ENDBRANCH   1  15
BRANCH   9  18
ATOM     18  C   UNL     1       2.775   6.140  17.860  0.00  0.00    +0.000 C 
ATOM     19  N   UNL     1       2.801   7.246  18.530  0.00  0.00    +0.000 NA
BRANCH  19  20
ATOM     20  N   UNL     1       2.258   8.325  17.891  0.00  0.00    +0.000 N 
ATOM     21  H   UNL     1       1.921   8.182  16.940  0.00  0.00    +0.000 HD
BRANCH  20  22
ATOM     22  C   UNL     1       1.387   9.116  18.675  0.00  0.00    +0.000 A 
ATOM     23  C   UNL     1       1.321   8.928  20.062  0.00  0.00    +0.000 A 
ATOM     24  C   UNL     1       0.469   9.712  20.846  0.00  0.00    +0.000 A 
ATOM     25  C   UNL     1      -0.355  10.670  20.250  0.00  0.00    +0.000 A 
ATOM     26 CL   UNL     1      -1.371  11.612  21.281  0.00  0.00    +0.000 Cl
ATOM     27  C   UNL     1      -0.334  10.834  18.863  0.00  0.00    +0.000 A 
ATOM     28 CL   UNL     1      -1.349  11.971  18.047  0.00  0.00    +0.000 Cl
ATOM     29  C   UNL     1       0.531  10.058  18.085  0.00  0.00    +0.000 A 
ENDBRANCH  20  22
ENDBRANCH  19  20
ENDBRANCH   9  18
TORSDOF 4
ENDMDL
MODEL 3
REMARK VINA RESULT:      -8.5      1.320      1.667
REMARK  Name = 
REMARK  4 active torsions:
REMARK  status: ('A' for Active; 'I' for Inactive)
REMARK    1  A    between atoms: C_5  and  C_6
REMARK    2  A    between atoms: C_14  and  C_15
REMARK    3  A    between atoms: N_16  and  N_17
REMARK    4  A    between atoms: N_17  and  C_18
REMARK                            x       y       z     vdW  Elec       q    Type
REMARK                         _______ _______ _______ _____ _____    ______ ____
ROOT
ATOM      1  C   UNL     1       4.211   4.369  17.446  0.00  0.00    +0.000 A 
ATOM      2  N   UNL     1       3.918   3.117  17.950  0.00  0.00    +0.000 N 
ATOM      3  C   UNL     1       2.973   3.178  18.941  0.00  0.00    +0.000 A 
ATOM      4  C   UNL     1       2.373   2.150  19.677  0.00  0.00    +0.000 A 
ATOM      5  C   UNL     1       1.418   2.513  20.633  0.00  0.00    +0.000 A 
ATOM      6  C   UNL     1       1.088   3.848  20.844  0.00  0.00    +0.000 A 
ATOM      7  C   UNL     1       1.709   4.860  20.103  0.00  0.00    +0.000 A 
ATOM      8  C   UNL     1       2.672   4.521  19.127  0.00  0.00    +0.000 A 
ATOM      9  C   UNL     1       3.454   5.276  18.188  0.00  0.00    +0.000 A 
ATOM     10  H   UNL     1       4.350   2.254  17.636  0.00  0.00    +0.000 HD
ENDROOT
BRANCH   1  15
ATOM     11  F   UNL     1       7.963   5.138  13.347  0.00  0.00    +0.000 F 
ATOM     12  C   UNL     1       7.073   4.940  14.326  0.00  0.00    +0.000 A 
ATOM     13  C   UNL     1       7.400   5.289  15.630  0.00  0.00    +0.000 A 
ATOM     14  C   UNL     1       6.468   5.085  16.653  0.00  0.00    +0.000 A 
ATOM     15  C   UNL     1       5.199   4.552  16.373  0.00  0.00    +0.000 A 
ATOM     16  C   UNL     1       4.894   4.218  15.043  0.00  0.00    +0.000 A 
ATOM     17  C   UNL     1       5.833   4.398  14.025  0.00  0.00    +0.000 A 
ENDBRANCH   1  15
BRANCH   9  18
ATOM     18  C   UNL     1       3.455   6.714  17.994  0.00  0.00    +0.000 C 
ATOM     19  N   UNL     1       2.341   7.368  18.057  0.00  0.00    +0.000 NA
BRANCH  19  20
ATOM     20  N   UNL     1       2.448   8.717  17.863  0.00  0.00    +0.000 N 
ATOM     21  H   UNL     1       2.869   9.029  16.988  0.00  0.00    +0.000 HD
BRANCH  20  22
ATOM     22  C   UNL     1       1.311   9.472  18.232  0.00  0.00    +0.000 A 
ATOM     23  C   UNL     1       1.365  10.329  19.339  0.00  0.00    +0.000 A 
ATOM     24  C   UNL     1       0.248  11.087  19.706  0.00  0.00    +0.000 A 
ATOM     25  C   UNL     1      -0.948  10.970  18.993  0.00  0.00    +0.000 A 
ATOM     26 CL   UNL     1      -2.283  11.947  19.493  0.00  0.00    +0.000 Cl
ATOM     27  C   UNL     1      -1.029  10.083  17.917  0.00  0.00    +0.000 A 
ATOM     28 CL   UNL     1      -2.481   9.855  17.009  0.00  0.00    +0.000 Cl
ATOM     29  C   UNL     1       0.095   9.339  17.545  0.00  0.00    +0.000 A 
ENDBRANCH  20  22
ENDBRANCH  19  20
ENDBRANCH   9  18
TORSDOF 4
ENDMDL
MODEL 4
REMARK VINA RESULT:      -8.5      1.115      1.640
REMARK  Name = 
REMARK  4 active torsions:
REMARK  status: ('A' for Active; 'I' for Inactive)
REMARK    1  A    between atoms: C_5  and  C_6
REMARK    2  A    between atoms: C_14  and  C_15
REMARK    3  A    between atoms: N_16  and  N_17
REMARK    4  A    between atoms: N_17  and  C_18
REMARK                            x       y       z     vdW  Elec       q    Type
REMARK                         _______ _______ _______ _____ _____    ______ ____
ROOT
ATOM      1  C   UNL     1       4.441   4.232  17.964  0.00  0.00    +0.000 A 
ATOM      2  N   UNL     1       4.645   3.187  18.843  0.00  0.00    +0.000 N 
ATOM      3  C   UNL     1       3.676   3.144  19.812  0.00  0.00    +0.000 A 
ATOM      4  C   UNL     1       3.489   2.234  20.859  0.00  0.00    +0.000 A 
ATOM      5  C   UNL     1       2.391   2.436  21.702  0.00  0.00    +0.000 A 
ATOM      6  C   UNL     1       1.527   3.509  21.506  0.00  0.00    +0.000 A 
ATOM      7  C   UNL     1       1.740   4.414  20.459  0.00  0.00    +0.000 A 
ATOM      8  C   UNL     1       2.837   4.229  19.590  0.00  0.00    +0.000 A 
ATOM      9  C   UNL     1       3.319   4.920  18.426  0.00  0.00    +0.000 A 
ATOM     10  H   UNL     1       5.417   2.531  18.790  0.00  0.00    +0.000 HD
ENDROOT
BRANCH   1  15
ATOM     11  F   UNL     1       7.888   5.220  13.649  0.00  0.00    +0.000 F 
ATOM     12  C   UNL     1       7.076   4.974  14.683  0.00  0.00    +0.000 A 
ATOM     13  C   UNL     1       7.146   5.775  15.815  0.00  0.00    +0.000 A 
ATOM     14  C   UNL     1       6.295   5.520  16.895  0.00  0.00    +0.000 A 
ATOM     15  C   UNL     1       5.356   4.477  16.839  0.00  0.00    +0.000 A 
ATOM     16  C   UNL     1       5.302   3.689  15.677  0.00  0.00    +0.000 A 
ATOM     17  C   UNL     1       6.169   3.928  14.608  0.00  0.00    +0.000 A 
ENDBRANCH   1  15
BRANCH   9  18
ATOM     18  C   UNL     1       2.748   6.096  17.798  0.00  0.00    +0.000 C 
ATOM     19  N   UNL     1       2.673   7.203  18.462  0.00  0.00    +0.000 NA
BRANCH  19  20
ATOM     20  N   UNL     1       2.121   8.252  17.782  0.00  0.00    +0.000 N 
ATOM     21  H   UNL     1       1.453   8.030  17.044  0.00  0.00    +0.000 HD
BRANCH  20  22
ATOM     22  C   UNL     1       1.719   9.346  18.583  0.00  0.00    +0.000 A 
ATOM     23  C   UNL     1       1.061   9.124  19.799  0.00  0.00    +0.000 A 
ATOM     24  C   UNL     1       0.667  10.200  20.601  0.00  0.00    +0.000 A 
ATOM     25  C   UNL     1       0.896  11.513  20.181  0.00  0.00    +0.000 A 
ATOM     26 CL   UNL     1       0.398  12.792  21.230  0.00  0.00    +0.000 Cl
ATOM     27  C   UNL     1       1.509  11.748  18.948  0.00  0.00    +0.000 A 
ATOM     28 CL   UNL     1       1.793  13.341  18.342  0.00  0.00    +0.000 Cl
ATOM     29  C   UNL     1       1.913  10.669  18.157  0.00  0.00    +0.000 A 
ENDBRANCH  20  22
ENDBRANCH  19  20
ENDBRANCH   9  18
TORSDOF 4
ENDMDL
MODEL 5
REMARK VINA RESULT:      -8.4      2.485      5.212
REMARK  Name = 
REMARK  4 active torsions:
REMARK  status: ('A' for Active; 'I' for Inactive)
REMARK    1  A    between atoms: C_5  and  C_6
REMARK    2  A    between atoms: C_14  and  C_15
REMARK    3  A    between atoms: N_16  and  N_17
REMARK    4  A    between atoms: N_17  and  C_18
REMARK                            x       y       z     vdW  Elec       q    Type
REMARK                         _______ _______ _______ _____ _____    ______ ____
ROOT
ATOM      1  C   UNL     1       3.867   4.297  18.280  0.00  0.00    +0.000 A 
ATOM      2  N   UNL     1       4.986   3.605  17.858  0.00  0.00    +0.000 N 
ATOM      3  C   UNL     1       5.614   4.243  16.819  0.00  0.00    +0.000 A 
ATOM      4  C   UNL     1       6.786   3.907  16.132  0.00  0.00    +0.000 A 
ATOM      5  C   UNL     1       7.201   4.761  15.106  0.00  0.00    +0.000 A 
ATOM      6  C   UNL     1       6.467   5.898  14.781  0.00  0.00    +0.000 A 
ATOM      7  C   UNL     1       5.291   6.209  15.474  0.00  0.00    +0.000 A 
ATOM      8  C   UNL     1       4.853   5.366  16.519  0.00  0.00    +0.000 A 
ATOM      9  C   UNL     1       3.748   5.401  17.436  0.00  0.00    +0.000 A 
ATOM     10  H   UNL     1       5.305   2.728  18.255  0.00  0.00    +0.000 HD
ENDROOT
BRANCH   1  15
ATOM     11  F   UNL     1       0.690   2.475  22.530  0.00  0.00    +0.000 F 
ATOM     12  C   UNL     1       1.445   2.897  21.508  0.00  0.00    +0.000 A 
ATOM     13  C   UNL     1       0.887   3.721  20.539  0.00  0.00    +0.000 A 
ATOM     14  C   UNL     1       1.678   4.164  19.474  0.00  0.00    +0.000 A 
ATOM     15  C   UNL     1       3.032   3.803  19.385  0.00  0.00    +0.000 A 
ATOM     16  C   UNL     1       3.570   2.976  20.385  0.00  0.00    +0.000 A 
ATOM     17  C   UNL     1       2.775   2.513  21.436  0.00  0.00    +0.000 A 
ENDBRANCH   1  15
BRANCH   9  18
ATOM     18  C   UNL     1       2.704   6.404  17.523  0.00  0.00    +0.000 C 
ATOM     19  N   UNL     1       2.991   7.592  17.946  0.00  0.00    +0.000 NA
BRANCH  19  20
ATOM     20  N   UNL     1       1.939   8.464  17.989  0.00  0.00    +0.000 N 
ATOM     21  H   UNL     1       1.201   8.337  17.297  0.00  0.00    +0.000 HD
BRANCH  20  22
ATOM     22  C   UNL     1       1.445   8.750  19.282  0.00  0.00    +0.000 A 
ATOM     23  C   UNL     1       1.743   7.900  20.354  0.00  0.00    +0.000 A 
ATOM     24  C   UNL     1       1.265   8.180  21.639  0.00  0.00    +0.000 A 
ATOM     25  C   UNL     1       0.454   9.296  21.860  0.00  0.00    +0.000 A 
ATOM     26 CL   UNL     1      -0.088   9.589  23.475  0.00  0.00    +0.000 Cl
ATOM     27  C   UNL     1       0.110  10.126  20.790  0.00  0.00    +0.000 A 
ATOM     28 CL   UNL     1      -0.918  11.502  20.977  0.00  0.00    +0.000 Cl
ATOM     29  C   UNL     1       0.602   9.849  19.512  0.00  0.00    +0.000 A 
ENDBRANCH  20  22
ENDBRANCH  19  20
ENDBRANCH   9  18
TORSDOF 4
ENDMDL
MODEL 6
REMARK VINA RESULT:      -8.3      2.234      2.738
REMARK  Name = 
REMARK  4 active torsions:
REMARK  status: ('A' for Active; 'I' for Inactive)
REMARK    1  A    between atoms: C_5  and  C_6
REMARK    2  A    between atoms: C_14  and  C_15
REMARK    3  A    between atoms: N_16  and  N_17
REMARK    4  A    between atoms: N_17  and  C_18
REMARK                            x       y       z     vdW  Elec       q    Type
REMARK                         _______ _______ _______ _____ _____    ______ ____
ROOT
ATOM      1  C   UNL     1       4.603   5.061  18.302  0.00  0.00    +0.000 A 
ATOM      2  N   UNL     1       4.742   3.703  18.514  0.00  0.00    +0.000 N 
ATOM      3  C   UNL     1       3.525   3.075  18.584  0.00  0.00    +0.000 A 
ATOM      4  C   UNL     1       3.220   1.718  18.747  0.00  0.00    +0.000 A 
ATOM      5  C   UNL     1       1.869   1.359  18.774  0.00  0.00    +0.000 A 
ATOM      6  C   UNL     1       0.870   2.320  18.650  0.00  0.00    +0.000 A 
ATOM      7  C   UNL     1       1.199   3.673  18.499  0.00  0.00    +0.000 A 
ATOM      8  C   UNL     1       2.555   4.062  18.463  0.00  0.00    +0.000 A 
ATOM      9  C   UNL     1       3.232   5.317  18.288  0.00  0.00    +0.000 A 
ATOM     10  H   UNL     1       5.630   3.224  18.616  0.00  0.00    +0.000 HD
ENDROOT
BRANCH   1  15
ATOM     11  F   UNL     1       9.050   8.463  17.945  0.00  0.00    +0.000 F 
ATOM     12  C   UNL     1       7.995   7.643  18.018  0.00  0.00    +0.000 A 
ATOM     13  C   UNL     1       8.015   6.579  18.909  0.00  0.00    +0.000 A 
ATOM     14  C   UNL     1       6.911   5.724  18.988  0.00  0.00    +0.000 A 
ATOM     15  C   UNL     1       5.775   5.943  18.192  0.00  0.00    +0.000 A 
ATOM     16  C   UNL     1       5.779   7.034  17.308  0.00  0.00    +0.000 A 
ATOM     17  C   UNL     1       6.892   7.873  17.210  0.00  0.00    +0.000 A 
ENDBRANCH   1  15
BRANCH   9  18
ATOM     18  C   UNL     1       2.633   6.624  18.093  0.00  0.00    +0.000 C 
ATOM     19  N   UNL     1       2.402   7.381  19.116  0.00  0.00    +0.000 NA
BRANCH  19  20
ATOM     20  N   UNL     1       1.837   8.591  18.827  0.00  0.00    +0.000 N 
ATOM     21  H   UNL     1       1.408   8.698  17.909  0.00  0.00    +0.000 HD
BRANCH  20  22
ATOM     22  C   UNL     1       1.070   9.163  19.868  0.00  0.00    +0.000 A 
ATOM     23  C   UNL     1       1.078   8.589  21.146  0.00  0.00    +0.000 A 
ATOM     24  C   UNL     1       0.329   9.153  22.184  0.00  0.00    +0.000 A 
ATOM     25  C   UNL     1      -0.465  10.279  21.948  0.00  0.00    +0.000 A 
ATOM     26 CL   UNL     1      -1.352  10.931  23.280  0.00  0.00    +0.000 Cl
ATOM     27  C   UNL     1      -0.519  10.833  20.667  0.00  0.00    +0.000 A 
ATOM     28 CL   UNL     1      -1.504  12.200  20.287  0.00  0.00    +0.000 Cl
ATOM     29  C   UNL     1       0.243  10.273  19.637  0.00  0.00    +0.000 A 
ENDBRANCH  20  22
ENDBRANCH  19  20
ENDBRANCH   9  18
TORSDOF 4
ENDMDL
MODEL 7
REMARK VINA RESULT:      -8.2      1.135      1.543
REMARK  Name = 
REMARK  4 active torsions:
REMARK  status: ('A' for Active; 'I' for Inactive)
REMARK    1  A    between atoms: C_5  and  C_6
REMARK    2  A    between atoms: C_14  and  C_15
REMARK    3  A    between atoms: N_16  and  N_17
REMARK    4  A    between atoms: N_17  and  C_18
REMARK                            x       y       z     vdW  Elec       q    Type
REMARK                         _______ _______ _______ _____ _____    ______ ____
ROOT
ATOM      1  C   UNL     1       4.190   4.452  17.449  0.00  0.00    +0.000 A 
ATOM      2  N   UNL     1       3.923   3.201  17.972  0.00  0.00    +0.000 N 
ATOM      3  C   UNL     1       2.978   3.257  18.964  0.00  0.00    +0.000 A 
ATOM      4  C   UNL     1       2.401   2.229  19.717  0.00  0.00    +0.000 A 
ATOM      5  C   UNL     1       1.441   2.587  20.670  0.00  0.00    +0.000 A 
ATOM      6  C   UNL     1       1.085   3.918  20.861  0.00  0.00    +0.000 A 
ATOM      7  C   UNL     1       1.684   4.932  20.104  0.00  0.00    +0.000 A 
ATOM      8  C   UNL     1       2.651   4.597  19.131  0.00  0.00    +0.000 A 
ATOM      9  C   UNL     1       3.416   5.354  18.179  0.00  0.00    +0.000 A 
ATOM     10  H   UNL     1       4.372   2.343  17.670  0.00  0.00    +0.000 HD
ENDROOT
BRANCH   1  15
ATOM     11  F   UNL     1       7.957   5.091  13.342  0.00  0.00    +0.000 F 
ATOM     12  C   UNL     1       7.054   4.953  14.319  0.00  0.00    +0.000 A 
ATOM     13  C   UNL     1       5.822   4.378  14.036  0.00  0.00    +0.000 A 
ATOM     14  C   UNL     1       4.879   4.231  15.059  0.00  0.00    +0.000 A 
ATOM     15  C   UNL     1       5.172   4.638  16.371  0.00  0.00    +0.000 A 
ATOM     16  C   UNL     1       6.430   5.207  16.628  0.00  0.00    +0.000 A 
ATOM     17  C   UNL     1       7.363   5.377  15.602  0.00  0.00    +0.000 A 
ENDBRANCH   1  15
BRANCH   9  18
ATOM     18  C   UNL     1       3.388   6.788  17.964  0.00  0.00    +0.000 C 
ATOM     19  N   UNL     1       2.288   7.442  18.155  0.00  0.00    +0.000 NA
BRANCH  19  20
ATOM     20  N   UNL     1       2.365   8.787  17.928  0.00  0.00    +0.000 N 
ATOM     21  H   UNL     1       2.740   9.087  17.028  0.00  0.00    +0.000 HD
BRANCH  20  22
ATOM     22  C   UNL     1       1.236   9.534  18.334  0.00  0.00    +0.000 A 
ATOM     23  C   UNL     1       0.053   9.485  17.586  0.00  0.00    +0.000 A 
ATOM     24  C   UNL     1      -1.073  10.213  17.986  0.00  0.00    +0.000 A 
ATOM     25  C   UNL     1      -1.018  11.028  19.120  0.00  0.00    +0.000 A 
ATOM     26 CL   UNL     1      -2.450  11.887  19.564  0.00  0.00    +0.000 Cl
ATOM     27  C   UNL     1       0.171  11.123  19.848  0.00  0.00    +0.000 A 
ATOM     28 CL   UNL     1       0.330  12.136  21.238  0.00  0.00    +0.000 Cl
ATOM     29  C   UNL     1       1.288  10.381  19.452  0.00  0.00    +0.000 A 
ENDBRANCH  20  22
ENDBRANCH  19  20
ENDBRANCH   9  18
TORSDOF 4
ENDMDL
MODEL 8
REMARK VINA RESULT:      -7.9      4.970      9.907
REMARK  Name = 
REMARK  4 active torsions:
REMARK  status: ('A' for Active; 'I' for Inactive)
REMARK    1  A    between atoms: C_5  and  C_6
REMARK    2  A    between atoms: C_14  and  C_15
REMARK    3  A    between atoms: N_16  and  N_17
REMARK    4  A    between atoms: N_17  and  C_18
REMARK                            x       y       z     vdW  Elec       q    Type
REMARK                         _______ _______ _______ _____ _____    ______ ____
ROOT
ATOM      1  C   UNL     1      -1.975  12.046  19.933  0.00  0.00    +0.000 A 
ATOM      2  N   UNL     1      -3.102  12.294  19.174  0.00  0.00    +0.000 N 
ATOM      3  C   UNL     1      -3.120  11.536  18.032  0.00  0.00    +0.000 A 
ATOM      4  C   UNL     1      -4.086  11.454  17.021  0.00  0.00    +0.000 A 
ATOM      5  C   UNL     1      -3.838  10.574  15.962  0.00  0.00    +0.000 A 
ATOM      6  C   UNL     1      -2.670   9.819  15.917  0.00  0.00    +0.000 A 
ATOM      7  C   UNL     1      -1.713   9.927  16.934  0.00  0.00    +0.000 A 
ATOM      8  C   UNL     1      -1.941  10.802  18.017  0.00  0.00    +0.000 A 
ATOM      9  C   UNL     1      -1.214  11.124  19.214  0.00  0.00    +0.000 A 
ATOM     10  H   UNL     1      -3.827  12.960  19.420  0.00  0.00    +0.000 HD
ENDROOT
BRANCH   1  15
ATOM     11  F   UNL     1      -1.133  14.753  24.775  0.00  0.00    +0.000 F 
ATOM     12  C   UNL     1      -1.322  14.098  23.623  0.00  0.00    +0.000 A 
ATOM     13  C   UNL     1      -2.261  13.077  23.562  0.00  0.00    +0.000 A 
ATOM     14  C   UNL     1      -2.461  12.395  22.358  0.00  0.00    +0.000 A 
ATOM     15  C   UNL     1      -1.738  12.744  21.206  0.00  0.00    +0.000 A 
ATOM     16  C   UNL     1      -0.802  13.787  21.295  0.00  0.00    +0.000 A 
ATOM     17  C   UNL     1      -0.584  14.453  22.504  0.00  0.00    +0.000 A 
ENDBRANCH   1  15
BRANCH   9  18
ATOM     18  C   UNL     1       0.060  10.581  19.646  0.00  0.00    +0.000 C 
ATOM     19  N   UNL     1       0.100   9.427  20.228  0.00  0.00    +0.000 NA
BRANCH  19  20
ATOM     20  N   UNL     1       1.347   9.004  20.594  0.00  0.00    +0.000 N 
ATOM     21  H   UNL     1       1.587   9.063  21.583  0.00  0.00    +0.000 HD
BRANCH  20  22
ATOM     22  C   UNL     1       1.777   7.800  19.990  0.00  0.00    +0.000 A 
ATOM     23  C   UNL     1       2.313   7.814  18.696  0.00  0.00    +0.000 A 
ATOM     24  C   UNL     1       2.750   6.629  18.095  0.00  0.00    +0.000 A 
ATOM     25  C   UNL     1       2.623   5.410  18.766  0.00  0.00    +0.000 A 
ATOM     26 CL   UNL     1       3.198   3.989  17.969  0.00  0.00    +0.000 Cl
ATOM     27  C   UNL     1       2.047   5.377  20.038  0.00  0.00    +0.000 A 
ATOM     28 CL   UNL     1       1.822   3.906  20.917  0.00  0.00    +0.000 Cl
ATOM     29  C   UNL     1       1.626   6.566  20.641  0.00  0.00    +0.000 A 
ENDBRANCH  20  22
ENDBRANCH  19  20
ENDBRANCH   9  18
TORSDOF 4
ENDMDL
MODEL 9
REMARK VINA RESULT:      -7.9      4.511      7.395
REMARK  Name = 
REMARK  4 active torsions:
REMARK  status: ('A' for Active; 'I' for Inactive)
REMARK    1  A    between atoms: C_5  and  C_6
REMARK    2  A    between atoms: C_14  and  C_15
REMARK    3  A    between atoms: N_16  and  N_17
REMARK    4  A    between atoms: N_17  and  C_18
REMARK                            x       y       z     vdW  Elec       q    Type
REMARK                         _______ _______ _______ _____ _____    ______ ____
ROOT
ATOM      1  C   UNL     1       2.340   6.567  19.766  0.00  0.00    +0.000 A 
ATOM      2  N   UNL     1       1.645   5.798  20.679  0.00  0.00    +0.000 N 
ATOM      3  C   UNL     1       2.195   4.549  20.813  0.00  0.00    +0.000 A 
ATOM      4  C   UNL     1       1.828   3.489  21.649  0.00  0.00    +0.000 A 
ATOM      5  C   UNL     1       2.588   2.317  21.577  0.00  0.00    +0.000 A 
ATOM      6  C   UNL     1       3.661   2.213  20.698  0.00  0.00    +0.000 A 
ATOM      7  C   UNL     1       4.003   3.283  19.862  0.00  0.00    +0.000 A 
ATOM      8  C   UNL     1       3.257   4.480  19.920  0.00  0.00    +0.000 A 
ATOM      9  C   UNL     1       3.350   5.750  19.255  0.00  0.00    +0.000 A 
ATOM     10  H   UNL     1       0.823   6.109  21.186  0.00  0.00    +0.000 HD
ENDROOT
BRANCH   1  15
ATOM     11  F   UNL     1       0.718  11.804  18.577  0.00  0.00    +0.000 F 
ATOM     12  C   UNL     1       1.119  10.560  18.864  0.00  0.00    +0.000 A 
ATOM     13  C   UNL     1       0.892  10.043  20.132  0.00  0.00    +0.000 A 
ATOM     14  C   UNL     1       1.308   8.741  20.431  0.00  0.00    +0.000 A 
ATOM     15  C   UNL     1       1.933   7.946  19.457  0.00  0.00    +0.000 A 
ATOM     16  C   UNL     1       2.141   8.493  18.180  0.00  0.00    +0.000 A 
ATOM     17  C   UNL     1       1.748   9.801  17.889  0.00  0.00    +0.000 A 
ENDBRANCH   1  15
BRANCH   9  18
ATOM     18  C   UNL     1       4.323   6.156  18.259  0.00  0.00    +0.000 C 
ATOM     19  N   UNL     1       5.522   5.674  18.302  0.00  0.00    +0.000 NA
BRANCH  19  20
ATOM     20  N   UNL     1       6.362   6.117  17.320  0.00  0.00    +0.000 N 
ATOM     21  H   UNL     1       7.311   6.366  17.596  0.00  0.00    +0.000 HD
BRANCH  20  22
ATOM     22  C   UNL     1       6.310   5.390  16.108  0.00  0.00    +0.000 A 
ATOM     23  C   UNL     1       5.472   4.274  15.992  0.00  0.00    +0.000 A 
ATOM     24  C   UNL     1       5.407   3.554  14.794  0.00  0.00    +0.000 A 
ATOM     25  C   UNL     1       6.207   3.921  13.709  0.00  0.00    +0.000 A 
ATOM     26 CL   UNL     1       6.065   2.996  12.256  0.00  0.00    +0.000 Cl
ATOM     27  C   UNL     1       7.083   5.003  13.827  0.00  0.00    +0.000 A 
ATOM     28 CL   UNL     1       8.130   5.494  12.544  0.00  0.00    +0.000 Cl
ATOM     29  C   UNL     1       7.132   5.727  15.022  0.00  0.00    +0.000 A 
ENDBRANCH  20  22
ENDBRANCH  19  20
ENDBRANCH   9  18
TORSDOF 4
ENDMDL
