MODEL 1
REMARK VINA RESULT:      -8.0      0.000      0.000
REMARK  Name = 
REMARK  8 active torsions:
REMARK  status: ('A' for Active; 'I' for Inactive)
REMARK    1  A    between atoms: C_1  and  C_2
REMARK    2  A    between atoms: C_5  and  C_6
REMARK    3  A    between atoms: C_6  and  N_7
REMARK    4  A    between atoms: N_7  and  C_8
REMARK    5  A    between atoms: C_8  and  C_9
REMARK    6  A    between atoms: C_16  and  C_17
REMARK    7  A    between atoms: C_17  and  O_18
REMARK    8  A    between atoms: C_23  and  C_24
REMARK                            x       y       z     vdW  Elec       q    Type
REMARK                         _______ _______ _______ _____ _____    ______ ____
ROOT
ATOM      1  C   UNL     1       7.147   7.031  17.746  0.00  0.00    +0.000 A 
ATOM      2  C   UNL     1       6.083   7.264  16.877  0.00  0.00    +0.000 A 
ATOM      3  C   UNL     1       4.961   6.444  16.936  0.00  0.00    +0.000 A 
ATOM      4  C   UNL     1       4.924   5.386  17.844  0.00  0.00    +0.000 A 
ATOM      5  N   UNL     1       3.839   4.492  17.794  0.00  0.00    +0.000 N 
ATOM      6  C   UNL     1       4.184   3.162  18.305  0.00  0.00    +0.000 C 
ATOM      7  C   UNL     1       3.078   2.195  17.883  0.00  0.00    +0.000 C 
ATOM      8  C   UNL     1       1.690   2.655  18.365  0.00  0.00    +0.000 C 
ATOM      9  C   UNL     1       1.446   4.129  17.985  0.00  0.00    +0.000 C 
ATOM     10  C   UNL     1       2.613   5.045  18.375  0.00  0.00    +0.000 C 
ATOM     11  N   UNL     1       5.945   5.156  18.696  0.00  0.00    +0.000 NA
ATOM     12  C   UNL     1       7.019   5.975  18.634  0.00  0.00    +0.000 A 
ENDROOT
BRANCH   1  13
ATOM     13  C   UNL     1       8.380   7.890  17.740  0.00  0.00    +0.000 C 
BRANCH  13  14
ATOM     14  N   UNL     1       8.113   9.275  18.122  0.00  0.00    +0.000 NA
ATOM     15  H   UNL     1       8.336   9.886  17.340  0.00  0.00    +0.000 HD
BRANCH  14  16
ATOM     16  C   UNL     1       8.912   9.693  19.276  0.00  0.00    +0.000 C 
BRANCH  16  21
ATOM     17  C   UNL     1      11.397  14.839  18.097  0.00  0.00    +0.000 C 
ATOM     18  C   UNL     1      10.748  13.522  18.403  0.00  0.00    +0.000 A 
ATOM     19  C   UNL     1      10.602  12.546  17.417  0.00  0.00    +0.000 A 
ATOM     20  C   UNL     1      10.007  11.325  17.723  0.00  0.00    +0.000 A 
ATOM     21  C   UNL     1       9.547  11.042  19.021  0.00  0.00    +0.000 A 
ATOM     22  C   UNL     1       9.668  12.032  20.018  0.00  0.00    +0.000 A 
ATOM     23  C   UNL     1       9.175  11.861  21.432  0.00  0.00    +0.000 C 
ATOM     24  C   UNL     1      10.275  13.258  19.694  0.00  0.00    +0.000 A 
ENDBRANCH  16  21
ENDBRANCH  14  16
ENDBRANCH  13  14
ENDBRANCH   1  13
BRANCH   8  25
ATOM     25  C   UNL     1       1.497   2.430  19.870  0.00  0.00    +0.000 C 
BRANCH  25  26
ATOM     26  O   UNL     1       0.452   3.256  20.369  0.00  0.00    +0.000 OA
ATOM     27  H   UNL     1      -0.359   3.032  19.882  0.00  0.00    +0.000 HD
ENDBRANCH  25  26
ENDBRANCH   8  25
TORSDOF 6
ENDMDL
MODEL 2
REMARK VINA RESULT:      -7.9      1.043      1.772
REMARK  Name = 
REMARK  8 active torsions:
REMARK  status: ('A' for Active; 'I' for Inactive)
REMARK    1  A    between atoms: C_1  and  C_2
REMARK    2  A    between atoms: C_5  and  C_6
REMARK    3  A    between atoms: C_6  and  N_7
REMARK    4  A    between atoms: N_7  and  C_8
REMARK    5  A    between atoms: C_8  and  C_9
REMARK    6  A    between atoms: C_16  and  C_17
REMARK    7  A    between atoms: C_17  and  O_18
REMARK    8  A    between atoms: C_23  and  C_24
REMARK                            x       y       z     vdW  Elec       q    Type
REMARK                         _______ _______ _______ _____ _____    ______ ____
ROOT
ATOM      1  C   UNL     1       7.230   7.129  17.870  0.00  0.00    +0.000 A 
ATOM      2  C   UNL     1       7.653   6.182  18.799  0.00  0.00    +0.000 A 
ATOM      3  C   UNL     1       6.730   5.291  19.336  0.00  0.00    +0.000 A 
ATOM      4  C   UNL     1       5.389   5.372  18.959  0.00  0.00    +0.000 A 
ATOM      5  N   UNL     1       4.454   4.551  19.613  0.00  0.00    +0.000 N 
ATOM      6  C   UNL     1       3.104   5.123  19.605  0.00  0.00    +0.000 C 
ATOM      7  C   UNL     1       2.263   4.355  20.624  0.00  0.00    +0.000 C 
ATOM      8  C   UNL     1       2.248   2.841  20.340  0.00  0.00    +0.000 C 
ATOM      9  C   UNL     1       3.684   2.313  20.151  0.00  0.00    +0.000 C 
ATOM     10  C   UNL     1       4.503   3.157  19.167  0.00  0.00    +0.000 C 
ATOM     11  N   UNL     1       4.970   6.281  18.053  0.00  0.00    +0.000 NA
ATOM     12  C   UNL     1       5.886   7.126  17.530  0.00  0.00    +0.000 A 
ENDROOT
BRANCH   1  13
ATOM     13  C   UNL     1       8.182   8.110  17.244  0.00  0.00    +0.000 C 
BRANCH  13  14
ATOM     14  N   UNL     1       8.118   9.436  17.854  0.00  0.00    +0.000 NA
ATOM     15  H   UNL     1       8.413  10.131  17.172  0.00  0.00    +0.000 HD
BRANCH  14  16
ATOM     16  C   UNL     1       8.986   9.545  19.028  0.00  0.00    +0.000 C 
BRANCH  16  21
ATOM     17  C   UNL     1      11.832  14.636  18.855  0.00  0.00    +0.000 C 
ATOM     18  C   UNL     1      11.090  13.333  18.901  0.00  0.00    +0.000 A 
ATOM     19  C   UNL     1      11.069  12.478  17.799  0.00  0.00    +0.000 A 
ATOM     20  C   UNL     1      10.384  11.268  17.866  0.00  0.00    +0.000 A 
ATOM     21  C   UNL     1       9.707  10.875  19.033  0.00  0.00    +0.000 A 
ATOM     22  C   UNL     1       9.702  11.744  20.144  0.00  0.00    +0.000 A 
ATOM     23  C   UNL     1       8.978  11.452  21.432  0.00  0.00    +0.000 C 
ATOM     24  C   UNL     1      10.402  12.961  20.063  0.00  0.00    +0.000 A 
ENDBRANCH  16  21
ENDBRANCH  14  16
ENDBRANCH  13  14
ENDBRANCH   1  13
BRANCH   8  25
ATOM     25  C   UNL     1       1.362   2.487  19.140  0.00  0.00    +0.000 C 
BRANCH  25  26
ATOM     26  O   UNL     1      -0.011   2.678  19.459  0.00  0.00    +0.000 OA
ATOM     27  H   UNL     1      -0.173   3.636  19.501  0.00  0.00    +0.000 HD
ENDBRANCH  25  26
ENDBRANCH   8  25
TORSDOF 6
ENDMDL
MODEL 3
REMARK VINA RESULT:      -7.9      6.259      9.471
REMARK  Name = 
REMARK  8 active torsions:
REMARK  status: ('A' for Active; 'I' for Inactive)
REMARK    1  A    between atoms: C_1  and  C_2
REMARK    2  A    between atoms: C_5  and  C_6
REMARK    3  A    between atoms: C_6  and  N_7
REMARK    4  A    between atoms: N_7  and  C_8
REMARK    5  A    between atoms: C_8  and  C_9
REMARK    6  A    between atoms: C_16  and  C_17
REMARK    7  A    between atoms: C_17  and  O_18
REMARK    8  A    between atoms: C_23  and  C_24
REMARK                            x       y       z     vdW  Elec       q    Type
REMARK                         _______ _______ _______ _____ _____    ______ ____
ROOT
ATOM      1  C   UNL     1       1.190   9.490  19.100  0.00  0.00    +0.000 A 
ATOM      2  C   UNL     1       1.668   9.226  17.819  0.00  0.00    +0.000 A 
ATOM      3  C   UNL     1       2.389   8.059  17.586  0.00  0.00    +0.000 A 
ATOM      4  C   UNL     1       2.645   7.181  18.639  0.00  0.00    +0.000 A 
ATOM      5  N   UNL     1       3.487   6.079  18.409  0.00  0.00    +0.000 N 
ATOM      6  C   UNL     1       4.159   5.621  19.629  0.00  0.00    +0.000 C 
ATOM      7  C   UNL     1       5.292   4.682  19.217  0.00  0.00    +0.000 C 
ATOM      8  C   UNL     1       4.787   3.505  18.362  0.00  0.00    +0.000 C 
ATOM      9  C   UNL     1       3.911   4.016  17.202  0.00  0.00    +0.000 C 
ATOM     10  C   UNL     1       2.831   5.003  17.662  0.00  0.00    +0.000 C 
ATOM     11  N   UNL     1       2.180   7.424  19.883  0.00  0.00    +0.000 NA
ATOM     12  C   UNL     1       1.467   8.554  20.085  0.00  0.00    +0.000 A 
ENDROOT
BRANCH   1  13
ATOM     13  C   UNL     1       0.393  10.726  19.412  0.00  0.00    +0.000 C 
BRANCH  13  14
ATOM     14  N   UNL     1      -0.387  11.205  18.273  0.00  0.00    +0.000 NA
ATOM     15  H   UNL     1      -0.899  12.040  18.547  0.00  0.00    +0.000 HD
BRANCH  14  16
ATOM     16  C   UNL     1      -1.350  10.207  17.806  0.00  0.00    +0.000 C 
BRANCH  16  21
ATOM     17  C   UNL     1      -6.643  12.638  17.449  0.00  0.00    +0.000 C 
ATOM     18  C   UNL     1      -5.278  12.021  17.532  0.00  0.00    +0.000 A 
ATOM     19  C   UNL     1      -4.536  12.072  18.712  0.00  0.00    +0.000 A 
ATOM     20  C   UNL     1      -3.276  11.483  18.773  0.00  0.00    +0.000 A 
ATOM     21  C   UNL     1      -2.725  10.822  17.662  0.00  0.00    +0.000 A 
ATOM     22  C   UNL     1      -3.457  10.786  16.457  0.00  0.00    +0.000 A 
ATOM     23  C   UNL     1      -2.953  10.145  15.190  0.00  0.00    +0.000 C 
ATOM     24  C   UNL     1      -4.730  11.382  16.413  0.00  0.00    +0.000 A 
ENDBRANCH  16  21
ENDBRANCH  14  16
ENDBRANCH  13  14
ENDBRANCH   1  13
BRANCH   8  25
ATOM     25  C   UNL     1       4.045   2.459  19.201  0.00  0.00    +0.000 C 
BRANCH  25  26
ATOM     26  O   UNL     1       4.961   1.709  19.991  0.00  0.00    +0.000 OA
ATOM     27  H   UNL     1       5.771   2.238  20.084  0.00  0.00    +0.000 HD
ENDBRANCH  25  26
ENDBRANCH   8  25
TORSDOF 6
ENDMDL
MODEL 4
REMARK VINA RESULT:      -7.8      5.957      8.947
REMARK  Name = 
REMARK  8 active torsions:
REMARK  status: ('A' for Active; 'I' for Inactive)
REMARK    1  A    between atoms: C_1  and  C_2
REMARK    2  A    between atoms: C_5  and  C_6
REMARK    3  A    between atoms: C_6  and  N_7
REMARK    4  A    between atoms: N_7  and  C_8
REMARK    5  A    between atoms: C_8  and  C_9
REMARK    6  A    between atoms: C_16  and  C_17
REMARK    7  A    between atoms: C_17  and  O_18
REMARK    8  A    between atoms: C_23  and  C_24
REMARK                            x       y       z     vdW  Elec       q    Type
REMARK                         _______ _______ _______ _____ _____    ______ ____
ROOT
ATOM      1  C   UNL     1       1.264   9.360  19.547  0.00  0.00    +0.000 A 
ATOM      2  C   UNL     1       1.659   9.147  18.228  0.00  0.00    +0.000 A 
ATOM      3  C   UNL     1       2.278   7.950  17.885  0.00  0.00    +0.000 A 
ATOM      4  C   UNL     1       2.519   6.988  18.866  0.00  0.00    +0.000 A 
ATOM      5  N   UNL     1       3.263   5.846  18.523  0.00  0.00    +0.000 N 
ATOM      6  C   UNL     1       3.958   5.262  19.674  0.00  0.00    +0.000 C 
ATOM      7  C   UNL     1       4.997   4.274  19.145  0.00  0.00    +0.000 C 
ATOM      8  C   UNL     1       4.364   3.195  18.247  0.00  0.00    +0.000 C 
ATOM      9  C   UNL     1       3.473   3.842  17.169  0.00  0.00    +0.000 C 
ATOM     10  C   UNL     1       2.494   4.871  17.746  0.00  0.00    +0.000 C 
ATOM     11  N   UNL     1       2.134   7.181  20.145  0.00  0.00    +0.000 NA
ATOM     12  C   UNL     1       1.518   8.343  20.455  0.00  0.00    +0.000 A 
ENDROOT
BRANCH   1  13
ATOM     13  C   UNL     1       0.579  10.626  19.977  0.00  0.00    +0.000 C 
BRANCH  13  14
ATOM     14  N   UNL     1      -0.839  10.434  20.276  0.00  0.00    +0.000 NA
ATOM     15  H   UNL     1      -1.160   9.576  19.835  0.00  0.00    +0.000 HD
BRANCH  14  16
ATOM     16  C   UNL     1      -1.661  11.541  19.784  0.00  0.00    +0.000 C 
BRANCH  16  21
ATOM     17  C   UNL     1      -4.007  10.026  14.661  0.00  0.00    +0.000 C 
ATOM     18  C   UNL     1      -3.413  10.409  15.984  0.00  0.00    +0.000 A 
ATOM     19  C   UNL     1      -2.120  10.018  16.331  0.00  0.00    +0.000 A 
ATOM     20  C   UNL     1      -1.582  10.394  17.559  0.00  0.00    +0.000 A 
ATOM     21  C   UNL     1      -2.314  11.174  18.470  0.00  0.00    +0.000 A 
ATOM     22  C   UNL     1      -3.631  11.553  18.137  0.00  0.00    +0.000 A 
ATOM     23  C   UNL     1      -4.528  12.352  19.048  0.00  0.00    +0.000 C 
ATOM     24  C   UNL     1      -4.160  11.170  16.892  0.00  0.00    +0.000 A 
ENDBRANCH  16  21
ENDBRANCH  14  16
ENDBRANCH  13  14
ENDBRANCH   1  13
BRANCH   8  25
ATOM     25  C   UNL     1       3.587   2.151  19.057  0.00  0.00    +0.000 C 
BRANCH  25  26
ATOM     26  O   UNL     1       2.689   1.433  18.218  0.00  0.00    +0.000 OA
ATOM     27  H   UNL     1       2.296   0.720  18.749  0.00  0.00    +0.000 HD
ENDBRANCH  25  26
ENDBRANCH   8  25
TORSDOF 6
ENDMDL
MODEL 5
REMARK VINA RESULT:      -7.7      0.788      1.764
REMARK  Name = 
REMARK  8 active torsions:
REMARK  status: ('A' for Active; 'I' for Inactive)
REMARK    1  A    between atoms: C_1  and  C_2
REMARK    2  A    between atoms: C_5  and  C_6
REMARK    3  A    between atoms: C_6  and  N_7
REMARK    4  A    between atoms: N_7  and  C_8
REMARK    5  A    between atoms: C_8  and  C_9
REMARK    6  A    between atoms: C_16  and  C_17
REMARK    7  A    between atoms: C_17  and  O_18
REMARK    8  A    between atoms: C_23  and  C_24
REMARK                            x       y       z     vdW  Elec       q    Type
REMARK                         _______ _______ _______ _____ _____    ______ ____
ROOT
ATOM      1  C   UNL     1       7.234   7.021  18.112  0.00  0.00    +0.000 A 
ATOM      2  C   UNL     1       6.229   7.276  17.182  0.00  0.00    +0.000 A 
ATOM      3  C   UNL     1       5.108   6.455  17.145  0.00  0.00    +0.000 A 
ATOM      4  C   UNL     1       5.013   5.372  18.020  0.00  0.00    +0.000 A 
ATOM      5  N   UNL     1       3.936   4.480  17.875  0.00  0.00    +0.000 N 
ATOM      6  C   UNL     1       4.249   3.137  18.372  0.00  0.00    +0.000 C 
ATOM      7  C   UNL     1       3.176   2.181  17.852  0.00  0.00    +0.000 C 
ATOM      8  C   UNL     1       1.758   2.628  18.254  0.00  0.00    +0.000 C 
ATOM      9  C   UNL     1       1.536   4.111  17.897  0.00  0.00    +0.000 C 
ATOM     10  C   UNL     1       2.673   5.016  18.388  0.00  0.00    +0.000 C 
ATOM     11  N   UNL     1       5.976   5.121  18.931  0.00  0.00    +0.000 NA
ATOM     12  C   UNL     1       7.050   5.941  18.962  0.00  0.00    +0.000 A 
ENDROOT
BRANCH   1  13
ATOM     13  C   UNL     1       8.463   7.880  18.211  0.00  0.00    +0.000 C 
BRANCH  13  14
ATOM     14  N   UNL     1       8.156   9.304  18.325  0.00  0.00    +0.000 NA
ATOM     15  H   UNL     1       7.413   9.539  17.671  0.00  0.00    +0.000 HD
BRANCH  14  16
ATOM     16  C   UNL     1       9.317  10.144  18.023  0.00  0.00    +0.000 C 
BRANCH  16  21
ATOM     17  C   UNL     1       9.792  14.264  22.128  0.00  0.00    +0.000 C 
ATOM     18  C   UNL     1       9.682  13.206  21.069  0.00  0.00    +0.000 A 
ATOM     19  C   UNL     1       9.322  11.898  21.396  0.00  0.00    +0.000 A 
ATOM     20  C   UNL     1       9.214  10.934  20.397  0.00  0.00    +0.000 A 
ATOM     21  C   UNL     1       9.455  11.247  19.049  0.00  0.00    +0.000 A 
ATOM     22  C   UNL     1       9.843  12.561  18.713  0.00  0.00    +0.000 A 
ATOM     23  C   UNL     1      10.169  13.005  17.311  0.00  0.00    +0.000 C 
ATOM     24  C   UNL     1       9.944  13.525  19.732  0.00  0.00    +0.000 A 
ENDBRANCH  16  21
ENDBRANCH  14  16
ENDBRANCH  13  14
ENDBRANCH   1  13
BRANCH   8  25
ATOM     25  C   UNL     1       1.467   2.362  19.736  0.00  0.00    +0.000 C 
BRANCH  25  26
ATOM     26  O   UNL     1       0.344   3.122  20.168  0.00  0.00    +0.000 OA
ATOM     27  H   UNL     1      -0.138   2.589  20.823  0.00  0.00    +0.000 HD
ENDBRANCH  25  26
ENDBRANCH   8  25
TORSDOF 6
ENDMDL
MODEL 6
REMARK VINA RESULT:      -7.6      1.371      1.878
REMARK  Name = 
REMARK  8 active torsions:
REMARK  status: ('A' for Active; 'I' for Inactive)
REMARK    1  A    between atoms: C_1  and  C_2
REMARK    2  A    between atoms: C_5  and  C_6
REMARK    3  A    between atoms: C_6  and  N_7
REMARK    4  A    between atoms: N_7  and  C_8
REMARK    5  A    between atoms: C_8  and  C_9
REMARK    6  A    between atoms: C_16  and  C_17
REMARK    7  A    between atoms: C_17  and  O_18
REMARK    8  A    between atoms: C_23  and  C_24
REMARK                            x       y       z     vdW  Elec       q    Type
REMARK                         _______ _______ _______ _____ _____    ______ ____
ROOT
ATOM      1  C   UNL     1       6.846   6.774  17.723  0.00  0.00    +0.000 A 
ATOM      2  C   UNL     1       5.689   6.772  16.948  0.00  0.00    +0.000 A 
ATOM      3  C   UNL     1       4.602   6.001  17.344  0.00  0.00    +0.000 A 
ATOM      4  C   UNL     1       4.691   5.220  18.497  0.00  0.00    +0.000 A 
ATOM      5  N   UNL     1       3.631   4.348  18.804  0.00  0.00    +0.000 N 
ATOM      6  C   UNL     1       4.064   3.199  19.606  0.00  0.00    +0.000 C 
ATOM      7  C   UNL     1       2.946   2.159  19.578  0.00  0.00    +0.000 C 
ATOM      8  C   UNL     1       1.606   2.734  20.074  0.00  0.00    +0.000 C 
ATOM      9  C   UNL     1       1.284   4.055  19.349  0.00  0.00    +0.000 C 
ATOM     10  C   UNL     1       2.461   5.038  19.353  0.00  0.00    +0.000 C 
ATOM     11  N   UNL     1       5.804   5.220  19.260  0.00  0.00    +0.000 NA
ATOM     12  C   UNL     1       6.843   5.991  18.866  0.00  0.00    +0.000 A 
ENDROOT
BRANCH   1  13
ATOM     13  C   UNL     1       8.049   7.597  17.355  0.00  0.00    +0.000 C 
BRANCH  13  14
ATOM     14  N   UNL     1       8.278   8.714  18.269  0.00  0.00    +0.000 NA
ATOM     15  H   UNL     1       7.511   8.762  18.936  0.00  0.00    +0.000 HD
BRANCH  14  16
ATOM     16  C   UNL     1       8.357   9.995  17.566  0.00  0.00    +0.000 C 
BRANCH  16  21
ATOM     17  C   UNL     1      10.478  14.009  21.232  0.00  0.00    +0.000 C 
ATOM     18  C   UNL     1       9.939  12.982  20.280  0.00  0.00    +0.000 A 
ATOM     19  C   UNL     1      10.205  11.625  20.462  0.00  0.00    +0.000 A 
ATOM     20  C   UNL     1       9.686  10.686  19.574  0.00  0.00    +0.000 A 
ATOM     21  C   UNL     1       8.884  11.074  18.486  0.00  0.00    +0.000 A 
ATOM     22  C   UNL     1       8.631  12.446  18.282  0.00  0.00    +0.000 A 
ATOM     23  C   UNL     1       7.823  12.986  17.129  0.00  0.00    +0.000 C 
ATOM     24  C   UNL     1       9.158  13.382  19.189  0.00  0.00    +0.000 A 
ENDBRANCH  16  21
ENDBRANCH  14  16
ENDBRANCH  13  14
ENDBRANCH   1  13
BRANCH   8  25
ATOM     25  C   UNL     1       1.583   2.915  21.596  0.00  0.00    +0.000 C 
BRANCH  25  26
ATOM     26  O   UNL     1       2.594   2.123  22.209  0.00  0.00    +0.000 OA
ATOM     27  H   UNL     1       3.376   2.687  22.332  0.00  0.00    +0.000 HD
ENDBRANCH  25  26
ENDBRANCH   8  25
TORSDOF 6
ENDMDL
MODEL 7
REMARK VINA RESULT:      -7.6      1.374      2.036
REMARK  Name = 
REMARK  8 active torsions:
REMARK  status: ('A' for Active; 'I' for Inactive)
REMARK    1  A    between atoms: C_1  and  C_2
REMARK    2  A    between atoms: C_5  and  C_6
REMARK    3  A    between atoms: C_6  and  N_7
REMARK    4  A    between atoms: N_7  and  C_8
REMARK    5  A    between atoms: C_8  and  C_9
REMARK    6  A    between atoms: C_16  and  C_17
REMARK    7  A    between atoms: C_17  and  O_18
REMARK    8  A    between atoms: C_23  and  C_24
REMARK                            x       y       z     vdW  Elec       q    Type
REMARK                         _______ _______ _______ _____ _____    ______ ____
ROOT
ATOM      1  C   UNL     1       7.174   7.124  17.882  0.00  0.00    +0.000 A 
ATOM      2  C   UNL     1       7.580   6.218  18.859  0.00  0.00    +0.000 A 
ATOM      3  C   UNL     1       6.661   5.309  19.372  0.00  0.00    +0.000 A 
ATOM      4  C   UNL     1       5.340   5.331  18.922  0.00  0.00    +0.000 A 
ATOM      5  N   UNL     1       4.400   4.494  19.550  0.00  0.00    +0.000 N 
ATOM      6  C   UNL     1       3.033   5.015  19.455  0.00  0.00    +0.000 C 
ATOM      7  C   UNL     1       2.166   4.244  20.449  0.00  0.00    +0.000 C 
ATOM      8  C   UNL     1       2.220   2.724  20.209  0.00  0.00    +0.000 C 
ATOM      9  C   UNL     1       3.682   2.244  20.111  0.00  0.00    +0.000 C 
ATOM     10  C   UNL     1       4.522   3.090  19.148  0.00  0.00    +0.000 C 
ATOM     11  N   UNL     1       4.938   6.199  17.970  0.00  0.00    +0.000 NA
ATOM     12  C   UNL     1       5.851   7.062  17.472  0.00  0.00    +0.000 A 
ENDROOT
BRANCH   1  13
ATOM     13  C   UNL     1       8.123   8.121  17.279  0.00  0.00    +0.000 C 
BRANCH  13  14
ATOM     14  N   UNL     1       7.940   9.473  17.804  0.00  0.00    +0.000 NA
ATOM     15  H   UNL     1       7.771  10.112  17.031  0.00  0.00    +0.000 HD
BRANCH  14  16
ATOM     16  C   UNL     1       9.115   9.942  18.541  0.00  0.00    +0.000 C 
BRANCH  16  21
ATOM     17  C   UNL     1       9.563  15.717  17.834  0.00  0.00    +0.000 C 
ATOM     18  C   UNL     1       9.448  14.233  18.028  0.00  0.00    +0.000 A 
ATOM     19  C   UNL     1       8.349  13.528  17.537  0.00  0.00    +0.000 A 
ATOM     20  C   UNL     1       8.266  12.149  17.717  0.00  0.00    +0.000 A 
ATOM     21  C   UNL     1       9.278  11.438  18.385  0.00  0.00    +0.000 A 
ATOM     22  C   UNL     1      10.380  12.147  18.905  0.00  0.00    +0.000 A 
ATOM     23  C   UNL     1      11.503  11.501  19.675  0.00  0.00    +0.000 C 
ATOM     24  C   UNL     1      10.452  13.538  18.712  0.00  0.00    +0.000 A 
ENDBRANCH  16  21
ENDBRANCH  14  16
ENDBRANCH  13  14
ENDBRANCH   1  13
BRANCH   8  25
ATOM     25  C   UNL     1       1.413   2.305  18.975  0.00  0.00    +0.000 C 
BRANCH  25  26
ATOM     26  O   UNL     1       0.026   2.554  19.176  0.00  0.00    +0.000 OA
ATOM     27  H   UNL     1      -0.318   1.852  19.755  0.00  0.00    +0.000 HD
ENDBRANCH  25  26
ENDBRANCH   8  25
TORSDOF 6
ENDMDL
MODEL 8
REMARK VINA RESULT:      -7.6      1.374      1.607
REMARK  Name = 
REMARK  8 active torsions:
REMARK  status: ('A' for Active; 'I' for Inactive)
REMARK    1  A    between atoms: C_1  and  C_2
REMARK    2  A    between atoms: C_5  and  C_6
REMARK    3  A    between atoms: C_6  and  N_7
REMARK    4  A    between atoms: N_7  and  C_8
REMARK    5  A    between atoms: C_8  and  C_9
REMARK    6  A    between atoms: C_16  and  C_17
REMARK    7  A    between atoms: C_17  and  O_18
REMARK    8  A    between atoms: C_23  and  C_24
REMARK                            x       y       z     vdW  Elec       q    Type
REMARK                         _______ _______ _______ _____ _____    ______ ____
ROOT
ATOM      1  C   UNL     1       7.033   6.998  17.853  0.00  0.00    +0.000 A 
ATOM      2  C   UNL     1       5.858   7.083  17.110  0.00  0.00    +0.000 A 
ATOM      3  C   UNL     1       4.766   6.298  17.465  0.00  0.00    +0.000 A 
ATOM      4  C   UNL     1       4.867   5.419  18.543  0.00  0.00    +0.000 A 
ATOM      5  N   UNL     1       3.798   4.542  18.800  0.00  0.00    +0.000 N 
ATOM      6  C   UNL     1       4.227   3.321  19.489  0.00  0.00    +0.000 C 
ATOM      7  C   UNL     1       3.089   2.305  19.398  0.00  0.00    +0.000 C 
ATOM      8  C   UNL     1       1.773   2.858  19.975  0.00  0.00    +0.000 C 
ATOM      9  C   UNL     1       1.459   4.243  19.376  0.00  0.00    +0.000 C 
ATOM     10  C   UNL     1       2.654   5.201  19.435  0.00  0.00    +0.000 C 
ATOM     11  N   UNL     1       5.997   5.334  19.276  0.00  0.00    +0.000 NA
ATOM     12  C   UNL     1       7.041   6.118  18.925  0.00  0.00    +0.000 A 
ENDROOT
BRANCH   1  13
ATOM     13  C   UNL     1       8.242   7.829  17.528  0.00  0.00    +0.000 C 
BRANCH  13  14
ATOM     14  N   UNL     1       7.986   9.266  17.611  0.00  0.00    +0.000 NA
ATOM     15  H   UNL     1       8.362   9.720  16.782  0.00  0.00    +0.000 HD
BRANCH  14  16
ATOM     16  C   UNL     1       8.608   9.869  18.791  0.00  0.00    +0.000 C 
BRANCH  16  21
ATOM     17  C   UNL     1      12.333  14.110  17.311  0.00  0.00    +0.000 C 
ATOM     18  C   UNL     1      11.372  13.018  17.679  0.00  0.00    +0.000 A 
ATOM     19  C   UNL     1      11.812  11.862  18.325  0.00  0.00    +0.000 A 
ATOM     20  C   UNL     1      10.903  10.865  18.669  0.00  0.00    +0.000 A 
ATOM     21  C   UNL     1       9.533  10.996  18.385  0.00  0.00    +0.000 A 
ATOM     22  C   UNL     1       9.083  12.150  17.711  0.00  0.00    +0.000 A 
ATOM     23  C   UNL     1       7.648  12.384  17.316  0.00  0.00    +0.000 C 
ATOM     24  C   UNL     1      10.013  13.151  17.374  0.00  0.00    +0.000 A 
ENDBRANCH  16  21
ENDBRANCH  14  16
ENDBRANCH  13  14
ENDBRANCH   1  13
BRANCH   8  25
ATOM     25  C   UNL     1       1.788   2.906  21.508  0.00  0.00    +0.000 C 
BRANCH  25  26
ATOM     26  O   UNL     1       2.929   2.225  22.018  0.00  0.00    +0.000 OA
ATOM     27  H   UNL     1       2.997   2.433  22.965  0.00  0.00    +0.000 HD
ENDBRANCH  25  26
ENDBRANCH   8  25
TORSDOF 6
ENDMDL
MODEL 9
REMARK VINA RESULT:      -7.5      1.296      2.457
REMARK  Name = 
REMARK  8 active torsions:
REMARK  status: ('A' for Active; 'I' for Inactive)
REMARK    1  A    between atoms: C_1  and  C_2
REMARK    2  A    between atoms: C_5  and  C_6
REMARK    3  A    between atoms: C_6  and  N_7
REMARK    4  A    between atoms: N_7  and  C_8
REMARK    5  A    between atoms: C_8  and  C_9
REMARK    6  A    between atoms: C_16  and  C_17
REMARK    7  A    between atoms: C_17  and  O_18
REMARK    8  A    between atoms: C_23  and  C_24
REMARK                            x       y       z     vdW  Elec       q    Type
REMARK                         _______ _______ _______ _____ _____    ______ ____
ROOT
ATOM      1  C   UNL     1       7.093   7.253  17.899  0.00  0.00    +0.000 A 
ATOM      2  C   UNL     1       7.492   6.248  18.777  0.00  0.00    +0.000 A 
ATOM      3  C   UNL     1       6.543   5.368  19.285  0.00  0.00    +0.000 A 
ATOM      4  C   UNL     1       5.202   5.515  18.929  0.00  0.00    +0.000 A 
ATOM      5  N   UNL     1       4.244   4.699  19.557  0.00  0.00    +0.000 N 
ATOM      6  C   UNL     1       2.916   5.318  19.593  0.00  0.00    +0.000 C 
ATOM      7  C   UNL     1       2.059   4.535  20.586  0.00  0.00    +0.000 C 
ATOM      8  C   UNL     1       1.986   3.038  20.233  0.00  0.00    +0.000 C 
ATOM      9  C   UNL     1       3.398   2.467  20.001  0.00  0.00    +0.000 C 
ATOM     10  C   UNL     1       4.237   3.325  19.046  0.00  0.00    +0.000 C 
ATOM     11  N   UNL     1       4.805   6.479  18.072  0.00  0.00    +0.000 NA
ATOM     12  C   UNL     1       5.746   7.314  17.577  0.00  0.00    +0.000 A 
ENDROOT
BRANCH   1  13
ATOM     13  C   UNL     1       8.073   8.226  17.306  0.00  0.00    +0.000 C 
BRANCH  13  14
ATOM     14  N   UNL     1       8.193   9.459  18.081  0.00  0.00    +0.000 NA
ATOM     15  H   UNL     1       8.344  10.239  17.446  0.00  0.00    +0.000 HD
BRANCH  14  16
ATOM     16  C   UNL     1       9.311   9.410  19.025  0.00  0.00    +0.000 C 
BRANCH  16  21
ATOM     17  C   UNL     1      10.090  14.591  21.596  0.00  0.00    +0.000 C 
ATOM     18  C   UNL     1       9.903  13.257  20.934  0.00  0.00    +0.000 A 
ATOM     19  C   UNL     1       9.241  12.218  21.588  0.00  0.00    +0.000 A 
ATOM     20  C   UNL     1       9.066  10.991  20.952  0.00  0.00    +0.000 A 
ATOM     21  C   UNL     1       9.540  10.770  19.648  0.00  0.00    +0.000 A 
ATOM     22  C   UNL     1      10.230  11.808  18.988  0.00  0.00    +0.000 A 
ATOM     23  C   UNL     1      10.820  11.676  17.608  0.00  0.00    +0.000 C 
ATOM     24  C   UNL     1      10.395  13.042  19.641  0.00  0.00    +0.000 A 
ENDBRANCH  16  21
ENDBRANCH  14  16
ENDBRANCH  13  14
ENDBRANCH   1  13
BRANCH   8  25
ATOM     25  C   UNL     1       1.073   2.772  19.030  0.00  0.00    +0.000 C 
BRANCH  25  26
ATOM     26  O   UNL     1       1.291   1.462  18.518  0.00  0.00    +0.000 OA
ATOM     27  H   UNL     1       0.434   1.119  18.211  0.00  0.00    +0.000 HD
ENDBRANCH  25  26
ENDBRANCH   8  25
TORSDOF 6
ENDMDL
