MODEL 1
REMARK VINA RESULT:      -5.5      0.000      0.000
REMARK  Name = 
REMARK  6 active torsions:
REMARK  status: ('A' for Active; 'I' for Inactive)
REMARK    1  A    between atoms: O_1  and  C_2
REMARK    2  A    between atoms: C_2  and  C_3
REMARK    3  A    between atoms: C_3  and  C_4
REMARK    4  A    between atoms: C_4  and  N_5
REMARK    5  A    between atoms: N_5  and  C_6
REMARK    6  A    between atoms: C_6  and  C_7
REMARK                            x       y       z     vdW  Elec       q    Type
REMARK                         _______ _______ _______ _____ _____    ______ ____
ROOT
ATOM      1  C   UNL     1       2.331   4.831  18.391  0.00  0.00    +0.000 C 
ENDROOT
BRANCH   1   2
ATOM      2  C   UNL     1       3.559   4.938  17.512  0.00  0.00    +0.000 A 
ATOM      3  C   UNL     1       4.154   3.744  17.059  0.00  0.00    +0.000 A 
ATOM      4  C   UNL     1       5.258   3.766  16.206  0.00  0.00    +0.000 A 
ATOM      5  C   UNL     1       5.789   4.987  15.805  0.00  0.00    +0.000 A 
ATOM      6 CL   UNL     1       7.135   5.021  14.733  0.00  0.00    +0.000 Cl
ATOM      7  C   UNL     1       5.234   6.181  16.255  0.00  0.00    +0.000 A 
ATOM      8  C   UNL     1       4.124   6.158  17.108  0.00  0.00    +0.000 A 
ATOM      9 CL   UNL     1       3.492   7.684  17.616  0.00  0.00    +0.000 Cl
ENDBRANCH   1   2
BRANCH   1  10
ATOM     10  N   UNL     1       1.420   3.814  17.859  0.00  0.00    +0.000 NA
ATOM     11  H   UNL     1       0.566   4.279  17.547  0.00  0.00    +0.000 HD
BRANCH  10  12
ATOM     12  C   UNL     1       1.070   2.828  18.883  0.00  0.00    +0.000 C 
BRANCH  12  13
ATOM     13  C   UNL     1       0.884   3.540  20.224  0.00  0.00    +0.000 C 
BRANCH  13  14
ATOM     14  C   UNL     1       1.304   2.660  21.393  0.00  0.00    +0.000 C 
BRANCH  14  15
ATOM     15  O   UNL     1       2.329   3.304  22.135  0.00  0.00    +0.000 OA
ATOM     16  H   UNL     1       1.969   4.157  22.438  0.00  0.00    +0.000 HD
ENDBRANCH  14  15
ENDBRANCH  13  14
ENDBRANCH  12  13
ENDBRANCH  10  12
ENDBRANCH   1  10
TORSDOF 6
ENDMDL
MODEL 2
REMARK VINA RESULT:      -5.5      3.318      5.367
REMARK  Name = 
REMARK  6 active torsions:
REMARK  status: ('A' for Active; 'I' for Inactive)
REMARK    1  A    between atoms: O_1  and  C_2
REMARK    2  A    between atoms: C_2  and  C_3
REMARK    3  A    between atoms: C_3  and  C_4
REMARK    4  A    between atoms: C_4  and  N_5
REMARK    5  A    between atoms: N_5  and  C_6
REMARK    6  A    between atoms: C_6  and  C_7
REMARK                            x       y       z     vdW  Elec       q    Type
REMARK                         _______ _______ _______ _____ _____    ______ ____
ROOT
ATOM      1  C   UNL     1       4.958   4.346  16.106  0.00  0.00    +0.000 C 
ENDROOT
BRANCH   1   2
ATOM      2  C   UNL     1       3.877   4.191  17.153  0.00  0.00    +0.000 A 
ATOM      3  C   UNL     1       3.422   2.890  17.447  0.00  0.00    +0.000 A 
ATOM      4  C   UNL     1       2.463   2.666  18.434  0.00  0.00    +0.000 A 
ATOM      5  C   UNL     1       1.937   3.745  19.135  0.00  0.00    +0.000 A 
ATOM      6 CL   UNL     1       0.772   3.473  20.372  0.00  0.00    +0.000 Cl
ATOM      7  C   UNL     1       2.352   5.043  18.850  0.00  0.00    +0.000 A 
ATOM      8  C   UNL     1       3.316   5.267  17.861  0.00  0.00    +0.000 A 
ATOM      9 CL   UNL     1       3.781   6.906  17.573  0.00  0.00    +0.000 Cl
ENDBRANCH   1   2
BRANCH   1  10
ATOM     10  N   UNL     1       6.180   3.663  16.540  0.00  0.00    +0.000 NA
ATOM     11  H   UNL     1       5.990   3.202  17.431  0.00  0.00    +0.000 HD
BRANCH  10  12
ATOM     12  C   UNL     1       7.279   4.612  16.727  0.00  0.00    +0.000 C 
BRANCH  12  13
ATOM     13  C   UNL     1       7.220   5.176  18.148  0.00  0.00    +0.000 C 
BRANCH  13  14
ATOM     14  C   UNL     1       7.667   6.631  18.197  0.00  0.00    +0.000 C 
BRANCH  14  15
ATOM     15  O   UNL     1       7.476   7.234  16.926  0.00  0.00    +0.000 OA
ATOM     16  H   UNL     1       6.791   7.917  17.034  0.00  0.00    +0.000 HD
ENDBRANCH  14  15
ENDBRANCH  13  14
ENDBRANCH  12  13
ENDBRANCH  10  12
ENDBRANCH   1  10
TORSDOF 6
ENDMDL
MODEL 3
REMARK VINA RESULT:      -5.5      3.698      5.644
REMARK  Name = 
REMARK  6 active torsions:
REMARK  status: ('A' for Active; 'I' for Inactive)
REMARK    1  A    between atoms: O_1  and  C_2
REMARK    2  A    between atoms: C_2  and  C_3
REMARK    3  A    between atoms: C_3  and  C_4
REMARK    4  A    between atoms: C_4  and  N_5
REMARK    5  A    between atoms: N_5  and  C_6
REMARK    6  A    between atoms: C_6  and  C_7
REMARK                            x       y       z     vdW  Elec       q    Type
REMARK                         _______ _______ _______ _____ _____    ______ ____
ROOT
ATOM      1  C   UNL     1       5.780   5.222  18.831  0.00  0.00    +0.000 C 
ENDROOT
BRANCH   1   2
ATOM      2  C   UNL     1       4.426   4.550  18.757  0.00  0.00    +0.000 A 
ATOM      3  C   UNL     1       4.342   3.189  19.113  0.00  0.00    +0.000 A 
ATOM      4  C   UNL     1       3.120   2.517  19.115  0.00  0.00    +0.000 A 
ATOM      5  C   UNL     1       1.964   3.197  18.749  0.00  0.00    +0.000 A 
ATOM      6 CL   UNL     1       0.450   2.380  18.774  0.00  0.00    +0.000 Cl
ATOM      7  C   UNL     1       2.021   4.536  18.372  0.00  0.00    +0.000 A 
ATOM      8  C   UNL     1       3.247   5.211  18.373  0.00  0.00    +0.000 A 
ATOM      9 CL   UNL     1       3.231   6.871  17.897  0.00  0.00    +0.000 Cl
ENDBRANCH   1   2
BRANCH   1  10
ATOM     10  N   UNL     1       6.835   4.266  18.488  0.00  0.00    +0.000 NA
ATOM     11  H   UNL     1       7.532   4.276  19.233  0.00  0.00    +0.000 HD
BRANCH  10  12
ATOM     12  C   UNL     1       7.489   4.629  17.229  0.00  0.00    +0.000 C 
BRANCH  12  13
ATOM     13  C   UNL     1       6.648   4.114  16.058  0.00  0.00    +0.000 C 
BRANCH  13  14
ATOM     14  C   UNL     1       6.450   5.184  14.994  0.00  0.00    +0.000 C 
BRANCH  14  15
ATOM     15  O   UNL     1       7.672   5.413  14.310  0.00  0.00    +0.000 OA
ATOM     16  H   UNL     1       8.365   4.929  14.793  0.00  0.00    +0.000 HD
ENDBRANCH  14  15
ENDBRANCH  13  14
ENDBRANCH  12  13
ENDBRANCH  10  12
ENDBRANCH   1  10
TORSDOF 6
ENDMDL
MODEL 4
REMARK VINA RESULT:      -5.5      2.231      2.459
REMARK  Name = 
REMARK  6 active torsions:
REMARK  status: ('A' for Active; 'I' for Inactive)
REMARK    1  A    between atoms: O_1  and  C_2
REMARK    2  A    between atoms: C_2  and  C_3
REMARK    3  A    between atoms: C_3  and  C_4
REMARK    4  A    between atoms: C_4  and  N_5
REMARK    5  A    between atoms: N_5  and  C_6
REMARK    6  A    between atoms: C_6  and  C_7
REMARK                            x       y       z     vdW  Elec       q    Type
REMARK                         _______ _______ _______ _____ _____    ______ ____
ROOT
ATOM      1  C   UNL     1       4.881   4.273  19.158  0.00  0.00    +0.000 C 
ENDROOT
BRANCH   1   2
ATOM      2  C   UNL     1       5.543   4.427  17.806  0.00  0.00    +0.000 A 
ATOM      3  C   UNL     1       4.837   3.989  16.668  0.00  0.00    +0.000 A 
ATOM      4  C   UNL     1       5.364   4.144  15.386  0.00  0.00    +0.000 A 
ATOM      5  C   UNL     1       6.614   4.732  15.227  0.00  0.00    +0.000 A 
ATOM      6 CL   UNL     1       7.258   4.950  13.646  0.00  0.00    +0.000 Cl
ATOM      7  C   UNL     1       7.342   5.155  16.335  0.00  0.00    +0.000 A 
ATOM      8  C   UNL     1       6.812   5.002  17.620  0.00  0.00    +0.000 A 
ATOM      9 CL   UNL     1       7.778   5.558  18.940  0.00  0.00    +0.000 Cl
ENDBRANCH   1   2
BRANCH   1  10
ATOM     10  N   UNL     1       4.962   2.878  19.600  0.00  0.00    +0.000 NA
ATOM     11  H   UNL     1       5.085   2.287  18.777  0.00  0.00    +0.000 HD
BRANCH  10  12
ATOM     12  C   UNL     1       3.739   2.471  20.293  0.00  0.00    +0.000 C 
BRANCH  12  13
ATOM     13  C   UNL     1       2.676   3.557  20.120  0.00  0.00    +0.000 C 
BRANCH  13  14
ATOM     14  C   UNL     1       1.449   3.289  20.980  0.00  0.00    +0.000 C 
BRANCH  14  15
ATOM     15  O   UNL     1       1.835   2.624  22.173  0.00  0.00    +0.000 OA
ATOM     16  H   UNL     1       1.453   1.729  22.138  0.00  0.00    +0.000 HD
ENDBRANCH  14  15
ENDBRANCH  13  14
ENDBRANCH  12  13
ENDBRANCH  10  12
ENDBRANCH   1  10
TORSDOF 6
ENDMDL
MODEL 5
REMARK VINA RESULT:      -5.5      2.982      5.131
REMARK  Name = 
REMARK  6 active torsions:
REMARK  status: ('A' for Active; 'I' for Inactive)
REMARK    1  A    between atoms: O_1  and  C_2
REMARK    2  A    between atoms: C_2  and  C_3
REMARK    3  A    between atoms: C_3  and  C_4
REMARK    4  A    between atoms: C_4  and  N_5
REMARK    5  A    between atoms: N_5  and  C_6
REMARK    6  A    between atoms: C_6  and  C_7
REMARK                            x       y       z     vdW  Elec       q    Type
REMARK                         _______ _______ _______ _____ _____    ______ ____
ROOT
ATOM      1  C   UNL     1       5.205   4.558  16.262  0.00  0.00    +0.000 C 
ENDROOT
BRANCH   1   2
ATOM      2  C   UNL     1       4.071   4.324  17.237  0.00  0.00    +0.000 A 
ATOM      3  C   UNL     1       3.745   2.993  17.566  0.00  0.00    +0.000 A 
ATOM      4  C   UNL     1       2.745   2.702  18.494  0.00  0.00    +0.000 A 
ATOM      5  C   UNL     1       2.048   3.742  19.098  0.00  0.00    +0.000 A 
ATOM      6 CL   UNL     1       0.831   3.391  20.262  0.00  0.00    +0.000 Cl
ATOM      7  C   UNL     1       2.335   5.066  18.775  0.00  0.00    +0.000 A 
ATOM      8  C   UNL     1       3.340   5.357  17.847  0.00  0.00    +0.000 A 
ATOM      9 CL   UNL     1       3.637   7.025  17.507  0.00  0.00    +0.000 Cl
ENDBRANCH   1   2
BRANCH   1  10
ATOM     10  N   UNL     1       6.455   4.784  16.992  0.00  0.00    +0.000 NA
ATOM     11  H   UNL     1       6.273   4.659  17.988  0.00  0.00    +0.000 HD
BRANCH  10  12
ATOM     12  C   UNL     1       6.957   6.142  16.773  0.00  0.00    +0.000 C 
BRANCH  12  13
ATOM     13  C   UNL     1       7.601   6.655  18.063  0.00  0.00    +0.000 C 
BRANCH  13  14
ATOM     14  C   UNL     1       7.906   5.520  19.031  0.00  0.00    +0.000 C 
BRANCH  14  15
ATOM     15  O   UNL     1       6.872   5.423  19.997  0.00  0.00    +0.000 OA
ATOM     16  H   UNL     1       7.144   4.744  20.640  0.00  0.00    +0.000 HD
ENDBRANCH  14  15
ENDBRANCH  13  14
ENDBRANCH  12  13
ENDBRANCH  10  12
ENDBRANCH   1  10
TORSDOF 6
ENDMDL
MODEL 6
REMARK VINA RESULT:      -5.4      1.800      2.316
REMARK  Name = 
REMARK  6 active torsions:
REMARK  status: ('A' for Active; 'I' for Inactive)
REMARK    1  A    between atoms: O_1  and  C_2
REMARK    2  A    between atoms: C_2  and  C_3
REMARK    3  A    between atoms: C_3  and  C_4
REMARK    4  A    between atoms: C_4  and  N_5
REMARK    5  A    between atoms: N_5  and  C_6
REMARK    6  A    between atoms: C_6  and  C_7
REMARK                            x       y       z     vdW  Elec       q    Type
REMARK                         _______ _______ _______ _____ _____    ______ ____
ROOT
ATOM      1  C   UNL     1       2.440   5.437  18.722  0.00  0.00    +0.000 C 
ENDROOT
BRANCH   1   2
ATOM      2  C   UNL     1       3.549   5.238  17.712  0.00  0.00    +0.000 A 
ATOM      3  C   UNL     1       4.201   6.382  17.211  0.00  0.00    +0.000 A 
ATOM      4  C   UNL     1       5.264   6.274  16.314  0.00  0.00    +0.000 A 
ATOM      5  C   UNL     1       5.682   5.015  15.897  0.00  0.00    +0.000 A 
ATOM      6 CL   UNL     1       7.008   4.873  14.810  0.00  0.00    +0.000 Cl
ATOM      7  C   UNL     1       5.041   3.869  16.359  0.00  0.00    +0.000 A 
ATOM      8  C   UNL     1       3.977   3.978  17.261  0.00  0.00    +0.000 A 
ATOM      9 CL   UNL     1       3.240   2.508  17.789  0.00  0.00    +0.000 Cl
ENDBRANCH   1   2
BRANCH   1  10
ATOM     10  N   UNL     1       3.005   5.556  20.069  0.00  0.00    +0.000 NA
ATOM     11  H   UNL     1       3.822   4.947  20.130  0.00  0.00    +0.000 HD
BRANCH  10  12
ATOM     12  C   UNL     1       2.036   5.145  21.087  0.00  0.00    +0.000 C 
BRANCH  12  13
ATOM     13  C   UNL     1       1.201   3.982  20.548  0.00  0.00    +0.000 C 
BRANCH  13  14
ATOM     14  C   UNL     1       1.581   2.662  21.207  0.00  0.00    +0.000 C 
BRANCH  14  15
ATOM     15  O   UNL     1       2.992   2.516  21.209  0.00  0.00    +0.000 OA
ATOM     16  H   UNL     1       3.249   2.236  22.106  0.00  0.00    +0.000 HD
ENDBRANCH  14  15
ENDBRANCH  13  14
ENDBRANCH  12  13
ENDBRANCH  10  12
ENDBRANCH   1  10
TORSDOF 6
ENDMDL
MODEL 7
REMARK VINA RESULT:      -5.4      2.642      2.890
REMARK  Name = 
REMARK  6 active torsions:
REMARK  status: ('A' for Active; 'I' for Inactive)
REMARK    1  A    between atoms: O_1  and  C_2
REMARK    2  A    between atoms: C_2  and  C_3
REMARK    3  A    between atoms: C_3  and  C_4
REMARK    4  A    between atoms: C_4  and  N_5
REMARK    5  A    between atoms: N_5  and  C_6
REMARK    6  A    between atoms: C_6  and  C_7
REMARK                            x       y       z     vdW  Elec       q    Type
REMARK                         _______ _______ _______ _____ _____    ______ ____
ROOT
ATOM      1  C   UNL     1       5.023   4.307  19.097  0.00  0.00    +0.000 C 
ENDROOT
BRANCH   1   2
ATOM      2  C   UNL     1       5.655   4.466  17.731  0.00  0.00    +0.000 A 
ATOM      3  C   UNL     1       4.974   3.930  16.620  0.00  0.00    +0.000 A 
ATOM      4  C   UNL     1       5.471   4.081  15.326  0.00  0.00    +0.000 A 
ATOM      5  C   UNL     1       6.667   4.763  15.127  0.00  0.00    +0.000 A 
ATOM      6 CL   UNL     1       7.273   4.974  13.531  0.00  0.00    +0.000 Cl
ATOM      7  C   UNL     1       7.371   5.283  16.209  0.00  0.00    +0.000 A 
ATOM      8  C   UNL     1       6.870   5.134  17.507  0.00  0.00    +0.000 A 
ATOM      9 CL   UNL     1       7.803   5.814  18.793  0.00  0.00    +0.000 Cl
ENDBRANCH   1   2
BRANCH   1  10
ATOM     10  N   UNL     1       4.951   2.888  19.455  0.00  0.00    +0.000 NA
ATOM     11  H   UNL     1       5.186   2.336  18.629  0.00  0.00    +0.000 HD
BRANCH  10  12
ATOM     12  C   UNL     1       3.604   2.522  19.897  0.00  0.00    +0.000 C 
BRANCH  12  13
ATOM     13  C   UNL     1       2.846   1.887  18.729  0.00  0.00    +0.000 C 
BRANCH  13  14
ATOM     14  C   UNL     1       1.477   2.523  18.533  0.00  0.00    +0.000 C 
BRANCH  14  15
ATOM     15  O   UNL     1       1.558   3.545  17.552  0.00  0.00    +0.000 OA
ATOM     16  H   UNL     1       2.200   4.202  17.877  0.00  0.00    +0.000 HD
ENDBRANCH  14  15
ENDBRANCH  13  14
ENDBRANCH  12  13
ENDBRANCH  10  12
ENDBRANCH   1  10
TORSDOF 6
ENDMDL
MODEL 8
REMARK VINA RESULT:      -5.4      1.427      1.569
REMARK  Name = 
REMARK  6 active torsions:
REMARK  status: ('A' for Active; 'I' for Inactive)
REMARK    1  A    between atoms: O_1  and  C_2
REMARK    2  A    between atoms: C_2  and  C_3
REMARK    3  A    between atoms: C_3  and  C_4
REMARK    4  A    between atoms: C_4  and  N_5
REMARK    5  A    between atoms: N_5  and  C_6
REMARK    6  A    between atoms: C_6  and  C_7
REMARK                            x       y       z     vdW  Elec       q    Type
REMARK                         _______ _______ _______ _____ _____    ______ ____
ROOT
ATOM      1  C   UNL     1       2.808   3.284  17.339  0.00  0.00    +0.000 C 
ENDROOT
BRANCH   1   2
ATOM      2  C   UNL     1       3.949   4.278  17.359  0.00  0.00    +0.000 A 
ATOM      3  C   UNL     1       5.224   3.831  16.957  0.00  0.00    +0.000 A 
ATOM      4  C   UNL     1       6.312   4.702  16.904  0.00  0.00    +0.000 A 
ATOM      5  C   UNL     1       6.140   6.034  17.264  0.00  0.00    +0.000 A 
ATOM      6 CL   UNL     1       7.472   7.120  17.176  0.00  0.00    +0.000 Cl
ATOM      7  C   UNL     1       4.897   6.497  17.686  0.00  0.00    +0.000 A 
ATOM      8  C   UNL     1       3.805   5.623  17.736  0.00  0.00    +0.000 A 
ATOM      9 CL   UNL     1       2.297   6.279  18.265  0.00  0.00    +0.000 Cl
ENDBRANCH   1   2
BRANCH   1  10
ATOM     10  N   UNL     1       2.532   2.809  18.697  0.00  0.00    +0.000 NA
ATOM     11  H   UNL     1       2.817   1.831  18.760  0.00  0.00    +0.000 HD
BRANCH  10  12
ATOM     12  C   UNL     1       1.105   2.903  19.010  0.00  0.00    +0.000 C 
BRANCH  12  13
ATOM     13  C   UNL     1       0.936   3.378  20.455  0.00  0.00    +0.000 C 
BRANCH  13  14
ATOM     14  C   UNL     1       2.275   3.711  21.100  0.00  0.00    +0.000 C 
BRANCH  14  15
ATOM     15  O   UNL     1       2.685   2.639  21.935  0.00  0.00    +0.000 OA
ATOM     16  H   UNL     1       2.087   1.892  21.755  0.00  0.00    +0.000 HD
ENDBRANCH  14  15
ENDBRANCH  13  14
ENDBRANCH  12  13
ENDBRANCH  10  12
ENDBRANCH   1  10
TORSDOF 6
ENDMDL
MODEL 9
REMARK VINA RESULT:      -5.4      2.269      2.570
REMARK  Name = 
REMARK  6 active torsions:
REMARK  status: ('A' for Active; 'I' for Inactive)
REMARK    1  A    between atoms: O_1  and  C_2
REMARK    2  A    between atoms: C_2  and  C_3
REMARK    3  A    between atoms: C_3  and  C_4
REMARK    4  A    between atoms: C_4  and  N_5
REMARK    5  A    between atoms: N_5  and  C_6
REMARK    6  A    between atoms: C_6  and  C_7
REMARK                            x       y       z     vdW  Elec       q    Type
REMARK                         _______ _______ _______ _____ _____    ______ ____
ROOT
ATOM      1  C   UNL     1       5.002   4.168  19.265  0.00  0.00    +0.000 C 
ENDROOT
BRANCH   1   2
ATOM      2  C   UNL     1       5.478   4.372  17.843  0.00  0.00    +0.000 A 
ATOM      3  C   UNL     1       6.813   4.778  17.644  0.00  0.00    +0.000 A 
ATOM      4  C   UNL     1       7.335   4.939  16.360  0.00  0.00    +0.000 A 
ATOM      5  C   UNL     1       6.522   4.706  15.257  0.00  0.00    +0.000 A 
ATOM      6 CL   UNL     1       7.168   4.878  13.671  0.00  0.00    +0.000 Cl
ATOM      7  C   UNL     1       5.194   4.325  15.425  0.00  0.00    +0.000 A 
ATOM      8  C   UNL     1       4.672   4.161  16.713  0.00  0.00    +0.000 A 
ATOM      9 CL   UNL     1       3.016   3.682  16.834  0.00  0.00    +0.000 Cl
ENDBRANCH   1   2
BRANCH   1  10
ATOM     10  N   UNL     1       5.195   2.770  19.663  0.00  0.00    +0.000 NA
ATOM     11  H   UNL     1       5.412   2.226  18.827  0.00  0.00    +0.000 HD
BRANCH  10  12
ATOM     12  C   UNL     1       3.984   2.224  20.277  0.00  0.00    +0.000 C 
BRANCH  12  13
ATOM     13  C   UNL     1       2.942   3.336  20.413  0.00  0.00    +0.000 C 
BRANCH  13  14
ATOM     14  C   UNL     1       2.011   3.096  21.594  0.00  0.00    +0.000 C 
BRANCH  14  15
ATOM     15  O   UNL     1       0.701   2.818  21.123  0.00  0.00    +0.000 OA
ATOM     16  H   UNL     1       0.719   1.922  20.742  0.00  0.00    +0.000 HD
ENDBRANCH  14  15
ENDBRANCH  13  14
ENDBRANCH  12  13
ENDBRANCH  10  12
ENDBRANCH   1  10
TORSDOF 6
ENDMDL
