MODEL 1
REMARK VINA RESULT:      -9.0      0.000      0.000
REMARK  Name = 
REMARK  8 active torsions:
REMARK  status: ('A' for Active; 'I' for Inactive)
REMARK    1  A    between atoms: C_2  and  O_3
REMARK    2  A    between atoms: C_2  and  C_13
REMARK    3  A    between atoms: O_3  and  C_4
REMARK    4  A    between atoms: C_4  and  C_5
REMARK    5  A    between atoms: C_5  and  C_6
REMARK    6  A    between atoms: C_10  and  O_11
REMARK    7  A    between atoms: C_14  and  O_15
REMARK    8  A    between atoms: C_24  and  O_25
REMARK                            x       y       z     vdW  Elec       q    Type
REMARK                         _______ _______ _______ _____ _____    ______ ____
ROOT
ATOM      1  C   UNL     1       6.078   5.895  17.670  0.00  0.00    +0.000 A 
ATOM      2  C   UNL     1       6.539   4.781  18.344  0.00  0.00    +0.000 A 
ATOM      3  N   UNL     1       5.755   4.013  19.132  0.00  0.00    +0.000 NA
ATOM      4  C   UNL     1       4.454   4.327  19.262  0.00  0.00    +0.000 A 
ATOM      5  C   UNL     1       3.652   3.539  20.074  0.00  0.00    +0.000 A 
ATOM      6  C   UNL     1       2.295   3.811  20.246  0.00  0.00    +0.000 A 
ATOM      7 CL   UNL     1       1.333   2.806  21.256  0.00  0.00    +0.000 Cl
ATOM      8  C   UNL     1       1.706   4.889  19.600  0.00  0.00    +0.000 A 
ATOM      9  C   UNL     1       2.484   5.686  18.768  0.00  0.00    +0.000 A 
ATOM     10  C   UNL     1       3.863   5.419  18.589  0.00  0.00    +0.000 A 
ATOM     11  C   UNL     1       4.711   6.174  17.757  0.00  0.00    +0.000 A 
ENDROOT
BRANCH   1  13
ATOM     12  O   UNL     1       7.678   6.259  15.962  0.00  0.00    +0.000 OA
ATOM     13  C   UNL     1       7.002   6.715  16.871  0.00  0.00    +0.000 C 
BRANCH  13  14
ATOM     14  O   UNL     1       7.005   7.986  17.329  0.00  0.00    +0.000 OA
BRANCH  14  15
ATOM     15  C   UNL     1       8.252   8.478  17.843  0.00  0.00    +0.000 C 
BRANCH  15  16
ATOM     16  C   UNL     1       8.050   9.973  18.105  0.00  0.00    +0.000 C 
BRANCH  16  17
ATOM     17  C   UNL     1       9.270  10.657  18.646  0.00  0.00    +0.000 A 
ATOM     18  C   UNL     1       9.407  10.863  20.027  0.00  0.00    +0.000 A 
ATOM     19  C   UNL     1      10.531  11.517  20.532  0.00  0.00    +0.000 A 
ATOM     20  C   UNL     1      11.523  11.970  19.664  0.00  0.00    +0.000 A 
ATOM     21  C   UNL     1      11.388  11.756  18.294  0.00  0.00    +0.000 A 
ATOM     22  C   UNL     1      10.272  11.104  17.781  0.00  0.00    +0.000 A 
BRANCH  21  23
ATOM     23  O   UNL     1      12.333  12.177  17.409  0.00  0.00    +0.000 OA
ATOM     24  H   UNL     1      13.174  11.745  17.627  0.00  0.00    +0.000 HD
ENDBRANCH  21  23
ENDBRANCH  16  17
ENDBRANCH  15  16
ENDBRANCH  14  15
ENDBRANCH  13  14
ENDBRANCH   1  13
BRANCH   2  25
ATOM     25  O   UNL     1       7.832   4.342  18.264  0.00  0.00    +0.000 OA
ATOM     26  H   UNL     1       8.082   4.278  17.320  0.00  0.00    +0.000 HD
ENDBRANCH   2  25
BRANCH  11  27
ATOM     27  O   UNL     1       4.192   7.148  16.944  0.00  0.00    +0.000 OA
ATOM     28  H   UNL     1       4.524   7.066  16.039  0.00  0.00    +0.000 HD
ENDBRANCH  11  27
TORSDOF 8
ENDMDL
MODEL 2
REMARK VINA RESULT:      -8.5      1.124      1.465
REMARK  Name = 
REMARK  8 active torsions:
REMARK  status: ('A' for Active; 'I' for Inactive)
REMARK    1  A    between atoms: C_2  and  O_3
REMARK    2  A    between atoms: C_2  and  C_13
REMARK    3  A    between atoms: O_3  and  C_4
REMARK    4  A    between atoms: C_4  and  C_5
REMARK    5  A    between atoms: C_5  and  C_6
REMARK    6  A    between atoms: C_10  and  O_11
REMARK    7  A    between atoms: C_14  and  O_15
REMARK    8  A    between atoms: C_24  and  O_25
REMARK                            x       y       z     vdW  Elec       q    Type
REMARK                         _______ _______ _______ _____ _____    ______ ____
ROOT
ATOM      1  C   UNL     1       6.020   5.858  17.718  0.00  0.00    +0.000 A 
ATOM      2  C   UNL     1       6.464   4.699  18.325  0.00  0.00    +0.000 A 
ATOM      3  N   UNL     1       5.680   3.922  19.103  0.00  0.00    +0.000 NA
ATOM      4  C   UNL     1       4.395   4.273  19.292  0.00  0.00    +0.000 A 
ATOM      5  C   UNL     1       3.594   3.474  20.095  0.00  0.00    +0.000 A 
ATOM      6  C   UNL     1       2.253   3.783  20.325  0.00  0.00    +0.000 A 
ATOM      7 CL   UNL     1       1.291   2.764  21.321  0.00  0.00    +0.000 Cl
ATOM      8  C   UNL     1       1.682   4.908  19.750  0.00  0.00    +0.000 A 
ATOM      9  C   UNL     1       2.459   5.717  18.929  0.00  0.00    +0.000 A 
ATOM     10  C   UNL     1       3.822   5.413  18.690  0.00  0.00    +0.000 A 
ATOM     11  C   UNL     1       4.667   6.178  17.866  0.00  0.00    +0.000 A 
ENDROOT
BRANCH   1  13
ATOM     12  O   UNL     1       7.637   6.230  16.028  0.00  0.00    +0.000 OA
ATOM     13  C   UNL     1       6.946   6.684  16.927  0.00  0.00    +0.000 C 
BRANCH  13  14
ATOM     14  O   UNL     1       6.929   7.957  17.377  0.00  0.00    +0.000 OA
BRANCH  14  15
ATOM     15  C   UNL     1       8.078   8.386  18.124  0.00  0.00    +0.000 C 
BRANCH  15  16
ATOM     16  C   UNL     1       8.567   9.676  17.459  0.00  0.00    +0.000 C 
BRANCH  16  17
ATOM     17  C   UNL     1       9.369  10.554  18.373  0.00  0.00    +0.000 A 
ATOM     18  C   UNL     1      10.407  11.344  17.858  0.00  0.00    +0.000 A 
ATOM     19  C   UNL     1      11.169  12.146  18.708  0.00  0.00    +0.000 A 
ATOM     20  C   UNL     1      10.901  12.163  20.076  0.00  0.00    +0.000 A 
ATOM     21  C   UNL     1       9.864  11.384  20.583  0.00  0.00    +0.000 A 
ATOM     22  C   UNL     1       9.098  10.583  19.744  0.00  0.00    +0.000 A 
BRANCH  21  23
ATOM     23  O   UNL     1       9.564  11.372  21.911  0.00  0.00    +0.000 OA
ATOM     24  H   UNL     1       9.842  10.520  22.283  0.00  0.00    +0.000 HD
ENDBRANCH  21  23
ENDBRANCH  16  17
ENDBRANCH  15  16
ENDBRANCH  14  15
ENDBRANCH  13  14
ENDBRANCH   1  13
BRANCH   2  25
ATOM     25  O   UNL     1       7.738   4.222  18.181  0.00  0.00    +0.000 OA
ATOM     26  H   UNL     1       8.258   4.480  18.967  0.00  0.00    +0.000 HD
ENDBRANCH   2  25
BRANCH  11  27
ATOM     27  O   UNL     1       4.155   7.206  17.115  0.00  0.00    +0.000 OA
ATOM     28  H   UNL     1       3.366   6.929  16.629  0.00  0.00    +0.000 HD
ENDBRANCH  11  27
TORSDOF 8
ENDMDL
MODEL 3
REMARK VINA RESULT:      -8.5      1.239      1.434
REMARK  Name = 
REMARK  8 active torsions:
REMARK  status: ('A' for Active; 'I' for Inactive)
REMARK    1  A    between atoms: C_2  and  O_3
REMARK    2  A    between atoms: C_2  and  C_13
REMARK    3  A    between atoms: O_3  and  C_4
REMARK    4  A    between atoms: C_4  and  C_5
REMARK    5  A    between atoms: C_5  and  C_6
REMARK    6  A    between atoms: C_10  and  O_11
REMARK    7  A    between atoms: C_14  and  O_15
REMARK    8  A    between atoms: C_24  and  O_25
REMARK                            x       y       z     vdW  Elec       q    Type
REMARK                         _______ _______ _______ _____ _____    ______ ____
ROOT
ATOM      1  C   UNL     1       6.309   5.767  17.922  0.00  0.00    +0.000 A 
ATOM      2  C   UNL     1       6.475   5.309  19.215  0.00  0.00    +0.000 A 
ATOM      3  N   UNL     1       5.502   4.677  19.908  0.00  0.00    +0.000 NA
ATOM      4  C   UNL     1       4.314   4.460  19.317  0.00  0.00    +0.000 A 
ATOM      5  C   UNL     1       3.317   3.813  20.032  0.00  0.00    +0.000 A 
ATOM      6  C   UNL     1       2.066   3.555  19.472  0.00  0.00    +0.000 A 
ATOM      7 CL   UNL     1       0.859   2.745  20.390  0.00  0.00    +0.000 Cl
ATOM      8  C   UNL     1       1.785   3.943  18.170  0.00  0.00    +0.000 A 
ATOM      9  C   UNL     1       2.772   4.579  17.425  0.00  0.00    +0.000 A 
ATOM     10  C   UNL     1       4.045   4.847  17.986  0.00  0.00    +0.000 A 
ATOM     11  C   UNL     1       5.094   5.477  17.293  0.00  0.00    +0.000 A 
ENDROOT
BRANCH   1  13
ATOM     12  O   UNL     1       7.738   6.260  16.099  0.00  0.00    +0.000 OA
ATOM     13  C   UNL     1       7.395   6.495  17.247  0.00  0.00    +0.000 C 
BRANCH  13  14
ATOM     14  O   UNL     1       7.946   7.391  18.094  0.00  0.00    +0.000 OA
BRANCH  14  15
ATOM     15  C   UNL     1       8.096   8.731  17.599  0.00  0.00    +0.000 C 
BRANCH  15  16
ATOM     16  C   UNL     1       8.730   9.540  18.734  0.00  0.00    +0.000 C 
BRANCH  16  17
ATOM     17  C   UNL     1       9.240  10.883  18.299  0.00  0.00    +0.000 A 
ATOM     18  C   UNL     1       8.376  11.986  18.267  0.00  0.00    +0.000 A 
ATOM     19  C   UNL     1       8.842  13.232  17.843  0.00  0.00    +0.000 A 
ATOM     20  C   UNL     1      10.170  13.381  17.448  0.00  0.00    +0.000 A 
ATOM     21  C   UNL     1      11.028  12.285  17.490  0.00  0.00    +0.000 A 
ATOM     22  C   UNL     1      10.573  11.040  17.912  0.00  0.00    +0.000 A 
BRANCH  21  23
ATOM     23  O   UNL     1      12.333  12.385  17.117  0.00  0.00    +0.000 OA
ATOM     24  H   UNL     1      12.397  13.013  16.380  0.00  0.00    +0.000 HD
ENDBRANCH  21  23
ENDBRANCH  16  17
ENDBRANCH  15  16
ENDBRANCH  14  15
ENDBRANCH  13  14
ENDBRANCH   1  13
BRANCH   2  25
ATOM     25  O   UNL     1       7.645   5.440  19.910  0.00  0.00    +0.000 OA
ATOM     26  H   UNL     1       7.495   6.047  20.662  0.00  0.00    +0.000 HD
ENDBRANCH   2  25
BRANCH  11  27
ATOM     27  O   UNL     1       4.977   5.740  15.952  0.00  0.00    +0.000 OA
ATOM     28  H   UNL     1       4.453   5.061  15.504  0.00  0.00    +0.000 HD
ENDBRANCH  11  27
TORSDOF 8
ENDMDL
MODEL 4
REMARK VINA RESULT:      -8.3      1.555      1.679
REMARK  Name = 
REMARK  8 active torsions:
REMARK  status: ('A' for Active; 'I' for Inactive)
REMARK    1  A    between atoms: C_2  and  O_3
REMARK    2  A    between atoms: C_2  and  C_13
REMARK    3  A    between atoms: O_3  and  C_4
REMARK    4  A    between atoms: C_4  and  C_5
REMARK    5  A    between atoms: C_5  and  C_6
REMARK    6  A    between atoms: C_10  and  O_11
REMARK    7  A    between atoms: C_14  and  O_15
REMARK    8  A    between atoms: C_24  and  O_25
REMARK                            x       y       z     vdW  Elec       q    Type
REMARK                         _______ _______ _______ _____ _____    ______ ____
ROOT
ATOM      1  C   UNL     1       6.439   6.132  18.021  0.00  0.00    +0.000 A 
ATOM      2  C   UNL     1       6.688   5.349  19.131  0.00  0.00    +0.000 A 
ATOM      3  N   UNL     1       5.729   4.649  19.776  0.00  0.00    +0.000 NA
ATOM      4  C   UNL     1       4.467   4.693  19.314  0.00  0.00    +0.000 A 
ATOM      5  C   UNL     1       3.484   3.974  19.980  0.00  0.00    +0.000 A 
ATOM      6  C   UNL     1       2.158   3.977  19.546  0.00  0.00    +0.000 A 
ATOM      7 CL   UNL     1       0.971   3.068  20.396  0.00  0.00    +0.000 Cl
ATOM      8  C   UNL     1       1.785   4.704  18.426  0.00  0.00    +0.000 A 
ATOM      9  C   UNL     1       2.753   5.420  17.731  0.00  0.00    +0.000 A 
ATOM     10  C   UNL     1       4.102   5.426  18.164  0.00  0.00    +0.000 A 
ATOM     11  C   UNL     1       5.137   6.117  17.508  0.00  0.00    +0.000 A 
ENDROOT
BRANCH   1  13
ATOM     12  O   UNL     1       7.832   6.798  16.226  0.00  0.00    +0.000 OA
ATOM     13  C   UNL     1       7.523   6.910  17.402  0.00  0.00    +0.000 C 
BRANCH  13  14
ATOM     14  O   UNL     1       8.114   7.696  18.327  0.00  0.00    +0.000 OA
BRANCH  14  15
ATOM     15  C   UNL     1       8.136   9.105  18.050  0.00  0.00    +0.000 C 
BRANCH  15  16
ATOM     16  C   UNL     1       9.291   9.687  18.870  0.00  0.00    +0.000 C 
BRANCH  16  17
ATOM     17  C   UNL     1       9.469  11.166  18.689  0.00  0.00    +0.000 A 
ATOM     18  C   UNL     1      10.555  11.822  19.286  0.00  0.00    +0.000 A 
ATOM     19  C   UNL     1      10.712  13.200  19.137  0.00  0.00    +0.000 A 
ATOM     20  C   UNL     1       9.785  13.931  18.395  0.00  0.00    +0.000 A 
ATOM     21  C   UNL     1       8.712  13.274  17.796  0.00  0.00    +0.000 A 
ATOM     22  C   UNL     1       8.549  11.901  17.937  0.00  0.00    +0.000 A 
BRANCH  21  23
ATOM     23  O   UNL     1       7.786  13.946  17.059  0.00  0.00    +0.000 OA
ATOM     24  H   UNL     1       8.046  14.880  17.014  0.00  0.00    +0.000 HD
ENDBRANCH  21  23
ENDBRANCH  16  17
ENDBRANCH  15  16
ENDBRANCH  14  15
ENDBRANCH  13  14
ENDBRANCH   1  13
BRANCH   2  25
ATOM     25  O   UNL     1       7.934   5.198  19.674  0.00  0.00    +0.000 OA
ATOM     26  H   UNL     1       8.310   6.085  19.842  0.00  0.00    +0.000 HD
ENDBRANCH   2  25
BRANCH  11  27
ATOM     27  O   UNL     1       4.907   6.720  16.298  0.00  0.00    +0.000 OA
ATOM     28  H   UNL     1       4.100   7.253  16.317  0.00  0.00    +0.000 HD
ENDBRANCH  11  27
TORSDOF 8
ENDMDL
MODEL 5
REMARK VINA RESULT:      -8.3      1.330      1.662
REMARK  Name = 
REMARK  8 active torsions:
REMARK  status: ('A' for Active; 'I' for Inactive)
REMARK    1  A    between atoms: C_2  and  O_3
REMARK    2  A    between atoms: C_2  and  C_13
REMARK    3  A    between atoms: O_3  and  C_4
REMARK    4  A    between atoms: C_4  and  C_5
REMARK    5  A    between atoms: C_5  and  C_6
REMARK    6  A    between atoms: C_10  and  O_11
REMARK    7  A    between atoms: C_14  and  O_15
REMARK    8  A    between atoms: C_24  and  O_25
REMARK                            x       y       z     vdW  Elec       q    Type
REMARK                         _______ _______ _______ _____ _____    ______ ____
ROOT
ATOM      1  C   UNL     1       6.467   6.209  18.093  0.00  0.00    +0.000 A 
ATOM      2  C   UNL     1       6.715   5.440  19.213  0.00  0.00    +0.000 A 
ATOM      3  N   UNL     1       5.767   4.705  19.834  0.00  0.00    +0.000 NA
ATOM      4  C   UNL     1       4.517   4.698  19.337  0.00  0.00    +0.000 A 
ATOM      5  C   UNL     1       3.545   3.944  19.979  0.00  0.00    +0.000 A 
ATOM      6  C   UNL     1       2.233   3.893  19.509  0.00  0.00    +0.000 A 
ATOM      7 CL   UNL     1       1.059   2.942  20.330  0.00  0.00    +0.000 Cl
ATOM      8  C   UNL     1       1.863   4.601  18.375  0.00  0.00    +0.000 A 
ATOM      9  C   UNL     1       2.822   5.351  17.704  0.00  0.00    +0.000 A 
ATOM     10  C   UNL     1       4.157   5.412  18.174  0.00  0.00    +0.000 A 
ATOM     11  C   UNL     1       5.182   6.141  17.544  0.00  0.00    +0.000 A 
ENDROOT
BRANCH   1  13
ATOM     12  O   UNL     1       7.835   6.972  16.317  0.00  0.00    +0.000 OA
ATOM     13  C   UNL     1       7.536   7.026  17.500  0.00  0.00    +0.000 C 
BRANCH  13  14
ATOM     14  O   UNL     1       8.129   7.774  18.456  0.00  0.00    +0.000 OA
BRANCH  14  15
ATOM     15  C   UNL     1       8.404   9.143  18.118  0.00  0.00    +0.000 C 
BRANCH  15  16
ATOM     16  C   UNL     1       9.088   9.759  19.341  0.00  0.00    +0.000 C 
BRANCH  16  17
ATOM     17  C   UNL     1       9.763  11.068  19.055  0.00  0.00    +0.000 A 
ATOM     18  C   UNL     1      10.167  11.380  17.748  0.00  0.00    +0.000 A 
ATOM     19  C   UNL     1      10.813  12.587  17.481  0.00  0.00    +0.000 A 
ATOM     20  C   UNL     1      11.060  13.489  18.516  0.00  0.00    +0.000 A 
ATOM     21  C   UNL     1      10.650  13.180  19.810  0.00  0.00    +0.000 A 
ATOM     22  C   UNL     1      10.004  11.980  20.086  0.00  0.00    +0.000 A 
BRANCH  21  23
ATOM     23  O   UNL     1      10.866  14.031  20.850  0.00  0.00    +0.000 OA
ATOM     24  H   UNL     1      10.520  13.624  21.660  0.00  0.00    +0.000 HD
ENDBRANCH  21  23
ENDBRANCH  16  17
ENDBRANCH  15  16
ENDBRANCH  14  15
ENDBRANCH  13  14
ENDBRANCH   1  13
BRANCH   2  25
ATOM     25  O   UNL     1       7.951   5.340  19.791  0.00  0.00    +0.000 OA
ATOM     26  H   UNL     1       8.377   6.220  19.770  0.00  0.00    +0.000 HD
ENDBRANCH   2  25
BRANCH  11  27
ATOM     27  O   UNL     1       4.962   6.730  16.325  0.00  0.00    +0.000 OA
ATOM     28  H   UNL     1       5.145   7.680  16.355  0.00  0.00    +0.000 HD
ENDBRANCH  11  27
TORSDOF 8
ENDMDL
MODEL 6
REMARK VINA RESULT:      -8.2      1.342      1.664
REMARK  Name = 
REMARK  8 active torsions:
REMARK  status: ('A' for Active; 'I' for Inactive)
REMARK    1  A    between atoms: C_2  and  O_3
REMARK    2  A    between atoms: C_2  and  C_13
REMARK    3  A    between atoms: O_3  and  C_4
REMARK    4  A    between atoms: C_4  and  C_5
REMARK    5  A    between atoms: C_5  and  C_6
REMARK    6  A    between atoms: C_10  and  O_11
REMARK    7  A    between atoms: C_14  and  O_15
REMARK    8  A    between atoms: C_24  and  O_25
REMARK                            x       y       z     vdW  Elec       q    Type
REMARK                         _______ _______ _______ _____ _____    ______ ____
ROOT
ATOM      1  C   UNL     1       5.296   5.746  17.591  0.00  0.00    +0.000 A 
ATOM      2  C   UNL     1       5.816   4.523  17.966  0.00  0.00    +0.000 A 
ATOM      3  N   UNL     1       5.213   3.701  18.852  0.00  0.00    +0.000 NA
ATOM      4  C   UNL     1       4.037   4.071  19.391  0.00  0.00    +0.000 A 
ATOM      5  C   UNL     1       3.422   3.225  20.303  0.00  0.00    +0.000 A 
ATOM      6  C   UNL     1       2.201   3.552  20.892  0.00  0.00    +0.000 A 
ATOM      7 CL   UNL     1       1.468   2.474  22.014  0.00  0.00    +0.000 Cl
ATOM      8  C   UNL     1       1.564   4.743  20.577  0.00  0.00    +0.000 A 
ATOM      9  C   UNL     1       2.151   5.601  19.655  0.00  0.00    +0.000 A 
ATOM     10  C   UNL     1       3.392   5.279  19.052  0.00  0.00    +0.000 A 
ATOM     11  C   UNL     1       4.041   6.092  18.105  0.00  0.00    +0.000 A 
ENDROOT
BRANCH   1  13
ATOM     12  O   UNL     1       5.625   6.889  15.543  0.00  0.00    +0.000 OA
ATOM     13  C   UNL     1       6.034   6.614  16.660  0.00  0.00    +0.000 C 
BRANCH  13  14
ATOM     14  O   UNL     1       7.206   6.994  17.215  0.00  0.00    +0.000 OA
BRANCH  14  15
ATOM     15  C   UNL     1       7.391   8.404  17.415  0.00  0.00    +0.000 C 
BRANCH  15  16
ATOM     16  C   UNL     1       8.478   8.548  18.483  0.00  0.00    +0.000 C 
BRANCH  16  17
ATOM     17  C   UNL     1       8.889   9.970  18.732  0.00  0.00    +0.000 A 
ATOM     18  C   UNL     1       8.683  10.944  17.745  0.00  0.00    +0.000 A 
ATOM     19  C   UNL     1       9.083  12.263  17.964  0.00  0.00    +0.000 A 
ATOM     20  C   UNL     1       9.691  12.615  19.168  0.00  0.00    +0.000 A 
ATOM     21  C   UNL     1       9.885  11.646  20.150  0.00  0.00    +0.000 A 
ATOM     22  C   UNL     1       9.489  10.330  19.941  0.00  0.00    +0.000 A 
BRANCH  21  23
ATOM     23  O   UNL     1      10.470  11.946  21.342  0.00  0.00    +0.000 OA
ATOM     24  H   UNL     1      11.159  11.287  21.523  0.00  0.00    +0.000 HD
ENDBRANCH  21  23
ENDBRANCH  16  17
ENDBRANCH  15  16
ENDBRANCH  14  15
ENDBRANCH  13  14
ENDBRANCH   1  13
BRANCH   2  25
ATOM     25  O   UNL     1       6.985   4.023  17.463  0.00  0.00    +0.000 OA
ATOM     26  H   UNL     1       7.731   4.510  17.865  0.00  0.00    +0.000 HD
ENDBRANCH   2  25
BRANCH  11  27
ATOM     27  O   UNL     1       3.413   7.200  17.597  0.00  0.00    +0.000 OA
ATOM     28  H   UNL     1       2.503   7.000  17.335  0.00  0.00    +0.000 HD
ENDBRANCH  11  27
TORSDOF 8
ENDMDL
MODEL 7
REMARK VINA RESULT:      -8.1      3.705      6.959
REMARK  Name = 
REMARK  8 active torsions:
REMARK  status: ('A' for Active; 'I' for Inactive)
REMARK    1  A    between atoms: C_2  and  O_3
REMARK    2  A    between atoms: C_2  and  C_13
REMARK    3  A    between atoms: O_3  and  C_4
REMARK    4  A    between atoms: C_4  and  C_5
REMARK    5  A    between atoms: C_5  and  C_6
REMARK    6  A    between atoms: C_10  and  O_11
REMARK    7  A    between atoms: C_14  and  O_15
REMARK    8  A    between atoms: C_24  and  O_25
REMARK                            x       y       z     vdW  Elec       q    Type
REMARK                         _______ _______ _______ _____ _____    ______ ____
ROOT
ATOM      1  C   UNL     1       6.002   5.675  17.537  0.00  0.00    +0.000 A 
ATOM      2  C   UNL     1       6.443   4.524  18.161  0.00  0.00    +0.000 A 
ATOM      3  N   UNL     1       5.672   3.788  18.990  0.00  0.00    +0.000 NA
ATOM      4  C   UNL     1       4.403   4.172  19.215  0.00  0.00    +0.000 A 
ATOM      5  C   UNL     1       3.615   3.415  20.070  0.00  0.00    +0.000 A 
ATOM      6  C   UNL     1       2.291   3.760  20.340  0.00  0.00    +0.000 A 
ATOM      7 CL   UNL     1       1.345   2.792  21.400  0.00  0.00    +0.000 Cl
ATOM      8  C   UNL     1       1.722   4.881  19.753  0.00  0.00    +0.000 A 
ATOM      9  C   UNL     1       2.485   5.648  18.880  0.00  0.00    +0.000 A 
ATOM     10  C   UNL     1       3.832   5.307  18.601  0.00  0.00    +0.000 A 
ATOM     11  C   UNL     1       4.661   6.029  17.724  0.00  0.00    +0.000 A 
ENDROOT
BRANCH   1  13
ATOM     12  O   UNL     1       7.155   7.637  16.884  0.00  0.00    +0.000 OA
ATOM     13  C   UNL     1       6.914   6.457  16.688  0.00  0.00    +0.000 C 
BRANCH  13  14
ATOM     14  O   UNL     1       7.378   5.688  15.679  0.00  0.00    +0.000 OA
BRANCH  14  15
ATOM     15  C   UNL     1       6.391   5.033  14.867  0.00  0.00    +0.000 C 
BRANCH  15  16
ATOM     16  C   UNL     1       7.088   4.663  13.555  0.00  0.00    +0.000 C 
BRANCH  16  17
ATOM     17  C   UNL     1       6.264   3.777  12.668  0.00  0.00    +0.000 A 
ATOM     18  C   UNL     1       4.944   4.128  12.355  0.00  0.00    +0.000 A 
ATOM     19  C   UNL     1       4.168   3.296  11.547  0.00  0.00    +0.000 A 
ATOM     20  C   UNL     1       4.704   2.110  11.050  0.00  0.00    +0.000 A 
ATOM     21  C   UNL     1       6.020   1.768  11.356  0.00  0.00    +0.000 A 
ATOM     22  C   UNL     1       6.801   2.592  12.159  0.00  0.00    +0.000 A 
BRANCH  21  23
ATOM     23  O   UNL     1       6.587   0.622  10.889  0.00  0.00    +0.000 OA
ATOM     24  H   UNL     1       5.899   0.092  10.456  0.00  0.00    +0.000 HD
ENDBRANCH  21  23
ENDBRANCH  16  17
ENDBRANCH  15  16
ENDBRANCH  14  15
ENDBRANCH  13  14
ENDBRANCH   1  13
BRANCH   2  25
ATOM     25  O   UNL     1       7.700   4.015  17.985  0.00  0.00    +0.000 OA
ATOM     26  H   UNL     1       8.207   4.625  17.413  0.00  0.00    +0.000 HD
ENDBRANCH   2  25
BRANCH  11  27
ATOM     27  O   UNL     1       4.144   7.045  16.962  0.00  0.00    +0.000 OA
ATOM     28  H   UNL     1       3.412   6.736  16.411  0.00  0.00    +0.000 HD
ENDBRANCH  11  27
TORSDOF 8
ENDMDL
MODEL 8
REMARK VINA RESULT:      -8.0      0.986      1.209
REMARK  Name = 
REMARK  8 active torsions:
REMARK  status: ('A' for Active; 'I' for Inactive)
REMARK    1  A    between atoms: C_2  and  O_3
REMARK    2  A    between atoms: C_2  and  C_13
REMARK    3  A    between atoms: O_3  and  C_4
REMARK    4  A    between atoms: C_4  and  C_5
REMARK    5  A    between atoms: C_5  and  C_6
REMARK    6  A    between atoms: C_10  and  O_11
REMARK    7  A    between atoms: C_14  and  O_15
REMARK    8  A    between atoms: C_24  and  O_25
REMARK                            x       y       z     vdW  Elec       q    Type
REMARK                         _______ _______ _______ _____ _____    ______ ____
ROOT
ATOM      1  C   UNL     1       5.662   5.869  17.940  0.00  0.00    +0.000 A 
ATOM      2  C   UNL     1       6.203   4.738  18.518  0.00  0.00    +0.000 A 
ATOM      3  N   UNL     1       5.511   3.920  19.340  0.00  0.00    +0.000 NA
ATOM      4  C   UNL     1       4.222   4.199  19.605  0.00  0.00    +0.000 A 
ATOM      5  C   UNL     1       3.514   3.359  20.452  0.00  0.00    +0.000 A 
ATOM      6  C   UNL     1       2.174   3.594  20.761  0.00  0.00    +0.000 A 
ATOM      7 CL   UNL     1       1.330   2.525  21.810  0.00  0.00    +0.000 Cl
ATOM      8  C   UNL     1       1.509   4.685  20.222  0.00  0.00    +0.000 A 
ATOM      9  C   UNL     1       2.190   5.534  19.358  0.00  0.00    +0.000 A 
ATOM     10  C   UNL     1       3.551   5.305  19.039  0.00  0.00    +0.000 A 
ATOM     11  C   UNL     1       4.303   6.114  18.167  0.00  0.00    +0.000 A 
ENDROOT
BRANCH   1  13
ATOM     12  O   UNL     1       6.346   6.832  15.888  0.00  0.00    +0.000 OA
ATOM     13  C   UNL     1       6.492   6.744  17.097  0.00  0.00    +0.000 C 
BRANCH  13  14
ATOM     14  O   UNL     1       7.424   7.363  17.852  0.00  0.00    +0.000 OA
BRANCH  14  15
ATOM     15  C   UNL     1       7.932   8.608  17.347  0.00  0.00    +0.000 C 
BRANCH  15  16
ATOM     16  C   UNL     1       8.587   9.320  18.535  0.00  0.00    +0.000 C 
BRANCH  16  17
ATOM     17  C   UNL     1       9.131  10.675  18.194  0.00  0.00    +0.000 A 
ATOM     18  C   UNL     1       8.267  11.774  18.085  0.00  0.00    +0.000 A 
ATOM     19  C   UNL     1       8.767  13.032  17.748  0.00  0.00    +0.000 A 
ATOM     20  C   UNL     1      10.131  13.200  17.517  0.00  0.00    +0.000 A 
ATOM     21  C   UNL     1      10.989  12.109  17.635  0.00  0.00    +0.000 A 
ATOM     22  C   UNL     1      10.500  10.852  17.972  0.00  0.00    +0.000 A 
BRANCH  21  23
ATOM     23  O   UNL     1      12.328  12.227  17.423  0.00  0.00    +0.000 OA
ATOM     24  H   UNL     1      12.479  12.959  16.804  0.00  0.00    +0.000 HD
ENDBRANCH  21  23
ENDBRANCH  16  17
ENDBRANCH  15  16
ENDBRANCH  14  15
ENDBRANCH  13  14
ENDBRANCH   1  13
BRANCH   2  25
ATOM     25  O   UNL     1       7.491   4.331  18.299  0.00  0.00    +0.000 OA
ATOM     26  H   UNL     1       7.630   4.243  17.334  0.00  0.00    +0.000 HD
ENDBRANCH   2  25
BRANCH  11  27
ATOM     27  O   UNL     1       3.693   7.111  17.450  0.00  0.00    +0.000 OA
ATOM     28  H   UNL     1       4.164   7.951  17.542  0.00  0.00    +0.000 HD
ENDBRANCH  11  27
TORSDOF 8
ENDMDL
MODEL 9
REMARK VINA RESULT:      -8.0      5.293      7.447
REMARK  Name = 
REMARK  8 active torsions:
REMARK  status: ('A' for Active; 'I' for Inactive)
REMARK    1  A    between atoms: C_2  and  O_3
REMARK    2  A    between atoms: C_2  and  C_13
REMARK    3  A    between atoms: O_3  and  C_4
REMARK    4  A    between atoms: C_4  and  C_5
REMARK    5  A    between atoms: C_5  and  C_6
REMARK    6  A    between atoms: C_10  and  O_11
REMARK    7  A    between atoms: C_14  and  O_15
REMARK    8  A    between atoms: C_24  and  O_25
REMARK                            x       y       z     vdW  Elec       q    Type
REMARK                         _______ _______ _______ _____ _____    ______ ____
ROOT
ATOM      1  C   UNL     1       1.808   8.388  19.230  0.00  0.00    +0.000 A 
ATOM      2  C   UNL     1       1.482   9.579  18.612  0.00  0.00    +0.000 A 
ATOM      3  N   UNL     1       0.746  10.545  19.203  0.00  0.00    +0.000 NA
ATOM      4  C   UNL     1       0.316  10.358  20.464  0.00  0.00    +0.000 A 
ATOM      5  C   UNL     1      -0.443  11.350  21.068  0.00  0.00    +0.000 A 
ATOM      6  C   UNL     1      -0.914  11.216  22.374  0.00  0.00    +0.000 A 
ATOM      7 CL   UNL     1      -1.846  12.472  23.088  0.00  0.00    +0.000 Cl
ATOM      8  C   UNL     1      -0.631  10.075  23.110  0.00  0.00    +0.000 A 
ATOM      9  C   UNL     1       0.140   9.072  22.534  0.00  0.00    +0.000 A 
ATOM     10  C   UNL     1       0.622   9.198  21.208  0.00  0.00    +0.000 A 
ATOM     11  C   UNL     1       1.414   8.231  20.562  0.00  0.00    +0.000 A 
ENDROOT
BRANCH   1  13
ATOM     12  O   UNL     1       3.430   7.626  17.681  0.00  0.00    +0.000 OA
ATOM     13  C   UNL     1       2.569   7.358  18.504  0.00  0.00    +0.000 C 
BRANCH  13  14
ATOM     14  O   UNL     1       2.137   6.129  18.860  0.00  0.00    +0.000 OA
BRANCH  14  15
ATOM     15  C   UNL     1       2.196   5.113  17.847  0.00  0.00    +0.000 C 
BRANCH  15  16
ATOM     16  C   UNL     1       3.221   4.083  18.329  0.00  0.00    +0.000 C 
BRANCH  16  17
ATOM     17  C   UNL     1       4.583   4.265  17.726  0.00  0.00    +0.000 A 
ATOM     18  C   UNL     1       4.760   4.145  16.340  0.00  0.00    +0.000 A 
ATOM     19  C   UNL     1       6.029   4.294  15.778  0.00  0.00    +0.000 A 
ATOM     20  C   UNL     1       7.126   4.561  16.595  0.00  0.00    +0.000 A 
ATOM     21  C   UNL     1       6.945   4.688  17.971  0.00  0.00    +0.000 A 
ATOM     22  C   UNL     1       5.684   4.543  18.540  0.00  0.00    +0.000 A 
BRANCH  21  23
ATOM     23  O   UNL     1       7.986   4.952  18.806  0.00  0.00    +0.000 OA
ATOM     24  H   UNL     1       8.306   4.114  19.176  0.00  0.00    +0.000 HD
ENDBRANCH  21  23
ENDBRANCH  16  17
ENDBRANCH  15  16
ENDBRANCH  14  15
ENDBRANCH  13  14
ENDBRANCH   1  13
BRANCH   2  25
ATOM     25  O   UNL     1       1.889   9.899  17.346  0.00  0.00    +0.000 OA
ATOM     26  H   UNL     1       2.249   9.095  16.921  0.00  0.00    +0.000 HD
ENDBRANCH   2  25
BRANCH  11  27
ATOM     27  O   UNL     1       1.893   7.152  21.260  0.00  0.00    +0.000 OA
ATOM     28  H   UNL     1       1.177   6.666  21.693  0.00  0.00    +0.000 HD
ENDBRANCH  11  27
TORSDOF 8
ENDMDL
