MODEL 1
REMARK VINA RESULT:      -8.7      0.000      0.000
REMARK  Name = 
REMARK  8 active torsions:
REMARK  status: ('A' for Active; 'I' for Inactive)
REMARK    1  A    between atoms: C_1  and  O_2
REMARK    2  A    between atoms: O_2  and  C_3
REMARK    3  A    between atoms: C_8  and  C_9
REMARK    4  A    between atoms: C_9  and  N_10
REMARK    5  A    between atoms: N_10  and  C_11
REMARK    6  A    between atoms: C_14  and  C_15
REMARK    7  A    between atoms: C_17  and  C_18
REMARK    8  A    between atoms: C_27  and  N_28
REMARK                            x       y       z     vdW  Elec       q    Type
REMARK                         _______ _______ _______ _____ _____    ______ ____
ROOT
ATOM      1  C   UNL     1       2.470   5.213  19.019  0.00  0.00    +0.000 A 
ATOM      2  C   UNL     1       2.704   6.549  18.668  0.00  0.00    +0.000 A 
ATOM      3  C   UNL     1       2.223   7.616  19.431  0.00  0.00    +0.000 A 
ATOM      4  C   UNL     1       1.490   7.392  20.599  0.00  0.00    +0.000 A 
ATOM      5  C   UNL     1       1.347   6.078  21.046  0.00  0.00    +0.000 A 
ATOM      6  C   UNL     1       1.863   5.013  20.279  0.00  0.00    +0.000 A 
ENDROOT
BRANCH   4   7
ATOM      7  C   UNL     1       0.864   8.492  21.315  0.00  0.00    +0.000 A 
ATOM      8  N   UNL     1      -0.171   9.230  20.989  0.00  0.00    +0.000 NA
ATOM      9  C   UNL     1      -0.189  10.181  21.997  0.00  0.00    +0.000 A 
ATOM     10  N   UNL     1       0.784  10.020  22.910  0.00  0.00    +0.000 NA
ATOM     11  O   UNL     1       1.477   8.906  22.460  0.00  0.00    +0.000 OA
BRANCH   9  12
ATOM     12  C   UNL     1      -1.177  11.261  22.028  0.00  0.00    +0.000 A 
ATOM     13  C   UNL     1      -1.382  12.044  20.894  0.00  0.00    +0.000 A 
ATOM     14  C   UNL     1      -2.326  13.065  20.945  0.00  0.00    +0.000 A 
ATOM     15  C   UNL     1      -3.034  13.278  22.123  0.00  0.00    +0.000 A 
ATOM     16  C   UNL     1      -2.767  12.458  23.206  0.00  0.00    +0.000 A 
ATOM     17  N   UNL     1      -1.860  11.460  23.186  0.00  0.00    +0.000 NA
ENDBRANCH   9  12
ENDBRANCH   4   7
BRANCH   6  18
ATOM     18  N   UNL     1       1.752   3.683  20.863  0.00  0.00    +0.000 N 
ATOM     19  O   UNL     1       1.216   2.795  20.179  0.00  0.00    +0.000 OA
ATOM     20  O   UNL     1       2.185   3.531  22.015  0.00  0.00    +0.000 OA
ENDBRANCH   6  18
BRANCH   1  21
ATOM     21  N   UNL     1       2.956   4.176  18.208  0.00  0.00    +0.000 N 
ATOM     22  H   UNL     1       2.749   4.326  17.219  0.00  0.00    +0.000 HD
BRANCH  21  23
ATOM     23  C   UNL     1       4.350   3.715  18.385  0.00  0.00    +0.000 C 
BRANCH  23  29
ATOM     24  C   UNL     1       6.622   4.517  17.468  0.00  0.00    +0.000 A 
ATOM     25  C   UNL     1       7.435   4.806  16.357  0.00  0.00    +0.000 A 
ATOM     26  C   UNL     1       6.904   4.852  15.073  0.00  0.00    +0.000 A 
ATOM     27  C   UNL     1       5.563   4.568  14.873  0.00  0.00    +0.000 A 
ATOM     28  C   UNL     1       4.760   4.209  15.958  0.00  0.00    +0.000 A 
ATOM     29  C   UNL     1       5.268   4.182  17.269  0.00  0.00    +0.000 A 
BRANCH  24  31
ATOM     30  C   UNL     1       7.668   5.795  19.137  0.00  0.00    +0.000 C 
ATOM     31  O   UNL     1       7.115   4.532  18.749  0.00  0.00    +0.000 OA
ENDBRANCH  24  31
ENDBRANCH  23  29
ENDBRANCH  21  23
ENDBRANCH   1  21
TORSDOF 7
ENDMDL
MODEL 2
REMARK VINA RESULT:      -8.6      1.006      1.998
REMARK  Name = 
REMARK  8 active torsions:
REMARK  status: ('A' for Active; 'I' for Inactive)
REMARK    1  A    between atoms: C_1  and  O_2
REMARK    2  A    between atoms: O_2  and  C_3
REMARK    3  A    between atoms: C_8  and  C_9
REMARK    4  A    between atoms: C_9  and  N_10
REMARK    5  A    between atoms: N_10  and  C_11
REMARK    6  A    between atoms: C_14  and  C_15
REMARK    7  A    between atoms: C_17  and  C_18
REMARK    8  A    between atoms: C_27  and  N_28
REMARK                            x       y       z     vdW  Elec       q    Type
REMARK                         _______ _______ _______ _____ _____    ______ ____
ROOT
ATOM      1  C   UNL     1       2.501   5.113  18.985  0.00  0.00    +0.000 A 
ATOM      2  C   UNL     1       2.719   6.442  18.600  0.00  0.00    +0.000 A 
ATOM      3  C   UNL     1       2.257   7.524  19.354  0.00  0.00    +0.000 A 
ATOM      4  C   UNL     1       1.560   7.322  20.548  0.00  0.00    +0.000 A 
ATOM      5  C   UNL     1       1.436   6.016  21.026  0.00  0.00    +0.000 A 
ATOM      6  C   UNL     1       1.932   4.937  20.266  0.00  0.00    +0.000 A 
ENDROOT
BRANCH   4   7
ATOM      7  C   UNL     1       0.952   8.434  21.259  0.00  0.00    +0.000 A 
ATOM      8  N   UNL     1      -0.099   9.159  20.951  0.00  0.00    +0.000 NA
ATOM      9  C   UNL     1      -0.090  10.132  21.937  0.00  0.00    +0.000 A 
ATOM     10  N   UNL     1       0.914   9.998  22.820  0.00  0.00    +0.000 NA
ATOM     11  O   UNL     1       1.600   8.878  22.374  0.00  0.00    +0.000 OA
BRANCH   9  12
ATOM     12  C   UNL     1      -1.082  11.207  21.977  0.00  0.00    +0.000 A 
ATOM     13  C   UNL     1      -1.767  11.474  23.161  0.00  0.00    +0.000 A 
ATOM     14  C   UNL     1      -2.706  12.500  23.177  0.00  0.00    +0.000 A 
ATOM     15  C   UNL     1      -2.938  13.227  22.015  0.00  0.00    +0.000 A 
ATOM     16  C   UNL     1      -2.219  12.896  20.879  0.00  0.00    +0.000 A 
ATOM     17  N   UNL     1      -1.301  11.908  20.833  0.00  0.00    +0.000 NA
ENDBRANCH   9  12
ENDBRANCH   4   7
BRANCH   6  18
ATOM     18  N   UNL     1       1.844   3.620  20.881  0.00  0.00    +0.000 N 
ATOM     19  O   UNL     1       2.322   3.481  22.020  0.00  0.00    +0.000 OA
ATOM     20  O   UNL     1       1.311   2.719  20.218  0.00  0.00    +0.000 OA
ENDBRANCH   6  18
BRANCH   1  21
ATOM     21  N   UNL     1       2.967   4.062  18.181  0.00  0.00    +0.000 N 
ATOM     22  H   UNL     1       2.865   4.259  17.184  0.00  0.00    +0.000 HD
BRANCH  21  23
ATOM     23  C   UNL     1       4.293   3.471  18.464  0.00  0.00    +0.000 C 
BRANCH  23  29
ATOM     24  C   UNL     1       5.764   4.761  16.785  0.00  0.00    +0.000 A 
ATOM     25  C   UNL     1       6.749   5.739  16.554  0.00  0.00    +0.000 A 
ATOM     26  C   UNL     1       7.466   6.297  17.607  0.00  0.00    +0.000 A 
ATOM     27  C   UNL     1       7.182   5.918  18.909  0.00  0.00    +0.000 A 
ATOM     28  C   UNL     1       6.158   5.002  19.158  0.00  0.00    +0.000 A 
ATOM     29  C   UNL     1       5.437   4.405  18.109  0.00  0.00    +0.000 A 
BRANCH  24  31
ATOM     30  C   UNL     1       5.705   4.351  14.474  0.00  0.00    +0.000 C 
ATOM     31  O   UNL     1       5.093   4.153  15.755  0.00  0.00    +0.000 OA
ENDBRANCH  24  31
ENDBRANCH  23  29
ENDBRANCH  21  23
ENDBRANCH   1  21
TORSDOF 7
ENDMDL
MODEL 3
REMARK VINA RESULT:      -8.5      1.078      1.218
REMARK  Name = 
REMARK  8 active torsions:
REMARK  status: ('A' for Active; 'I' for Inactive)
REMARK    1  A    between atoms: C_1  and  O_2
REMARK    2  A    between atoms: O_2  and  C_3
REMARK    3  A    between atoms: C_8  and  C_9
REMARK    4  A    between atoms: C_9  and  N_10
REMARK    5  A    between atoms: N_10  and  C_11
REMARK    6  A    between atoms: C_14  and  C_15
REMARK    7  A    between atoms: C_17  and  C_18
REMARK    8  A    between atoms: C_27  and  N_28
REMARK                            x       y       z     vdW  Elec       q    Type
REMARK                         _______ _______ _______ _____ _____    ______ ____
ROOT
ATOM      1  C   UNL     1       2.444   4.932  18.837  0.00  0.00    +0.000 A 
ATOM      2  C   UNL     1       2.760   6.191  18.311  0.00  0.00    +0.000 A 
ATOM      3  C   UNL     1       2.410   7.380  18.957  0.00  0.00    +0.000 A 
ATOM      4  C   UNL     1       1.732   7.361  20.178  0.00  0.00    +0.000 A 
ATOM      5  C   UNL     1       1.513   6.127  20.792  0.00  0.00    +0.000 A 
ATOM      6  C   UNL     1       1.898   4.937  20.140  0.00  0.00    +0.000 A 
ENDROOT
BRANCH   4   7
ATOM      7  C   UNL     1       1.238   8.589  20.780  0.00  0.00    +0.000 A 
ATOM      8  N   UNL     1       0.649   9.623  20.226  0.00  0.00    +0.000 NA
ATOM      9  C   UNL     1       0.546  10.510  21.285  0.00  0.00    +0.000 A 
ATOM     10  N   UNL     1       1.034  10.032  22.442  0.00  0.00    +0.000 NA
ATOM     11  O   UNL     1       1.489   8.764  22.109  0.00  0.00    +0.000 OA
BRANCH   9  12
ATOM     12  C   UNL     1      -0.029  11.847  21.125  0.00  0.00    +0.000 A 
ATOM     13  C   UNL     1      -0.563  12.229  19.896  0.00  0.00    +0.000 A 
ATOM     14  C   UNL     1      -1.104  13.503  19.765  0.00  0.00    +0.000 A 
ATOM     15  C   UNL     1      -1.096  14.360  20.860  0.00  0.00    +0.000 A 
ATOM     16  C   UNL     1      -0.543  13.906  22.045  0.00  0.00    +0.000 A 
ATOM     17  N   UNL     1      -0.012  12.675  22.202  0.00  0.00    +0.000 NA
ENDBRANCH   9  12
ENDBRANCH   4   7
BRANCH   6  18
ATOM     18  N   UNL     1       1.717   3.702  20.890  0.00  0.00    +0.000 N 
ATOM     19  O   UNL     1       2.228   3.634  22.021  0.00  0.00    +0.000 OA
ATOM     20  O   UNL     1       1.079   2.793  20.341  0.00  0.00    +0.000 OA
ENDBRANCH   6  18
BRANCH   1  21
ATOM     21  N   UNL     1       2.798   3.768  18.139  0.00  0.00    +0.000 N 
ATOM     22  H   UNL     1       2.504   3.795  17.161  0.00  0.00    +0.000 HD
BRANCH  21  23
ATOM     23  C   UNL     1       4.180   3.252  18.252  0.00  0.00    +0.000 C 
BRANCH  23  29
ATOM     24  C   UNL     1       6.292   4.647  17.766  0.00  0.00    +0.000 A 
ATOM     25  C   UNL     1       7.208   5.153  16.825  0.00  0.00    +0.000 A 
ATOM     26  C   UNL     1       6.959   5.060  15.460  0.00  0.00    +0.000 A 
ATOM     27  C   UNL     1       5.813   4.423  15.013  0.00  0.00    +0.000 A 
ATOM     28  C   UNL     1       4.931   3.853  15.933  0.00  0.00    +0.000 A 
ATOM     29  C   UNL     1       5.147   3.957  17.318  0.00  0.00    +0.000 A 
BRANCH  24  31
ATOM     30  C   UNL     1       7.595   5.636  19.450  0.00  0.00    +0.000 C 
ATOM     31  O   UNL     1       6.490   4.788  19.116  0.00  0.00    +0.000 OA
ENDBRANCH  24  31
ENDBRANCH  23  29
ENDBRANCH  21  23
ENDBRANCH   1  21
TORSDOF 7
ENDMDL
MODEL 4
REMARK VINA RESULT:      -8.5      1.102      1.867
REMARK  Name = 
REMARK  8 active torsions:
REMARK  status: ('A' for Active; 'I' for Inactive)
REMARK    1  A    between atoms: C_1  and  O_2
REMARK    2  A    between atoms: O_2  and  C_3
REMARK    3  A    between atoms: C_8  and  C_9
REMARK    4  A    between atoms: C_9  and  N_10
REMARK    5  A    between atoms: N_10  and  C_11
REMARK    6  A    between atoms: C_14  and  C_15
REMARK    7  A    between atoms: C_17  and  C_18
REMARK    8  A    between atoms: C_27  and  N_28
REMARK                            x       y       z     vdW  Elec       q    Type
REMARK                         _______ _______ _______ _____ _____    ______ ____
ROOT
ATOM      1  C   UNL     1       2.684   5.398  18.318  0.00  0.00    +0.000 A 
ATOM      2  C   UNL     1       2.879   6.758  18.042  0.00  0.00    +0.000 A 
ATOM      3  C   UNL     1       2.426   7.766  18.897  0.00  0.00    +0.000 A 
ATOM      4  C   UNL     1       1.763   7.456  20.086  0.00  0.00    +0.000 A 
ATOM      5  C   UNL     1       1.664   6.113  20.454  0.00  0.00    +0.000 A 
ATOM      6  C   UNL     1       2.151   5.108  19.594  0.00  0.00    +0.000 A 
ENDROOT
BRANCH   4   7
ATOM      7  C   UNL     1       1.162   8.497  20.904  0.00  0.00    +0.000 A 
ATOM      8  N   UNL     1       0.281   9.417  20.586  0.00  0.00    +0.000 NA
ATOM      9  C   UNL     1       0.214  10.178  21.742  0.00  0.00    +0.000 A 
ATOM     10  N   UNL     1       1.008   9.732  22.731  0.00  0.00    +0.000 NA
ATOM     11  O   UNL     1       1.632   8.623  22.178  0.00  0.00    +0.000 OA
BRANCH   9  12
ATOM     12  C   UNL     1      -0.636  11.365  21.842  0.00  0.00    +0.000 A 
ATOM     13  C   UNL     1      -1.353  11.799  20.728  0.00  0.00    +0.000 A 
ATOM     14  C   UNL     1      -2.156  12.929  20.845  0.00  0.00    +0.000 A 
ATOM     15  C   UNL     1      -2.218  13.595  22.063  0.00  0.00    +0.000 A 
ATOM     16  C   UNL     1      -1.471  13.102  23.120  0.00  0.00    +0.000 A 
ATOM     17  N   UNL     1      -0.686  12.009  23.037  0.00  0.00    +0.000 NA
ENDBRANCH   9  12
ENDBRANCH   4   7
BRANCH   6  18
ATOM     18  N   UNL     1       2.091   3.742  20.097  0.00  0.00    +0.000 N 
ATOM     19  O   UNL     1       1.215   2.994  19.632  0.00  0.00    +0.000 OA
ATOM     20  O   UNL     1       2.911   3.423  20.970  0.00  0.00    +0.000 OA
ENDBRANCH   6  18
BRANCH   1  21
ATOM     21  N   UNL     1       3.139   4.424  17.417  0.00  0.00    +0.000 N 
ATOM     22  H   UNL     1       3.120   4.751  16.449  0.00  0.00    +0.000 HD
BRANCH  21  23
ATOM     23  C   UNL     1       4.403   3.711  17.702  0.00  0.00    +0.000 C 
BRANCH  23  29
ATOM     24  C   UNL     1       6.081   5.423  16.756  0.00  0.00    +0.000 A 
ATOM     25  C   UNL     1       7.095   6.369  16.993  0.00  0.00    +0.000 A 
ATOM     26  C   UNL     1       7.681   6.494  18.248  0.00  0.00    +0.000 A 
ATOM     27  C   UNL     1       7.234   5.705  19.296  0.00  0.00    +0.000 A 
ATOM     28  C   UNL     1       6.179   4.813  19.093  0.00  0.00    +0.000 A 
ATOM     29  C   UNL     1       5.590   4.650  17.827  0.00  0.00    +0.000 A 
BRANCH  24  31
ATOM     30  C   UNL     1       6.451   4.674  14.562  0.00  0.00    +0.000 C 
ATOM     31  O   UNL     1       5.539   5.242  15.509  0.00  0.00    +0.000 OA
ENDBRANCH  24  31
ENDBRANCH  23  29
ENDBRANCH  21  23
ENDBRANCH   1  21
TORSDOF 7
ENDMDL
MODEL 5
REMARK VINA RESULT:      -8.3      1.284      2.042
REMARK  Name = 
REMARK  8 active torsions:
REMARK  status: ('A' for Active; 'I' for Inactive)
REMARK    1  A    between atoms: C_1  and  O_2
REMARK    2  A    between atoms: O_2  and  C_3
REMARK    3  A    between atoms: C_8  and  C_9
REMARK    4  A    between atoms: C_9  and  N_10
REMARK    5  A    between atoms: N_10  and  C_11
REMARK    6  A    between atoms: C_14  and  C_15
REMARK    7  A    between atoms: C_17  and  C_18
REMARK    8  A    between atoms: C_27  and  N_28
REMARK                            x       y       z     vdW  Elec       q    Type
REMARK                         _______ _______ _______ _____ _____    ______ ____
ROOT
ATOM      1  C   UNL     1       2.539   5.032  18.827  0.00  0.00    +0.000 A 
ATOM      2  C   UNL     1       2.833   6.310  18.334  0.00  0.00    +0.000 A 
ATOM      3  C   UNL     1       2.437   7.475  18.997  0.00  0.00    +0.000 A 
ATOM      4  C   UNL     1       1.734   7.413  20.202  0.00  0.00    +0.000 A 
ATOM      5  C   UNL     1       1.536   6.161  20.786  0.00  0.00    +0.000 A 
ATOM      6  C   UNL     1       1.966   4.996  20.118  0.00  0.00    +0.000 A 
ENDROOT
BRANCH   4   7
ATOM      7  C   UNL     1       1.194   8.614  20.818  0.00  0.00    +0.000 A 
ATOM      8  N   UNL     1       0.637   9.668  20.267  0.00  0.00    +0.000 NA
ATOM      9  C   UNL     1       0.459  10.512  21.351  0.00  0.00    +0.000 A 
ATOM     10  N   UNL     1       0.872   9.989  22.518  0.00  0.00    +0.000 NA
ATOM     11  O   UNL     1       1.356   8.738  22.167  0.00  0.00    +0.000 OA
BRANCH   9  12
ATOM     12  C   UNL     1      -0.112  11.852  21.206  0.00  0.00    +0.000 A 
ATOM     13  C   UNL     1      -0.502  12.307  19.948  0.00  0.00    +0.000 A 
ATOM     14  C   UNL     1      -1.042  13.583  19.832  0.00  0.00    +0.000 A 
ATOM     15  C   UNL     1      -1.175  14.370  20.971  0.00  0.00    +0.000 A 
ATOM     16  C   UNL     1      -0.760  13.846  22.183  0.00  0.00    +0.000 A 
ATOM     17  N   UNL     1      -0.233  12.612  22.326  0.00  0.00    +0.000 NA
ENDBRANCH   9  12
ENDBRANCH   4   7
BRANCH   6  18
ATOM     18  N   UNL     1       1.803   3.741  20.839  0.00  0.00    +0.000 N 
ATOM     19  O   UNL     1       2.303   3.659  21.974  0.00  0.00    +0.000 OA
ATOM     20  O   UNL     1       1.191   2.831  20.263  0.00  0.00    +0.000 OA
ENDBRANCH   6  18
BRANCH   1  21
ATOM     21  N   UNL     1       2.940   3.893  18.114  0.00  0.00    +0.000 N 
ATOM     22  H   UNL     1       2.786   3.989  17.108  0.00  0.00    +0.000 HD
BRANCH  21  23
ATOM     23  C   UNL     1       4.270   3.304  18.382  0.00  0.00    +0.000 C 
BRANCH  23  29
ATOM     24  C   UNL     1       5.753   4.695  16.798  0.00  0.00    +0.000 A 
ATOM     25  C   UNL     1       6.728   5.697  16.634  0.00  0.00    +0.000 A 
ATOM     26  C   UNL     1       7.416   6.213  17.726  0.00  0.00    +0.000 A 
ATOM     27  C   UNL     1       7.113   5.768  19.003  0.00  0.00    +0.000 A 
ATOM     28  C   UNL     1       6.098   4.826  19.187  0.00  0.00    +0.000 A 
ATOM     29  C   UNL     1       5.407   4.270  18.096  0.00  0.00    +0.000 A 
BRANCH  24  31
ATOM     30  C   UNL     1       5.892   4.124  14.525  0.00  0.00    +0.000 C 
ATOM     31  O   UNL     1       5.112   4.128  15.726  0.00  0.00    +0.000 OA
ENDBRANCH  24  31
ENDBRANCH  23  29
ENDBRANCH  21  23
ENDBRANCH   1  21
TORSDOF 7
ENDMDL
MODEL 6
REMARK VINA RESULT:      -8.1      2.508      3.894
REMARK  Name = 
REMARK  8 active torsions:
REMARK  status: ('A' for Active; 'I' for Inactive)
REMARK    1  A    between atoms: C_1  and  O_2
REMARK    2  A    between atoms: O_2  and  C_3
REMARK    3  A    between atoms: C_8  and  C_9
REMARK    4  A    between atoms: C_9  and  N_10
REMARK    5  A    between atoms: N_10  and  C_11
REMARK    6  A    between atoms: C_14  and  C_15
REMARK    7  A    between atoms: C_17  and  C_18
REMARK    8  A    between atoms: C_27  and  N_28
REMARK                            x       y       z     vdW  Elec       q    Type
REMARK                         _______ _______ _______ _____ _____    ______ ____
ROOT
ATOM      1  C   UNL     1       4.664   4.770  17.005  0.00  0.00    +0.000 A 
ATOM      2  C   UNL     1       5.137   6.082  17.135  0.00  0.00    +0.000 A 
ATOM      3  C   UNL     1       4.377   7.094  17.728  0.00  0.00    +0.000 A 
ATOM      4  C   UNL     1       3.102   6.833  18.233  0.00  0.00    +0.000 A 
ATOM      5  C   UNL     1       2.652   5.512  18.235  0.00  0.00    +0.000 A 
ATOM      6  C   UNL     1       3.442   4.497  17.659  0.00  0.00    +0.000 A 
ENDROOT
BRANCH   4   7
ATOM      7  C   UNL     1       2.252   7.909  18.717  0.00  0.00    +0.000 A 
ATOM      8  N   UNL     1       1.854   8.187  19.936  0.00  0.00    +0.000 NA
ATOM      9  C   UNL     1       0.968   9.232  19.731  0.00  0.00    +0.000 A 
ATOM     10  N   UNL     1       0.843   9.589  18.442  0.00  0.00    +0.000 NA
ATOM     11  O   UNL     1       1.690   8.718  17.773  0.00  0.00    +0.000 OA
BRANCH   9  12
ATOM     12  C   UNL     1       0.235   9.857  20.833  0.00  0.00    +0.000 A 
ATOM     13  C   UNL     1       0.218   9.248  22.086  0.00  0.00    +0.000 A 
ATOM     14  C   UNL     1      -0.484   9.859  23.120  0.00  0.00    +0.000 A 
ATOM     15  C   UNL     1      -1.150  11.055  22.875  0.00  0.00    +0.000 A 
ATOM     16  C   UNL     1      -1.087  11.592  21.601  0.00  0.00    +0.000 A 
ATOM     17  N   UNL     1      -0.414  11.023  20.579  0.00  0.00    +0.000 NA
ENDBRANCH   9  12
ENDBRANCH   4   7
BRANCH   6  18
ATOM     18  N   UNL     1       2.939   3.136  17.786  0.00  0.00    +0.000 N 
ATOM     19  O   UNL     1       3.744   2.252  18.127  0.00  0.00    +0.000 OA
ATOM     20  O   UNL     1       1.742   2.947  17.528  0.00  0.00    +0.000 OA
ENDBRANCH   6  18
BRANCH   1  21
ATOM     21  N   UNL     1       5.457   3.794  16.383  0.00  0.00    +0.000 N 
ATOM     22  H   UNL     1       5.579   2.963  16.963  0.00  0.00    +0.000 HD
BRANCH  21  23
ATOM     23  C   UNL     1       5.167   3.414  14.983  0.00  0.00    +0.000 C 
BRANCH  23  29
ATOM     24  C   UNL     1       6.200   3.645  12.633  0.00  0.00    +0.000 A 
ATOM     25  C   UNL     1       7.076   4.325  11.766  0.00  0.00    +0.000 A 
ATOM     26  C   UNL     1       7.978   5.265  12.252  0.00  0.00    +0.000 A 
ATOM     27  C   UNL     1       7.990   5.572  13.603  0.00  0.00    +0.000 A 
ATOM     28  C   UNL     1       7.077   4.959  14.463  0.00  0.00    +0.000 A 
ATOM     29  C   UNL     1       6.174   3.985  14.000  0.00  0.00    +0.000 A 
BRANCH  24  31
ATOM     30  C   UNL     1       4.287   3.165  11.359  0.00  0.00    +0.000 C 
ATOM     31  O   UNL     1       5.350   2.668  12.181  0.00  0.00    +0.000 OA
ENDBRANCH  24  31
ENDBRANCH  23  29
ENDBRANCH  21  23
ENDBRANCH   1  21
TORSDOF 7
ENDMDL
MODEL 7
REMARK VINA RESULT:      -7.9      5.632      8.682
REMARK  Name = 
REMARK  8 active torsions:
REMARK  status: ('A' for Active; 'I' for Inactive)
REMARK    1  A    between atoms: C_1  and  O_2
REMARK    2  A    between atoms: O_2  and  C_3
REMARK    3  A    between atoms: C_8  and  C_9
REMARK    4  A    between atoms: C_9  and  N_10
REMARK    5  A    between atoms: N_10  and  C_11
REMARK    6  A    between atoms: C_14  and  C_15
REMARK    7  A    between atoms: C_17  and  C_18
REMARK    8  A    between atoms: C_27  and  N_28
REMARK                            x       y       z     vdW  Elec       q    Type
REMARK                         _______ _______ _______ _____ _____    ______ ____
ROOT
ATOM      1  C   UNL     1       6.579   6.443  17.701  0.00  0.00    +0.000 A 
ATOM      2  C   UNL     1       6.403   7.632  16.981  0.00  0.00    +0.000 A 
ATOM      3  C   UNL     1       7.171   8.774  17.226  0.00  0.00    +0.000 A 
ATOM      4  C   UNL     1       8.168   8.773  18.203  0.00  0.00    +0.000 A 
ATOM      5  C   UNL     1       8.456   7.571  18.850  0.00  0.00    +0.000 A 
ATOM      6  C   UNL     1       7.691   6.419  18.572  0.00  0.00    +0.000 A 
ENDROOT
BRANCH   4   7
ATOM      7  C   UNL     1       8.868   9.996  18.562  0.00  0.00    +0.000 A 
ATOM      8  N   UNL     1       9.236  11.009  17.812  0.00  0.00    +0.000 NA
ATOM      9  C   UNL     1       9.968  11.785  18.697  0.00  0.00    +0.000 A 
ATOM     10  N   UNL     1      10.029  11.277  19.939  0.00  0.00    +0.000 NA
ATOM     11  O   UNL     1       9.302  10.098  19.851  0.00  0.00    +0.000 OA
BRANCH   9  12
ATOM     12  C   UNL     1      10.619  13.028  18.283  0.00  0.00    +0.000 A 
ATOM     13  C   UNL     1      11.729  12.982  17.441  0.00  0.00    +0.000 A 
ATOM     14  C   UNL     1      12.333  14.175  17.060  0.00  0.00    +0.000 A 
ATOM     15  C   UNL     1      11.817  15.378  17.529  0.00  0.00    +0.000 A 
ATOM     16  C   UNL     1      10.714  15.338  18.366  0.00  0.00    +0.000 A 
ATOM     17  N   UNL     1      10.107  14.196  18.751  0.00  0.00    +0.000 NA
ENDBRANCH   9  12
ENDBRANCH   4   7
BRANCH   6  18
ATOM     18  N   UNL     1       8.118   5.187  19.222  0.00  0.00    +0.000 N 
ATOM     19  O   UNL     1       8.419   4.226  18.494  0.00  0.00    +0.000 OA
ATOM     20  O   UNL     1       8.134   5.176  20.461  0.00  0.00    +0.000 OA
ENDBRANCH   6  18
BRANCH   1  21
ATOM     21  N   UNL     1       5.768   5.331  17.431  0.00  0.00    +0.000 N 
ATOM     22  H   UNL     1       5.882   4.589  18.124  0.00  0.00    +0.000 HD
BRANCH  21  23
ATOM     23  C   UNL     1       4.337   5.539  17.121  0.00  0.00    +0.000 C 
BRANCH  23  29
ATOM     24  C   UNL     1       3.267   4.187  19.037  0.00  0.00    +0.000 A 
ATOM     25  C   UNL     1       2.536   4.176  20.239  0.00  0.00    +0.000 A 
ATOM     26  C   UNL     1       1.915   5.329  20.710  0.00  0.00    +0.000 A 
ATOM     27  C   UNL     1       2.051   6.517  20.010  0.00  0.00    +0.000 A 
ATOM     28  C   UNL     1       2.832   6.558  18.854  0.00  0.00    +0.000 A 
ATOM     29  C   UNL     1       3.447   5.400  18.344  0.00  0.00    +0.000 A 
BRANCH  24  31
ATOM     30  C   UNL     1       2.885   2.171  17.894  0.00  0.00    +0.000 C 
ATOM     31  O   UNL     1       3.830   3.045  18.523  0.00  0.00    +0.000 OA
ENDBRANCH  24  31
ENDBRANCH  23  29
ENDBRANCH  21  23
ENDBRANCH   1  21
TORSDOF 7
ENDMDL
MODEL 8
REMARK VINA RESULT:      -7.9      2.533      4.421
REMARK  Name = 
REMARK  8 active torsions:
REMARK  status: ('A' for Active; 'I' for Inactive)
REMARK    1  A    between atoms: C_1  and  O_2
REMARK    2  A    between atoms: O_2  and  C_3
REMARK    3  A    between atoms: C_8  and  C_9
REMARK    4  A    between atoms: C_9  and  N_10
REMARK    5  A    between atoms: N_10  and  C_11
REMARK    6  A    between atoms: C_14  and  C_15
REMARK    7  A    between atoms: C_17  and  C_18
REMARK    8  A    between atoms: C_27  and  N_28
REMARK                            x       y       z     vdW  Elec       q    Type
REMARK                         _______ _______ _______ _____ _____    ______ ____
ROOT
ATOM      1  C   UNL     1       3.899   4.195  17.597  0.00  0.00    +0.000 A 
ATOM      2  C   UNL     1       2.530   4.470  17.478  0.00  0.00    +0.000 A 
ATOM      3  C   UNL     1       1.999   5.738  17.728  0.00  0.00    +0.000 A 
ATOM      4  C   UNL     1       2.823   6.802  18.100  0.00  0.00    +0.000 A 
ATOM      5  C   UNL     1       4.204   6.596  18.105  0.00  0.00    +0.000 A 
ATOM      6  C   UNL     1       4.727   5.318  17.822  0.00  0.00    +0.000 A 
ENDROOT
BRANCH   4   7
ATOM      7  C   UNL     1       2.262   8.081  18.503  0.00  0.00    +0.000 A 
ATOM      8  N   UNL     1       1.767   8.459  19.659  0.00  0.00    +0.000 NA
ATOM      9  C   UNL     1       1.278   9.724  19.375  0.00  0.00    +0.000 A 
ATOM     10  N   UNL     1       1.480  10.110  18.104  0.00  0.00    +0.000 NA
ATOM     11  O   UNL     1       2.130   9.027  17.529  0.00  0.00    +0.000 OA
BRANCH   9  12
ATOM     12  C   UNL     1       0.590  10.535  20.381  0.00  0.00    +0.000 A 
ATOM     13  C   UNL     1       0.594  11.924  20.272  0.00  0.00    +0.000 A 
ATOM     14  C   UNL     1      -0.066  12.676  21.239  0.00  0.00    +0.000 A 
ATOM     15  C   UNL     1      -0.706  12.023  22.286  0.00  0.00    +0.000 A 
ATOM     16  C   UNL     1      -0.659  10.640  22.325  0.00  0.00    +0.000 A 
ATOM     17  N   UNL     1      -0.029   9.885  21.401  0.00  0.00    +0.000 NA
ENDBRANCH   9  12
ENDBRANCH   4   7
BRANCH   6  18
ATOM     18  N   UNL     1       6.178   5.213  17.758  0.00  0.00    +0.000 N 
ATOM     19  O   UNL     1       6.775   5.954  16.958  0.00  0.00    +0.000 OA
ATOM     20  O   UNL     1       6.720   4.377  18.494  0.00  0.00    +0.000 OA
ENDBRANCH   6  18
BRANCH   1  21
ATOM     21  N   UNL     1       4.380   2.900  17.356  0.00  0.00    +0.000 N 
ATOM     22  H   UNL     1       5.379   2.813  17.550  0.00  0.00    +0.000 HD
BRANCH  21  23
ATOM     23  C   UNL     1       3.640   1.742  17.902  0.00  0.00    +0.000 C 
BRANCH  23  29
ATOM     24  C   UNL     1       3.524   2.392  20.394  0.00  0.00    +0.000 A 
ATOM     25  C   UNL     1       2.754   2.825  21.489  0.00  0.00    +0.000 A 
ATOM     26  C   UNL     1       1.366   2.867  21.417  0.00  0.00    +0.000 A 
ATOM     27  C   UNL     1       0.728   2.516  20.237  0.00  0.00    +0.000 A 
ATOM     28  C   UNL     1       1.483   2.152  19.121  0.00  0.00    +0.000 A 
ATOM     29  C   UNL     1       2.886   2.078  19.177  0.00  0.00    +0.000 A 
BRANCH  24  31
ATOM     30  C   UNL     1       5.336   1.079  21.106  0.00  0.00    +0.000 C 
ATOM     31  O   UNL     1       4.890   2.282  20.469  0.00  0.00    +0.000 OA
ENDBRANCH  24  31
ENDBRANCH  23  29
ENDBRANCH  21  23
ENDBRANCH   1  21
TORSDOF 7
ENDMDL
MODEL 9
REMARK VINA RESULT:      -7.8      2.917      9.739
REMARK  Name = 
REMARK  8 active torsions:
REMARK  status: ('A' for Active; 'I' for Inactive)
REMARK    1  A    between atoms: C_1  and  O_2
REMARK    2  A    between atoms: O_2  and  C_3
REMARK    3  A    between atoms: C_8  and  C_9
REMARK    4  A    between atoms: C_9  and  N_10
REMARK    5  A    between atoms: N_10  and  C_11
REMARK    6  A    between atoms: C_14  and  C_15
REMARK    7  A    between atoms: C_17  and  C_18
REMARK    8  A    between atoms: C_27  and  N_28
REMARK                            x       y       z     vdW  Elec       q    Type
REMARK                         _______ _______ _______ _____ _____    ______ ____
ROOT
ATOM      1  C   UNL     1      -0.025  10.372  19.823  0.00  0.00    +0.000 A 
ATOM      2  C   UNL     1       0.359  10.162  18.492  0.00  0.00    +0.000 A 
ATOM      3  C   UNL     1       1.253   9.153  18.123  0.00  0.00    +0.000 A 
ATOM      4  C   UNL     1       1.799   8.292  19.078  0.00  0.00    +0.000 A 
ATOM      5  C   UNL     1       1.341   8.391  20.393  0.00  0.00    +0.000 A 
ATOM      6  C   UNL     1       0.417   9.396  20.744  0.00  0.00    +0.000 A 
ENDROOT
BRANCH   4   7
ATOM      7  C   UNL     1       2.837   7.339  18.722  0.00  0.00    +0.000 A 
ATOM      8  N   UNL     1       3.506   7.199  17.602  0.00  0.00    +0.000 NA
ATOM      9  C   UNL     1       4.243   6.049  17.835  0.00  0.00    +0.000 A 
ATOM     10  N   UNL     1       4.046   5.518  19.053  0.00  0.00    +0.000 NA
ATOM     11  O   UNL     1       3.120   6.369  19.639  0.00  0.00    +0.000 OA
BRANCH   9  12
ATOM     12  C   UNL     1       5.131   5.477  16.822  0.00  0.00    +0.000 A 
ATOM     13  C   UNL     1       4.872   4.207  16.310  0.00  0.00    +0.000 A 
ATOM     14  C   UNL     1       5.728   3.682  15.348  0.00  0.00    +0.000 A 
ATOM     15  C   UNL     1       6.818   4.435  14.926  0.00  0.00    +0.000 A 
ATOM     16  C   UNL     1       7.009   5.687  15.487  0.00  0.00    +0.000 A 
ATOM     17  N   UNL     1       6.195   6.222  16.420  0.00  0.00    +0.000 NA
ENDBRANCH   9  12
ENDBRANCH   4   7
BRANCH   6  18
ATOM     18  N   UNL     1      -0.077   9.370  22.114  0.00  0.00    +0.000 N 
ATOM     19  O   UNL     1      -0.804   8.419  22.447  0.00  0.00    +0.000 OA
ATOM     20  O   UNL     1       0.250  10.310  22.853  0.00  0.00    +0.000 OA
ENDBRANCH   6  18
BRANCH   1  21
ATOM     21  N   UNL     1      -0.909  11.413  20.145  0.00  0.00    +0.000 N 
ATOM     22  H   UNL     1      -0.578  11.976  20.930  0.00  0.00    +0.000 HD
BRANCH  21  23
ATOM     23  C   UNL     1      -1.427  12.279  19.064  0.00  0.00    +0.000 C 
BRANCH  23  29
ATOM     24  C   UNL     1      -3.449  11.516  17.659  0.00  0.00    +0.000 A 
ATOM     25  C   UNL     1      -4.830  11.256  17.582  0.00  0.00    +0.000 A 
ATOM     26  C   UNL     1      -5.690  11.640  18.605  0.00  0.00    +0.000 A 
ATOM     27  C   UNL     1      -5.178  12.251  19.740  0.00  0.00    +0.000 A 
ATOM     28  C   UNL     1      -3.802  12.450  19.861  0.00  0.00    +0.000 A 
ATOM     29  C   UNL     1      -2.916  12.095  18.828  0.00  0.00    +0.000 A 
BRANCH  24  31
ATOM     30  C   UNL     1      -2.609   9.816  16.274  0.00  0.00    +0.000 C 
ATOM     31  O   UNL     1      -2.596  11.204  16.631  0.00  0.00    +0.000 OA
ENDBRANCH  24  31
ENDBRANCH  23  29
ENDBRANCH  21  23
ENDBRANCH   1  21
TORSDOF 7
ENDMDL
