MODEL 1
REMARK VINA RESULT:      -7.7      0.000      0.000
REMARK  Name = 
REMARK  4 active torsions:
REMARK  status: ('A' for Active; 'I' for Inactive)
REMARK    1  A    between atoms: O_1  and  C_2
REMARK    2  A    between atoms: C_6  and  C_7
REMARK    3  A    between atoms: C_9  and  C_10
REMARK    4  A    between atoms: C_16  and  C_17
REMARK                            x       y       z     vdW  Elec       q    Type
REMARK                         _______ _______ _______ _____ _____    ______ ____
ROOT
ATOM      1  C   UNL     1       2.196   8.298  18.183  0.00  0.00    +0.000 A 
ATOM      2  N   UNL     1       1.619   7.158  18.518  0.00  0.00    +0.000 NA
ATOM      3  C   UNL     1       2.535   6.158  18.247  0.00  0.00    +0.000 A 
ATOM      4  C   UNL     1       3.686   6.695  17.690  0.00  0.00    +0.000 A 
ATOM      5  N   UNL     1       3.461   8.050  17.704  0.00  0.00    +0.000 N 
ATOM      6  H   UNL     1       4.121   8.740  17.377  0.00  0.00    +0.000 HD
ENDROOT
BRANCH   1  11
ATOM      7  C   UNL     1       0.497  12.219  18.519  0.00  0.00    +0.000 A 
ATOM      8  C   UNL     1       1.871  12.049  18.332  0.00  0.00    +0.000 A 
ATOM      9 CL   UNL     1       2.912  13.423  18.244  0.00  0.00    +0.000 Cl
ATOM     10  C   UNL     1       2.417  10.769  18.219  0.00  0.00    +0.000 A 
ATOM     11  C   UNL     1       1.595   9.633  18.289  0.00  0.00    +0.000 A 
ATOM     12  C   UNL     1       0.215   9.816  18.475  0.00  0.00    +0.000 A 
ATOM     13  C   UNL     1      -0.329  11.099  18.590  0.00  0.00    +0.000 A 
ATOM     14 CL   UNL     1      -2.033  11.244  18.820  0.00  0.00    +0.000 Cl
BRANCH   7  15
ATOM     15  O   UNL     1      -0.049  13.474  18.637  0.00  0.00    +0.000 OA
ATOM     16  H   UNL     1      -1.019  13.373  18.677  0.00  0.00    +0.000 HD
ENDBRANCH   7  15
ENDBRANCH   1  11
BRANCH   3  17
ATOM     17  C   UNL     1       2.255   4.753  18.512  0.00  0.00    +0.000 A 
ATOM     18  C   UNL     1       1.648   4.376  19.716  0.00  0.00    +0.000 A 
ATOM     19  C   UNL     1       1.328   3.037  19.957  0.00  0.00    +0.000 A 
ATOM     20  C   UNL     1       1.602   2.065  18.995  0.00  0.00    +0.000 A 
ATOM     21  C   UNL     1       2.220   2.425  17.802  0.00  0.00    +0.000 A 
ATOM     22  C   UNL     1       2.573   3.755  17.579  0.00  0.00    +0.000 A 
ENDBRANCH   3  17
BRANCH   4  23
ATOM     23  C   UNL     1       4.888   6.116  17.160  0.00  0.00    +0.000 A 
ATOM     24  C   UNL     1       5.243   5.994  15.829  0.00  0.00    +0.000 A 
ATOM     25  C   UNL     1       6.449   5.261  15.644  0.00  0.00    +0.000 A 
ATOM     26  C   UNL     1       7.020   4.909  16.844  0.00  0.00    +0.000 A 
ATOM     27  S   UNL     1       6.093   5.442  18.179  0.00  0.00    +0.000 S 
ENDBRANCH   4  23
TORSDOF 4
ENDMDL
MODEL 2
REMARK VINA RESULT:      -7.7      0.233      1.830
REMARK  Name = 
REMARK  4 active torsions:
REMARK  status: ('A' for Active; 'I' for Inactive)
REMARK    1  A    between atoms: O_1  and  C_2
REMARK    2  A    between atoms: C_6  and  C_7
REMARK    3  A    between atoms: C_9  and  C_10
REMARK    4  A    between atoms: C_16  and  C_17
REMARK                            x       y       z     vdW  Elec       q    Type
REMARK                         _______ _______ _______ _____ _____    ______ ____
ROOT
ATOM      1  C   UNL     1       2.138   8.448  18.244  0.00  0.00    +0.000 A 
ATOM      2  N   UNL     1       1.562   7.325  18.636  0.00  0.00    +0.000 NA
ATOM      3  C   UNL     1       2.459   6.308  18.369  0.00  0.00    +0.000 A 
ATOM      4  C   UNL     1       3.595   6.813  17.757  0.00  0.00    +0.000 A 
ATOM      5  N   UNL     1       3.383   8.170  17.732  0.00  0.00    +0.000 N 
ATOM      6  H   UNL     1       4.039   8.842  17.359  0.00  0.00    +0.000 HD
ENDROOT
BRANCH   1  11
ATOM      7  C   UNL     1       0.378  12.350  18.451  0.00  0.00    +0.000 A 
ATOM      8  C   UNL     1      -0.414  11.203  18.543  0.00  0.00    +0.000 A 
ATOM      9 CL   UNL     1      -2.125  11.342  18.730  0.00  0.00    +0.000 Cl
ATOM     10  C   UNL     1       0.166   9.935  18.479  0.00  0.00    +0.000 A 
ATOM     11  C   UNL     1       1.554   9.792  18.324  0.00  0.00    +0.000 A 
ATOM     12  C   UNL     1       2.341  10.952  18.236  0.00  0.00    +0.000 A 
ATOM     13  C   UNL     1       1.756  12.220  18.298  0.00  0.00    +0.000 A 
ATOM     14 CL   UNL     1       2.789  13.599  18.180  0.00  0.00    +0.000 Cl
BRANCH   7  15
ATOM     15  O   UNL     1      -0.184  13.602  18.508  0.00  0.00    +0.000 OA
ATOM     16  H   UNL     1       0.455  14.233  18.124  0.00  0.00    +0.000 HD
ENDBRANCH   7  15
ENDBRANCH   1  11
BRANCH   3  17
ATOM     17  C   UNL     1       2.174   4.915  18.691  0.00  0.00    +0.000 A 
ATOM     18  C   UNL     1       1.750   4.568  19.979  0.00  0.00    +0.000 A 
ATOM     19  C   UNL     1       1.425   3.243  20.283  0.00  0.00    +0.000 A 
ATOM     20  C   UNL     1       1.511   2.256  19.301  0.00  0.00    +0.000 A 
ATOM     21  C   UNL     1       1.949   2.586  18.023  0.00  0.00    +0.000 A 
ATOM     22  C   UNL     1       2.309   3.901  17.732  0.00  0.00    +0.000 A 
ENDBRANCH   3  17
BRANCH   4  23
ATOM     23  C   UNL     1       4.773   6.204  17.206  0.00  0.00    +0.000 A 
ATOM     24  C   UNL     1       5.139   6.139  15.875  0.00  0.00    +0.000 A 
ATOM     25  C   UNL     1       6.309   5.357  15.660  0.00  0.00    +0.000 A 
ATOM     26  C   UNL     1       6.845   4.908  16.844  0.00  0.00    +0.000 A 
ATOM     27  S   UNL     1       5.929   5.412  18.197  0.00  0.00    +0.000 S 
ENDBRANCH   4  23
TORSDOF 4
ENDMDL
MODEL 3
REMARK VINA RESULT:      -7.7      0.942      3.508
REMARK  Name = 
REMARK  4 active torsions:
REMARK  status: ('A' for Active; 'I' for Inactive)
REMARK    1  A    between atoms: O_1  and  C_2
REMARK    2  A    between atoms: C_6  and  C_7
REMARK    3  A    between atoms: C_9  and  C_10
REMARK    4  A    between atoms: C_16  and  C_17
REMARK                            x       y       z     vdW  Elec       q    Type
REMARK                         _______ _______ _______ _____ _____    ______ ____
ROOT
ATOM      1  C   UNL     1       2.279   8.290  18.105  0.00  0.00    +0.000 A 
ATOM      2  N   UNL     1       3.494   8.059  17.642  0.00  0.00    +0.000 NA
ATOM      3  C   UNL     1       3.684   6.691  17.698  0.00  0.00    +0.000 A 
ATOM      4  C   UNL     1       2.574   6.070  18.250  0.00  0.00    +0.000 A 
ATOM      5  N   UNL     1       1.687   7.099  18.455  0.00  0.00    +0.000 N 
ATOM      6  H   UNL     1       0.759   6.983  18.837  0.00  0.00    +0.000 HD
ENDROOT
BRANCH   1  11
ATOM      7  C   UNL     1       0.474  12.154  18.531  0.00  0.00    +0.000 A 
ATOM      8  C   UNL     1       1.851  12.027  18.329  0.00  0.00    +0.000 A 
ATOM      9 CL   UNL     1       2.852  13.431  18.259  0.00  0.00    +0.000 Cl
ATOM     10  C   UNL     1       2.431  10.765  18.187  0.00  0.00    +0.000 A 
ATOM     11  C   UNL     1       1.642   9.606  18.241  0.00  0.00    +0.000 A 
ATOM     12  C   UNL     1       0.259   9.746  18.442  0.00  0.00    +0.000 A 
ATOM     13  C   UNL     1      -0.319  11.011  18.586  0.00  0.00    +0.000 A 
ATOM     14 CL   UNL     1      -2.025  11.103  18.832  0.00  0.00    +0.000 Cl
BRANCH   7  15
ATOM     15  O   UNL     1      -0.105  13.391  18.677  0.00  0.00    +0.000 OA
ATOM     16  H   UNL     1      -0.578  13.399  19.531  0.00  0.00    +0.000 HD
ENDBRANCH   7  15
ENDBRANCH   1  11
BRANCH   3  17
ATOM     17  C   UNL     1       4.915   6.056  17.244  0.00  0.00    +0.000 A 
ATOM     18  C   UNL     1       5.885   5.668  18.175  0.00  0.00    +0.000 A 
ATOM     19  C   UNL     1       7.046   5.012  17.754  0.00  0.00    +0.000 A 
ATOM     20  C   UNL     1       7.242   4.730  16.403  0.00  0.00    +0.000 A 
ATOM     21  C   UNL     1       6.293   5.126  15.466  0.00  0.00    +0.000 A 
ATOM     22  C   UNL     1       5.154   5.814  15.884  0.00  0.00    +0.000 A 
ENDBRANCH   3  17
BRANCH   4  23
ATOM     23  C   UNL     1       2.277   4.711  18.605  0.00  0.00    +0.000 A 
ATOM     24  C   UNL     1       1.488   3.816  17.907  0.00  0.00    +0.000 A 
ATOM     25  C   UNL     1       1.302   2.587  18.600  0.00  0.00    +0.000 A 
ATOM     26  C   UNL     1       2.015   2.551  19.775  0.00  0.00    +0.000 A 
ATOM     27  S   UNL     1       2.883   4.000  20.044  0.00  0.00    +0.000 S 
ENDBRANCH   4  23
TORSDOF 4
ENDMDL
MODEL 4
REMARK VINA RESULT:      -7.7      0.095      2.057
REMARK  Name = 
REMARK  4 active torsions:
REMARK  status: ('A' for Active; 'I' for Inactive)
REMARK    1  A    between atoms: O_1  and  C_2
REMARK    2  A    between atoms: C_6  and  C_7
REMARK    3  A    between atoms: C_9  and  C_10
REMARK    4  A    between atoms: C_16  and  C_17
REMARK                            x       y       z     vdW  Elec       q    Type
REMARK                         _______ _______ _______ _____ _____    ______ ____
ROOT
ATOM      1  C   UNL     1       2.224   8.275  18.154  0.00  0.00    +0.000 A 
ATOM      2  N   UNL     1       1.629   7.135  18.460  0.00  0.00    +0.000 NA
ATOM      3  C   UNL     1       2.535   6.129  18.182  0.00  0.00    +0.000 A 
ATOM      4  C   UNL     1       3.700   6.661  17.650  0.00  0.00    +0.000 A 
ATOM      5  N   UNL     1       3.492   8.019  17.686  0.00  0.00    +0.000 N 
ATOM      6  H   UNL     1       4.165   8.706  17.380  0.00  0.00    +0.000 HD
ENDROOT
BRANCH   1  11
ATOM      7  C   UNL     1       0.461  12.167  18.488  0.00  0.00    +0.000 A 
ATOM      8  C   UNL     1      -0.327  11.016  18.567  0.00  0.00    +0.000 A 
ATOM      9 CL   UNL     1      -2.034  11.146  18.789  0.00  0.00    +0.000 Cl
ATOM     10  C   UNL     1       0.254   9.751  18.461  0.00  0.00    +0.000 A 
ATOM     11  C   UNL     1       1.639   9.615  18.278  0.00  0.00    +0.000 A 
ATOM     12  C   UNL     1       2.422  10.778  18.203  0.00  0.00    +0.000 A 
ATOM     13  C   UNL     1       1.837  12.044  18.306  0.00  0.00    +0.000 A 
ATOM     14 CL   UNL     1       2.864  13.427  18.202  0.00  0.00    +0.000 Cl
BRANCH   7  15
ATOM     15  O   UNL     1      -0.102  13.416  18.585  0.00  0.00    +0.000 OA
ATOM     16  H   UNL     1      -1.045  13.300  18.813  0.00  0.00    +0.000 HD
ENDBRANCH   7  15
ENDBRANCH   1  11
BRANCH   3  17
ATOM     17  C   UNL     1       2.234   4.723  18.417  0.00  0.00    +0.000 A 
ATOM     18  C   UNL     1       2.607   3.761  17.471  0.00  0.00    +0.000 A 
ATOM     19  C   UNL     1       2.369   2.404  17.711  0.00  0.00    +0.000 A 
ATOM     20  C   UNL     1       1.766   1.997  18.901  0.00  0.00    +0.000 A 
ATOM     21  C   UNL     1       1.376   2.946  19.840  0.00  0.00    +0.000 A 
ATOM     22  C   UNL     1       1.579   4.300  19.582  0.00  0.00    +0.000 A 
ENDBRANCH   3  17
BRANCH   4  23
ATOM     23  C   UNL     1       4.901   6.078  17.124  0.00  0.00    +0.000 A 
ATOM     24  C   UNL     1       5.265   5.963  15.795  0.00  0.00    +0.000 A 
ATOM     25  C   UNL     1       6.467   5.222  15.613  0.00  0.00    +0.000 A 
ATOM     26  C   UNL     1       7.026   4.856  16.814  0.00  0.00    +0.000 A 
ATOM     27  S   UNL     1       6.093   5.385  18.146  0.00  0.00    +0.000 S 
ENDBRANCH   4  23
TORSDOF 4
ENDMDL
MODEL 5
REMARK VINA RESULT:      -7.7      0.988      3.949
REMARK  Name = 
REMARK  4 active torsions:
REMARK  status: ('A' for Active; 'I' for Inactive)
REMARK    1  A    between atoms: O_1  and  C_2
REMARK    2  A    between atoms: C_6  and  C_7
REMARK    3  A    between atoms: C_9  and  C_10
REMARK    4  A    between atoms: C_16  and  C_17
REMARK                            x       y       z     vdW  Elec       q    Type
REMARK                         _______ _______ _______ _____ _____    ______ ____
ROOT
ATOM      1  C   UNL     1       2.294   8.284  18.122  0.00  0.00    +0.000 A 
ATOM      2  N   UNL     1       3.497   8.033  17.638  0.00  0.00    +0.000 NA
ATOM      3  C   UNL     1       3.673   6.664  17.705  0.00  0.00    +0.000 A 
ATOM      4  C   UNL     1       2.567   6.063  18.286  0.00  0.00    +0.000 A 
ATOM      5  N   UNL     1       1.696   7.104  18.498  0.00  0.00    +0.000 N 
ATOM      6  H   UNL     1       0.775   7.004  18.900  0.00  0.00    +0.000 HD
ENDROOT
BRANCH   1  11
ATOM      7  C   UNL     1       0.434  12.128  18.486  0.00  0.00    +0.000 A 
ATOM      8  C   UNL     1      -0.327  10.958  18.535  0.00  0.00    +0.000 A 
ATOM      9 CL   UNL     1      -2.040  11.044  18.732  0.00  0.00    +0.000 Cl
ATOM     10  C   UNL     1       0.286   9.709  18.420  0.00  0.00    +0.000 A 
ATOM     11  C   UNL     1       1.676   9.608  18.256  0.00  0.00    +0.000 A 
ATOM     12  C   UNL     1       2.432  10.791  18.210  0.00  0.00    +0.000 A 
ATOM     13  C   UNL     1       1.815  12.041  18.324  0.00  0.00    +0.000 A 
ATOM     14 CL   UNL     1       2.810  13.449  18.256  0.00  0.00    +0.000 Cl
BRANCH   7  15
ATOM     15  O   UNL     1      -0.161  13.362  18.592  0.00  0.00    +0.000 OA
ATOM     16  H   UNL     1       0.369  13.894  19.216  0.00  0.00    +0.000 HD
ENDBRANCH   7  15
ENDBRANCH   1  11
BRANCH   3  17
ATOM     17  C   UNL     1       4.887   6.010  17.234  0.00  0.00    +0.000 A 
ATOM     18  C   UNL     1       5.792   5.470  18.154  0.00  0.00    +0.000 A 
ATOM     19  C   UNL     1       6.933   4.795  17.711  0.00  0.00    +0.000 A 
ATOM     20  C   UNL     1       7.174   4.646  16.346  0.00  0.00    +0.000 A 
ATOM     21  C   UNL     1       6.291   5.194  15.421  0.00  0.00    +0.000 A 
ATOM     22  C   UNL     1       5.174   5.899  15.866  0.00  0.00    +0.000 A 
ENDBRANCH   3  17
BRANCH   4  23
ATOM     23  C   UNL     1       2.262   4.712  18.664  0.00  0.00    +0.000 A 
ATOM     24  C   UNL     1       1.768   3.706  17.853  0.00  0.00    +0.000 A 
ATOM     25  C   UNL     1       1.462   2.517  18.572  0.00  0.00    +0.000 A 
ATOM     26  C   UNL     1       1.800   2.624  19.901  0.00  0.00    +0.000 A 
ATOM     27  S   UNL     1       2.461   4.156  20.275  0.00  0.00    +0.000 S 
ENDBRANCH   4  23
TORSDOF 4
ENDMDL
MODEL 6
REMARK VINA RESULT:      -7.6      0.877      1.069
REMARK  Name = 
REMARK  4 active torsions:
REMARK  status: ('A' for Active; 'I' for Inactive)
REMARK    1  A    between atoms: O_1  and  C_2
REMARK    2  A    between atoms: C_6  and  C_7
REMARK    3  A    between atoms: C_9  and  C_10
REMARK    4  A    between atoms: C_16  and  C_17
REMARK                            x       y       z     vdW  Elec       q    Type
REMARK                         _______ _______ _______ _____ _____    ______ ____
ROOT
ATOM      1  C   UNL     1       1.986   8.497  18.548  0.00  0.00    +0.000 A 
ATOM      2  N   UNL     1       1.490   7.474  19.221  0.00  0.00    +0.000 NA
ATOM      3  C   UNL     1       2.305   6.391  18.950  0.00  0.00    +0.000 A 
ATOM      4  C   UNL     1       3.300   6.747  18.053  0.00  0.00    +0.000 A 
ATOM      5  N   UNL     1       3.101   8.091  17.852  0.00  0.00    +0.000 N 
ATOM      6  H   UNL     1       3.675   8.668  17.255  0.00  0.00    +0.000 HD
ENDROOT
BRANCH   1  11
ATOM      7  C   UNL     1       0.456  12.500  18.503  0.00  0.00    +0.000 A 
ATOM      8  C   UNL     1       1.823  12.256  18.346  0.00  0.00    +0.000 A 
ATOM      9 CL   UNL     1       2.923  13.570  18.141  0.00  0.00    +0.000 Cl
ATOM     10  C   UNL     1       2.313  10.948  18.357  0.00  0.00    +0.000 A 
ATOM     11  C   UNL     1       1.443   9.860  18.524  0.00  0.00    +0.000 A 
ATOM     12  C   UNL     1       0.071  10.118  18.679  0.00  0.00    +0.000 A 
ATOM     13  C   UNL     1      -0.417  11.428  18.669  0.00  0.00    +0.000 A 
ATOM     14 CL   UNL     1      -2.116  11.665  18.868  0.00  0.00    +0.000 Cl
BRANCH   7  15
ATOM     15  O   UNL     1      -0.036  13.783  18.499  0.00  0.00    +0.000 OA
ATOM     16  H   UNL     1       0.137  14.164  17.617  0.00  0.00    +0.000 HD
ENDBRANCH   7  15
ENDBRANCH   1  11
BRANCH   3  17
ATOM     17  C   UNL     1       2.078   5.079  19.542  0.00  0.00    +0.000 A 
ATOM     18  C   UNL     1       2.458   4.834  20.866  0.00  0.00    +0.000 A 
ATOM     19  C   UNL     1       2.197   3.595  21.459  0.00  0.00    +0.000 A 
ATOM     20  C   UNL     1       1.546   2.595  20.738  0.00  0.00    +0.000 A 
ATOM     21  C   UNL     1       1.179   2.821  19.415  0.00  0.00    +0.000 A 
ATOM     22  C   UNL     1       1.474   4.043  18.814  0.00  0.00    +0.000 A 
ENDBRANCH   3  17
BRANCH   4  23
ATOM     23  C   UNL     1       4.338   6.011  17.387  0.00  0.00    +0.000 A 
ATOM     24  C   UNL     1       4.242   4.756  16.817  0.00  0.00    +0.000 A 
ATOM     25  C   UNL     1       5.492   4.265  16.346  0.00  0.00    +0.000 A 
ATOM     26  C   UNL     1       6.495   5.193  16.502  0.00  0.00    +0.000 A 
ATOM     27  S   UNL     1       5.930   6.633  17.233  0.00  0.00    +0.000 S 
ENDBRANCH   4  23
TORSDOF 4
ENDMDL
MODEL 7
REMARK VINA RESULT:      -7.6      2.241      4.211
REMARK  Name = 
REMARK  4 active torsions:
REMARK  status: ('A' for Active; 'I' for Inactive)
REMARK    1  A    between atoms: O_1  and  C_2
REMARK    2  A    between atoms: C_6  and  C_7
REMARK    3  A    between atoms: C_9  and  C_10
REMARK    4  A    between atoms: C_16  and  C_17
REMARK                            x       y       z     vdW  Elec       q    Type
REMARK                         _______ _______ _______ _____ _____    ______ ____
ROOT
ATOM      1  C   UNL     1       2.301   7.450  19.189  0.00  0.00    +0.000 A 
ATOM      2  N   UNL     1       3.358   7.543  18.403  0.00  0.00    +0.000 NA
ATOM      3  C   UNL     1       3.738   6.249  18.097  0.00  0.00    +0.000 A 
ATOM      4  C   UNL     1       2.920   5.338  18.748  0.00  0.00    +0.000 A 
ATOM      5  N   UNL     1       1.996   6.124  19.393  0.00  0.00    +0.000 N 
ATOM      6  H   UNL     1       1.237   5.766  19.954  0.00  0.00    +0.000 HD
ENDROOT
BRANCH   1  11
ATOM      7  C   UNL     1       0.100  10.686  20.936  0.00  0.00    +0.000 A 
ATOM      8  C   UNL     1       0.457   9.571  21.698  0.00  0.00    +0.000 A 
ATOM      9 CL   UNL     1       0.004   9.474  23.361  0.00  0.00    +0.000 Cl
ATOM     10  C   UNL     1       1.177   8.522  21.123  0.00  0.00    +0.000 A 
ATOM     11  C   UNL     1       1.557   8.572  19.773  0.00  0.00    +0.000 A 
ATOM     12  C   UNL     1       1.195   9.699  19.017  0.00  0.00    +0.000 A 
ATOM     13  C   UNL     1       0.472  10.747  19.595  0.00  0.00    +0.000 A 
ATOM     14 CL   UNL     1       0.061  12.098  18.601  0.00  0.00    +0.000 Cl
BRANCH   7  15
ATOM     15  O   UNL     1      -0.614  11.720  21.491  0.00  0.00    +0.000 OA
ATOM     16  H   UNL     1      -0.880  11.449  22.390  0.00  0.00    +0.000 HD
ENDBRANCH   7  15
ENDBRANCH   1  11
BRANCH   3  17
ATOM     17  C   UNL     1       4.867   5.955  17.223  0.00  0.00    +0.000 A 
ATOM     18  C   UNL     1       6.142   6.434  17.544  0.00  0.00    +0.000 A 
ATOM     19  C   UNL     1       7.240   6.113  16.740  0.00  0.00    +0.000 A 
ATOM     20  C   UNL     1       7.075   5.305  15.616  0.00  0.00    +0.000 A 
ATOM     21  C   UNL     1       5.810   4.838  15.278  0.00  0.00    +0.000 A 
ATOM     22  C   UNL     1       4.710   5.190  16.059  0.00  0.00    +0.000 A 
ENDBRANCH   3  17
BRANCH   4  23
ATOM     23  C   UNL     1       2.920   3.906  18.846  0.00  0.00    +0.000 A 
ATOM     24  C   UNL     1       3.991   3.086  19.150  0.00  0.00    +0.000 A 
ATOM     25  C   UNL     1       3.676   1.703  19.045  0.00  0.00    +0.000 A 
ATOM     26  C   UNL     1       2.351   1.505  18.736  0.00  0.00    +0.000 A 
ATOM     27  S   UNL     1       1.505   2.980  18.553  0.00  0.00    +0.000 S 
ENDBRANCH   4  23
TORSDOF 4
ENDMDL
MODEL 8
REMARK VINA RESULT:      -7.6      1.472      3.697
REMARK  Name = 
REMARK  4 active torsions:
REMARK  status: ('A' for Active; 'I' for Inactive)
REMARK    1  A    between atoms: O_1  and  C_2
REMARK    2  A    between atoms: C_6  and  C_7
REMARK    3  A    between atoms: C_9  and  C_10
REMARK    4  A    between atoms: C_16  and  C_17
REMARK                            x       y       z     vdW  Elec       q    Type
REMARK                         _______ _______ _______ _____ _____    ______ ____
ROOT
ATOM      1  C   UNL     1       2.509   7.857  18.428  0.00  0.00    +0.000 A 
ATOM      2  N   UNL     1       3.664   7.716  17.802  0.00  0.00    +0.000 NA
ATOM      3  C   UNL     1       3.848   6.359  17.613  0.00  0.00    +0.000 A 
ATOM      4  C   UNL     1       2.801   5.646  18.177  0.00  0.00    +0.000 A 
ATOM      5  N   UNL     1       1.951   6.619  18.643  0.00  0.00    +0.000 N 
ATOM      6  H   UNL     1       1.070   6.433  19.102  0.00  0.00    +0.000 HD
ENDROOT
BRANCH   1  11
ATOM      7  C   UNL     1       0.789  11.595  19.628  0.00  0.00    +0.000 A 
ATOM      8  C   UNL     1       1.694  11.533  18.566  0.00  0.00    +0.000 A 
ATOM      9 CL   UNL     1       2.145  12.971  17.723  0.00  0.00    +0.000 Cl
ATOM     10  C   UNL     1       2.247  10.311  18.177  0.00  0.00    +0.000 A 
ATOM     11  C   UNL     1       1.902   9.126  18.845  0.00  0.00    +0.000 A 
ATOM     12  C   UNL     1       0.989   9.199  19.910  0.00  0.00    +0.000 A 
ATOM     13  C   UNL     1       0.438  10.425  20.298  0.00  0.00    +0.000 A 
ATOM     14 CL   UNL     1      -0.675  10.436  21.618  0.00  0.00    +0.000 Cl
BRANCH   7  15
ATOM     15  O   UNL     1       0.244  12.792  20.021  0.00  0.00    +0.000 OA
ATOM     16  H   UNL     1      -0.727  12.710  19.962  0.00  0.00    +0.000 HD
ENDBRANCH   7  15
ENDBRANCH   1  11
BRANCH   3  17
ATOM     17  C   UNL     1       5.017   5.819  16.930  0.00  0.00    +0.000 A 
ATOM     18  C   UNL     1       6.070   5.272  17.671  0.00  0.00    +0.000 A 
ATOM     19  C   UNL     1       7.171   4.705  17.023  0.00  0.00    +0.000 A 
ATOM     20  C   UNL     1       7.224   4.671  15.630  0.00  0.00    +0.000 A 
ATOM     21  C   UNL     1       6.192   5.227  14.882  0.00  0.00    +0.000 A 
ATOM     22  C   UNL     1       5.113   5.826  15.531  0.00  0.00    +0.000 A 
ENDBRANCH   3  17
BRANCH   4  23
ATOM     23  C   UNL     1       2.535   4.245  18.339  0.00  0.00    +0.000 A 
ATOM     24  C   UNL     1       2.738   3.240  17.410  0.00  0.00    +0.000 A 
ATOM     25  C   UNL     1       2.255   1.976  17.849  0.00  0.00    +0.000 A 
ATOM     26  C   UNL     1       1.762   2.036  19.131  0.00  0.00    +0.000 A 
ATOM     27  S   UNL     1       1.866   3.612  19.787  0.00  0.00    +0.000 S 
ENDBRANCH   4  23
TORSDOF 4
ENDMDL
MODEL 9
REMARK VINA RESULT:      -7.6      2.043      4.052
REMARK  Name = 
REMARK  4 active torsions:
REMARK  status: ('A' for Active; 'I' for Inactive)
REMARK    1  A    between atoms: O_1  and  C_2
REMARK    2  A    between atoms: C_6  and  C_7
REMARK    3  A    between atoms: C_9  and  C_10
REMARK    4  A    between atoms: C_16  and  C_17
REMARK                            x       y       z     vdW  Elec       q    Type
REMARK                         _______ _______ _______ _____ _____    ______ ____
ROOT
ATOM      1  C   UNL     1       2.284   7.455  19.170  0.00  0.00    +0.000 A 
ATOM      2  N   UNL     1       3.374   7.562  18.432  0.00  0.00    +0.000 NA
ATOM      3  C   UNL     1       3.727   6.278  18.061  0.00  0.00    +0.000 A 
ATOM      4  C   UNL     1       2.857   5.356  18.621  0.00  0.00    +0.000 A 
ATOM      5  N   UNL     1       1.931   6.130  19.278  0.00  0.00    +0.000 N 
ATOM      6  H   UNL     1       1.140   5.763  19.786  0.00  0.00    +0.000 HD
ENDROOT
BRANCH   1  11
ATOM      7  C   UNL     1       0.175  10.732  20.954  0.00  0.00    +0.000 A 
ATOM      8  C   UNL     1       0.564  10.778  19.613  0.00  0.00    +0.000 A 
ATOM      9 CL   UNL     1       0.210  12.168  18.652  0.00  0.00    +0.000 Cl
ATOM     10  C   UNL     1       1.247   9.705  19.037  0.00  0.00    +0.000 A 
ATOM     11  C   UNL     1       1.551   8.563  19.794  0.00  0.00    +0.000 A 
ATOM     12  C   UNL     1       1.152   8.527  21.141  0.00  0.00    +0.000 A 
ATOM     13  C   UNL     1       0.470   9.604  21.715  0.00  0.00    +0.000 A 
ATOM     14 CL   UNL     1       0.015   9.487  23.376  0.00  0.00    +0.000 Cl
BRANCH   7  15
ATOM     15  O   UNL     1      -0.493  11.785  21.530  0.00  0.00    +0.000 OA
ATOM     16  H   UNL     1      -1.070  12.180  20.849  0.00  0.00    +0.000 HD
ENDBRANCH   7  15
ENDBRANCH   1  11
BRANCH   3  17
ATOM     17  C   UNL     1       4.881   6.002  17.214  0.00  0.00    +0.000 A 
ATOM     18  C   UNL     1       6.148   6.463  17.588  0.00  0.00    +0.000 A 
ATOM     19  C   UNL     1       7.269   6.158  16.810  0.00  0.00    +0.000 A 
ATOM     20  C   UNL     1       7.135   5.383  15.659  0.00  0.00    +0.000 A 
ATOM     21  C   UNL     1       5.878   4.934  15.268  0.00  0.00    +0.000 A 
ATOM     22  C   UNL     1       4.756   5.270  16.025  0.00  0.00    +0.000 A 
ENDBRANCH   3  17
BRANCH   4  23
ATOM     23  C   UNL     1       2.809   3.921  18.630  0.00  0.00    +0.000 A 
ATOM     24  C   UNL     1       1.762   3.114  18.225  0.00  0.00    +0.000 A 
ATOM     25  C   UNL     1       1.998   1.734  18.479  0.00  0.00    +0.000 A 
ATOM     26  C   UNL     1       3.251   1.519  19.003  0.00  0.00    +0.000 A 
ATOM     27  S   UNL     1       4.122   2.977  19.205  0.00  0.00    +0.000 S 
ENDBRANCH   4  23
TORSDOF 4
ENDMDL
