MODEL 1
REMARK VINA RESULT:      -8.4      0.000      0.000
REMARK  Name = 
REMARK  3 active torsions:
REMARK  status: ('A' for Active; 'I' for Inactive)
REMARK    1  A    between atoms: N_9  and  C_10
REMARK    2  A    between atoms: C_10  and  C_11
REMARK    3  A    between atoms: N_20  and  C_21
REMARK                            x       y       z     vdW  Elec       q    Type
REMARK                         _______ _______ _______ _____ _____    ______ ____
ROOT
ATOM      1  O   UNL     1       1.938   6.781  21.103  0.00  0.00    +0.000 OA
ATOM      2  C   UNL     1       1.576   7.788  20.496  0.00  0.00    +0.000 A 
ATOM      3  C   UNL     1       0.798   8.799  21.235  0.00  0.00    +0.000 A 
ATOM      4  C   UNL     1       0.643   8.666  22.623  0.00  0.00    +0.000 A 
ATOM      5  C   UNL     1      -0.079   9.616  23.343  0.00  0.00    +0.000 A 
ATOM      6  C   UNL     1      -0.660  10.683  22.671  0.00  0.00    +0.000 A 
ATOM      7  C   UNL     1      -0.516  10.806  21.285  0.00  0.00    +0.000 A 
ATOM      8  C   UNL     1       0.229   9.869  20.549  0.00  0.00    +0.000 A 
ATOM      9  N   UNL     1       0.458  10.003  19.154  0.00  0.00    +0.000 N 
ATOM     10  C   UNL     1       1.324   9.163  18.460  0.00  0.00    +0.000 A 
ATOM     11  O   UNL     1       1.675   9.450  17.311  0.00  0.00    +0.000 OA
ATOM     12  N   UNL     1       1.807   8.039  19.141  0.00  0.00    +0.000 N 
ENDROOT
BRANCH  12  13
ATOM     13  C   UNL     1       2.625   7.122  18.395  0.00  0.00    +0.000 A 
ATOM     14  C   UNL     1       2.241   5.780  18.231  0.00  0.00    +0.000 A 
ATOM     15  C   UNL     1       3.095   4.870  17.600  0.00  0.00    +0.000 A 
ATOM     16  C   UNL     1       4.319   5.298  17.093  0.00  0.00    +0.000 A 
ATOM     17  C   UNL     1       4.681   6.631  17.216  0.00  0.00    +0.000 A 
ATOM     18  F   UNL     1       5.847   7.049  16.711  0.00  0.00    +0.000 F 
ATOM     19  C   UNL     1       3.852   7.541  17.866  0.00  0.00    +0.000 A 
ENDBRANCH  12  13
BRANCH   9  20
ATOM     20  C   UNL     1      -0.105  11.129  18.398  0.00  0.00    +0.000 C 
BRANCH  20  21
ATOM     21  C   UNL     1      -1.513  10.927  17.887  0.00  0.00    +0.000 A 
ATOM     22  C   UNL     1      -1.869   9.951  16.944  0.00  0.00    +0.000 A 
ATOM     23  C   UNL     1      -3.182   9.860  16.476  0.00  0.00    +0.000 A 
ATOM     24  C   UNL     1      -4.162  10.723  16.963  0.00  0.00    +0.000 A 
ATOM     25  C   UNL     1      -3.835  11.663  17.936  0.00  0.00    +0.000 A 
ATOM     26  C   UNL     1      -2.522  11.754  18.390  0.00  0.00    +0.000 A 
ATOM     27  F   UNL     1      -2.224  12.669  19.324  0.00  0.00    +0.000 F 
ENDBRANCH  20  21
ENDBRANCH   9  20
TORSDOF 3
ENDMDL
MODEL 2
REMARK VINA RESULT:      -8.3      0.925      1.309
REMARK  Name = 
REMARK  3 active torsions:
REMARK  status: ('A' for Active; 'I' for Inactive)
REMARK    1  A    between atoms: N_9  and  C_10
REMARK    2  A    between atoms: C_10  and  C_11
REMARK    3  A    between atoms: N_20  and  C_21
REMARK                            x       y       z     vdW  Elec       q    Type
REMARK                         _______ _______ _______ _____ _____    ______ ____
ROOT
ATOM      1  O   UNL     1       1.946   6.758  21.177  0.00  0.00    +0.000 OA
ATOM      2  C   UNL     1       1.605   7.752  20.537  0.00  0.00    +0.000 A 
ATOM      3  C   UNL     1       0.808   8.781  21.230  0.00  0.00    +0.000 A 
ATOM      4  C   UNL     1       0.611   8.679  22.615  0.00  0.00    +0.000 A 
ATOM      5  C   UNL     1      -0.129   9.646  23.292  0.00  0.00    +0.000 A 
ATOM      6  C   UNL     1      -0.688  10.699  22.578  0.00  0.00    +0.000 A 
ATOM      7  C   UNL     1      -0.502  10.790  21.195  0.00  0.00    +0.000 A 
ATOM      8  C   UNL     1       0.262   9.835  20.503  0.00  0.00    +0.000 A 
ATOM      9  N   UNL     1       0.532   9.938  19.113  0.00  0.00    +0.000 N 
ATOM     10  C   UNL     1       1.417   9.080  18.464  0.00  0.00    +0.000 A 
ATOM     11  O   UNL     1       1.803   9.341  17.320  0.00  0.00    +0.000 OA
ATOM     12  N   UNL     1       1.877   7.971  19.184  0.00  0.00    +0.000 N 
ENDROOT
BRANCH  12  13
ATOM     13  C   UNL     1       2.714   7.036  18.484  0.00  0.00    +0.000 A 
ATOM     14  C   UNL     1       3.959   7.429  17.965  0.00  0.00    +0.000 A 
ATOM     15  C   UNL     1       4.716   6.545  17.189  0.00  0.00    +0.000 A 
ATOM     16  C   UNL     1       4.255   5.252  16.957  0.00  0.00    +0.000 A 
ATOM     17  C   UNL     1       3.046   4.848  17.503  0.00  0.00    +0.000 A 
ATOM     18  F   UNL     1       2.611   3.600  17.298  0.00  0.00    +0.000 F 
ATOM     19  C   UNL     1       2.271   5.727  18.254  0.00  0.00    +0.000 A 
ENDBRANCH  12  13
BRANCH   9  20
ATOM     20  C   UNL     1      -0.005  11.047  18.315  0.00  0.00    +0.000 C 
BRANCH  20  21
ATOM     21  C   UNL     1      -1.427  10.870  17.833  0.00  0.00    +0.000 A 
ATOM     22  C   UNL     1      -1.834   9.853  16.956  0.00  0.00    +0.000 A 
ATOM     23  C   UNL     1      -3.155   9.786  16.510  0.00  0.00    +0.000 A 
ATOM     24  C   UNL     1      -4.095  10.714  16.955  0.00  0.00    +0.000 A 
ATOM     25  C   UNL     1      -3.718  11.698  17.865  0.00  0.00    +0.000 A 
ATOM     26  C   UNL     1      -2.396  11.765  18.297  0.00  0.00    +0.000 A 
ATOM     27  F   UNL     1      -2.050  12.722  19.170  0.00  0.00    +0.000 F 
ENDBRANCH  20  21
ENDBRANCH   9  20
TORSDOF 3
ENDMDL
MODEL 3
REMARK VINA RESULT:      -8.2      5.081      7.541
REMARK  Name = 
REMARK  3 active torsions:
REMARK  status: ('A' for Active; 'I' for Inactive)
REMARK    1  A    between atoms: N_9  and  C_10
REMARK    2  A    between atoms: C_10  and  C_11
REMARK    3  A    between atoms: N_20  and  C_21
REMARK                            x       y       z     vdW  Elec       q    Type
REMARK                         _______ _______ _______ _____ _____    ______ ____
ROOT
ATOM      1  O   UNL     1       5.021   7.267  15.058  0.00  0.00    +0.000 OA
ATOM      2  C   UNL     1       4.841   6.355  15.864  0.00  0.00    +0.000 A 
ATOM      3  C   UNL     1       4.069   6.652  17.084  0.00  0.00    +0.000 A 
ATOM      4  C   UNL     1       3.430   7.895  17.206  0.00  0.00    +0.000 A 
ATOM      5  C   UNL     1       2.685   8.192  18.345  0.00  0.00    +0.000 A 
ATOM      6  C   UNL     1       2.599   7.256  19.367  0.00  0.00    +0.000 A 
ATOM      7  C   UNL     1       3.249   6.023  19.249  0.00  0.00    +0.000 A 
ATOM      8  C   UNL     1       3.984   5.699  18.096  0.00  0.00    +0.000 A 
ATOM      9  N   UNL     1       4.593   4.430  17.912  0.00  0.00    +0.000 N 
ATOM     10  C   UNL     1       5.184   4.059  16.706  0.00  0.00    +0.000 A 
ATOM     11  O   UNL     1       5.492   2.880  16.508  0.00  0.00    +0.000 OA
ATOM     12  N   UNL     1       5.347   5.059  15.740  0.00  0.00    +0.000 N 
ENDROOT
BRANCH  12  13
ATOM     13  C   UNL     1       6.042   4.697  14.535  0.00  0.00    +0.000 A 
ATOM     14  C   UNL     1       7.288   5.266  14.220  0.00  0.00    +0.000 A 
ATOM     15  C   UNL     1       7.903   4.993  12.994  0.00  0.00    +0.000 A 
ATOM     16  C   UNL     1       7.301   4.122  12.090  0.00  0.00    +0.000 A 
ATOM     17  C   UNL     1       6.092   3.526  12.417  0.00  0.00    +0.000 A 
ATOM     18  F   UNL     1       5.522   2.673  11.558  0.00  0.00    +0.000 F 
ATOM     19  C   UNL     1       5.456   3.811  13.621  0.00  0.00    +0.000 A 
ENDBRANCH  12  13
BRANCH   9  20
ATOM     20  C   UNL     1       4.508   3.390  18.944  0.00  0.00    +0.000 C 
BRANCH  20  21
ATOM     21  C   UNL     1       3.116   3.101  19.459  0.00  0.00    +0.000 A 
ATOM     22  C   UNL     1       2.732   3.251  20.800  0.00  0.00    +0.000 A 
ATOM     23  C   UNL     1       1.442   2.910  21.213  0.00  0.00    +0.000 A 
ATOM     24  C   UNL     1       0.510   2.443  20.288  0.00  0.00    +0.000 A 
ATOM     25  C   UNL     1       0.861   2.337  18.946  0.00  0.00    +0.000 A 
ATOM     26  C   UNL     1       2.151   2.668  18.543  0.00  0.00    +0.000 A 
ATOM     27  F   UNL     1       2.472   2.555  17.246  0.00  0.00    +0.000 F 
ENDBRANCH  20  21
ENDBRANCH   9  20
TORSDOF 3
ENDMDL
MODEL 4
REMARK VINA RESULT:      -8.1      0.898      1.287
REMARK  Name = 
REMARK  3 active torsions:
REMARK  status: ('A' for Active; 'I' for Inactive)
REMARK    1  A    between atoms: N_9  and  C_10
REMARK    2  A    between atoms: C_10  and  C_11
REMARK    3  A    between atoms: N_20  and  C_21
REMARK                            x       y       z     vdW  Elec       q    Type
REMARK                         _______ _______ _______ _____ _____    ______ ____
ROOT
ATOM      1  O   UNL     1       1.966   6.782  21.098  0.00  0.00    +0.000 OA
ATOM      2  C   UNL     1       1.605   7.786  20.486  0.00  0.00    +0.000 A 
ATOM      3  C   UNL     1       0.826   8.801  21.219  0.00  0.00    +0.000 A 
ATOM      4  C   UNL     1       0.669   8.674  22.607  0.00  0.00    +0.000 A 
ATOM      5  C   UNL     1      -0.053   9.628  23.322  0.00  0.00    +0.000 A 
ATOM      6  C   UNL     1      -0.634  10.691  22.644  0.00  0.00    +0.000 A 
ATOM      7  C   UNL     1      -0.488  10.807  21.258  0.00  0.00    +0.000 A 
ATOM      8  C   UNL     1       0.257   9.867  20.527  0.00  0.00    +0.000 A 
ATOM      9  N   UNL     1       0.487   9.995  19.132  0.00  0.00    +0.000 N 
ATOM     10  C   UNL     1       1.354   9.151  18.443  0.00  0.00    +0.000 A 
ATOM     11  O   UNL     1       1.707   9.433  17.293  0.00  0.00    +0.000 OA
ATOM     12  N   UNL     1       1.837   8.030  19.130  0.00  0.00    +0.000 N 
ENDROOT
BRANCH  12  13
ATOM     13  C   UNL     1       2.655   7.110  18.388  0.00  0.00    +0.000 A 
ATOM     14  C   UNL     1       2.258   5.774  18.207  0.00  0.00    +0.000 A 
ATOM     15  C   UNL     1       3.111   4.859  17.582  0.00  0.00    +0.000 A 
ATOM     16  C   UNL     1       4.348   5.276  17.099  0.00  0.00    +0.000 A 
ATOM     17  C   UNL     1       4.724   6.604  17.239  0.00  0.00    +0.000 A 
ATOM     18  F   UNL     1       5.903   7.012  16.756  0.00  0.00    +0.000 F 
ATOM     19  C   UNL     1       3.896   7.518  17.883  0.00  0.00    +0.000 A 
ENDBRANCH  12  13
BRANCH   9  20
ATOM     20  C   UNL     1      -0.075  11.116  18.370  0.00  0.00    +0.000 C 
BRANCH  20  21
ATOM     21  C   UNL     1      -1.574  11.083  18.178  0.00  0.00    +0.000 A 
ATOM     22  C   UNL     1      -2.463  11.959  18.819  0.00  0.00    +0.000 A 
ATOM     23  C   UNL     1      -3.842  11.832  18.636  0.00  0.00    +0.000 A 
ATOM     24  C   UNL     1      -4.350  10.848  17.790  0.00  0.00    +0.000 A 
ATOM     25  C   UNL     1      -3.478  10.004  17.109  0.00  0.00    +0.000 A 
ATOM     26  C   UNL     1      -2.106  10.130  17.304  0.00  0.00    +0.000 A 
ATOM     27  F   UNL     1      -1.281   9.305  16.642  0.00  0.00    +0.000 F 
ENDBRANCH  20  21
ENDBRANCH   9  20
TORSDOF 3
ENDMDL
MODEL 5
REMARK VINA RESULT:      -8.0      1.283      1.832
REMARK  Name = 
REMARK  3 active torsions:
REMARK  status: ('A' for Active; 'I' for Inactive)
REMARK    1  A    between atoms: N_9  and  C_10
REMARK    2  A    between atoms: C_10  and  C_11
REMARK    3  A    between atoms: N_20  and  C_21
REMARK                            x       y       z     vdW  Elec       q    Type
REMARK                         _______ _______ _______ _____ _____    ______ ____
ROOT
ATOM      1  O   UNL     1       1.964   6.800  21.189  0.00  0.00    +0.000 OA
ATOM      2  C   UNL     1       1.614   7.788  20.544  0.00  0.00    +0.000 A 
ATOM      3  C   UNL     1       0.811   8.814  21.233  0.00  0.00    +0.000 A 
ATOM      4  C   UNL     1       0.618   8.718  22.619  0.00  0.00    +0.000 A 
ATOM      5  C   UNL     1      -0.128   9.684  23.293  0.00  0.00    +0.000 A 
ATOM      6  C   UNL     1      -0.695  10.729  22.575  0.00  0.00    +0.000 A 
ATOM      7  C   UNL     1      -0.513  10.814  21.191  0.00  0.00    +0.000 A 
ATOM      8  C   UNL     1       0.256   9.862  20.502  0.00  0.00    +0.000 A 
ATOM      9  N   UNL     1       0.524   9.959  19.111  0.00  0.00    +0.000 N 
ATOM     10  C   UNL     1       1.413   9.104  18.465  0.00  0.00    +0.000 A 
ATOM     11  O   UNL     1       1.795   9.363  17.319  0.00  0.00    +0.000 OA
ATOM     12  N   UNL     1       1.882   8.002  19.190  0.00  0.00    +0.000 N 
ENDROOT
BRANCH  12  13
ATOM     13  C   UNL     1       2.724   7.070  18.492  0.00  0.00    +0.000 A 
ATOM     14  C   UNL     1       3.972   7.465  17.981  0.00  0.00    +0.000 A 
ATOM     15  C   UNL     1       4.734   6.583  17.208  0.00  0.00    +0.000 A 
ATOM     16  C   UNL     1       4.277   5.290  16.972  0.00  0.00    +0.000 A 
ATOM     17  C   UNL     1       3.065   4.884  17.510  0.00  0.00    +0.000 A 
ATOM     18  F   UNL     1       2.634   3.635  17.302  0.00  0.00    +0.000 F 
ATOM     19  C   UNL     1       2.285   5.760  18.258  0.00  0.00    +0.000 A 
ENDBRANCH  12  13
BRANCH   9  20
ATOM     20  C   UNL     1      -0.022  11.061  18.309  0.00  0.00    +0.000 C 
BRANCH  20  21
ATOM     21  C   UNL     1      -1.519  11.030  18.100  0.00  0.00    +0.000 A 
ATOM     22  C   UNL     1      -2.413  11.917  18.719  0.00  0.00    +0.000 A 
ATOM     23  C   UNL     1      -3.790  11.792  18.522  0.00  0.00    +0.000 A 
ATOM     24  C   UNL     1      -4.292  10.799  17.683  0.00  0.00    +0.000 A 
ATOM     25  C   UNL     1      -3.415   9.943  17.023  0.00  0.00    +0.000 A 
ATOM     26  C   UNL     1      -2.044  10.067  17.232  0.00  0.00    +0.000 A 
ATOM     27  F   UNL     1      -1.215   9.230  16.591  0.00  0.00    +0.000 F 
ENDBRANCH  20  21
ENDBRANCH   9  20
TORSDOF 3
ENDMDL
MODEL 6
REMARK VINA RESULT:      -7.9      2.851      7.763
REMARK  Name = 
REMARK  3 active torsions:
REMARK  status: ('A' for Active; 'I' for Inactive)
REMARK    1  A    between atoms: N_9  and  C_10
REMARK    2  A    between atoms: C_10  and  C_11
REMARK    3  A    between atoms: N_20  and  C_21
REMARK                            x       y       z     vdW  Elec       q    Type
REMARK                         _______ _______ _______ _____ _____    ______ ____
ROOT
ATOM      1  O   UNL     1       0.742   5.355  20.738  0.00  0.00    +0.000 OA
ATOM      2  C   UNL     1       1.564   5.495  19.833  0.00  0.00    +0.000 A 
ATOM      3  C   UNL     1       2.070   4.281  19.166  0.00  0.00    +0.000 A 
ATOM      4  C   UNL     1       1.484   3.041  19.461  0.00  0.00    +0.000 A 
ATOM      5  C   UNL     1       1.939   1.883  18.832  0.00  0.00    +0.000 A 
ATOM      6  C   UNL     1       2.991   1.966  17.929  0.00  0.00    +0.000 A 
ATOM      7  C   UNL     1       3.583   3.202  17.649  0.00  0.00    +0.000 A 
ATOM      8  C   UNL     1       3.119   4.381  18.256  0.00  0.00    +0.000 A 
ATOM      9  N   UNL     1       3.646   5.661  17.937  0.00  0.00    +0.000 N 
ATOM     10  C   UNL     1       3.080   6.838  18.421  0.00  0.00    +0.000 A 
ATOM     11  O   UNL     1       3.416   7.926  17.943  0.00  0.00    +0.000 OA
ATOM     12  N   UNL     1       2.095   6.715  19.408  0.00  0.00    +0.000 N 
ENDROOT
BRANCH  12  13
ATOM     13  C   UNL     1       1.579   7.931  19.973  0.00  0.00    +0.000 A 
ATOM     14  C   UNL     1       1.185   9.001  19.151  0.00  0.00    +0.000 A 
ATOM     15  C   UNL     1       0.791  10.219  19.712  0.00  0.00    +0.000 A 
ATOM     16  C   UNL     1       0.749  10.369  21.095  0.00  0.00    +0.000 A 
ATOM     17  C   UNL     1       1.098   9.302  21.910  0.00  0.00    +0.000 A 
ATOM     18  F   UNL     1       1.039   9.437  23.239  0.00  0.00    +0.000 F 
ATOM     19  C   UNL     1       1.518   8.093  21.364  0.00  0.00    +0.000 A 
ENDBRANCH  12  13
BRANCH   9  20
ATOM     20  C   UNL     1       4.737   5.812  16.966  0.00  0.00    +0.000 C 
BRANCH  20  21
ATOM     21  C   UNL     1       6.017   6.399  17.515  0.00  0.00    +0.000 A 
ATOM     22  C   UNL     1       6.556   7.625  17.097  0.00  0.00    +0.000 A 
ATOM     23  C   UNL     1       7.774   8.078  17.609  0.00  0.00    +0.000 A 
ATOM     24  C   UNL     1       8.455   7.328  18.565  0.00  0.00    +0.000 A 
ATOM     25  C   UNL     1       7.908   6.134  19.027  0.00  0.00    +0.000 A 
ATOM     26  C   UNL     1       6.699   5.684  18.504  0.00  0.00    +0.000 A 
ATOM     27  F   UNL     1       6.189   4.530  18.958  0.00  0.00    +0.000 F 
ENDBRANCH  20  21
ENDBRANCH   9  20
TORSDOF 3
ENDMDL
MODEL 7
REMARK VINA RESULT:      -7.9      2.613      7.726
REMARK  Name = 
REMARK  3 active torsions:
REMARK  status: ('A' for Active; 'I' for Inactive)
REMARK    1  A    between atoms: N_9  and  C_10
REMARK    2  A    between atoms: C_10  and  C_11
REMARK    3  A    between atoms: N_20  and  C_21
REMARK                            x       y       z     vdW  Elec       q    Type
REMARK                         _______ _______ _______ _____ _____    ______ ____
ROOT
ATOM      1  O   UNL     1       0.756   5.304  20.735  0.00  0.00    +0.000 OA
ATOM      2  C   UNL     1       1.581   5.439  19.832  0.00  0.00    +0.000 A 
ATOM      3  C   UNL     1       2.065   4.224  19.152  0.00  0.00    +0.000 A 
ATOM      4  C   UNL     1       1.458   2.991  19.433  0.00  0.00    +0.000 A 
ATOM      5  C   UNL     1       1.892   1.832  18.792  0.00  0.00    +0.000 A 
ATOM      6  C   UNL     1       2.946   1.906  17.891  0.00  0.00    +0.000 A 
ATOM      7  C   UNL     1       3.559   3.135  17.623  0.00  0.00    +0.000 A 
ATOM      8  C   UNL     1       3.117   4.315  18.243  0.00  0.00    +0.000 A 
ATOM      9  N   UNL     1       3.667   5.588  17.939  0.00  0.00    +0.000 N 
ATOM     10  C   UNL     1       3.121   6.770  18.435  0.00  0.00    +0.000 A 
ATOM     11  O   UNL     1       3.476   7.857  17.968  0.00  0.00    +0.000 OA
ATOM     12  N   UNL     1       2.133   6.654  19.420  0.00  0.00    +0.000 N 
ENDROOT
BRANCH  12  13
ATOM     13  C   UNL     1       1.639   7.873  19.999  0.00  0.00    +0.000 A 
ATOM     14  C   UNL     1       1.614   8.053  21.392  0.00  0.00    +0.000 A 
ATOM     15  C   UNL     1       1.029   9.195  21.949  0.00  0.00    +0.000 A 
ATOM     16  C   UNL     1       0.502  10.183  21.122  0.00  0.00    +0.000 A 
ATOM     17  C   UNL     1       0.564  10.027  19.745  0.00  0.00    +0.000 A 
ATOM     18  F   UNL     1       0.076  10.984  18.948  0.00  0.00    +0.000 F 
ATOM     19  C   UNL     1       1.118   8.883  19.179  0.00  0.00    +0.000 A 
ENDBRANCH  12  13
BRANCH   9  20
ATOM     20  C   UNL     1       4.760   5.731  16.969  0.00  0.00    +0.000 C 
BRANCH  20  21
ATOM     21  C   UNL     1       6.028   6.352  17.509  0.00  0.00    +0.000 A 
ATOM     22  C   UNL     1       6.550   7.576  17.063  0.00  0.00    +0.000 A 
ATOM     23  C   UNL     1       7.758   8.060  17.569  0.00  0.00    +0.000 A 
ATOM     24  C   UNL     1       8.446   7.345  18.547  0.00  0.00    +0.000 A 
ATOM     25  C   UNL     1       7.916   6.155  19.036  0.00  0.00    +0.000 A 
ATOM     26  C   UNL     1       6.717   5.673  18.519  0.00  0.00    +0.000 A 
ATOM     27  F   UNL     1       6.223   4.522  19.000  0.00  0.00    +0.000 F 
ENDBRANCH  20  21
ENDBRANCH   9  20
TORSDOF 3
ENDMDL
MODEL 8
REMARK VINA RESULT:      -7.8      5.119      7.499
REMARK  Name = 
REMARK  3 active torsions:
REMARK  status: ('A' for Active; 'I' for Inactive)
REMARK    1  A    between atoms: N_9  and  C_10
REMARK    2  A    between atoms: C_10  and  C_11
REMARK    3  A    between atoms: N_20  and  C_21
REMARK                            x       y       z     vdW  Elec       q    Type
REMARK                         _______ _______ _______ _____ _____    ______ ____
ROOT
ATOM      1  O   UNL     1       5.079   7.275  15.065  0.00  0.00    +0.000 OA
ATOM      2  C   UNL     1       4.861   6.358  15.855  0.00  0.00    +0.000 A 
ATOM      3  C   UNL     1       4.079   6.661  17.067  0.00  0.00    +0.000 A 
ATOM      4  C   UNL     1       3.476   7.920  17.197  0.00  0.00    +0.000 A 
ATOM      5  C   UNL     1       2.722   8.224  18.330  0.00  0.00    +0.000 A 
ATOM      6  C   UNL     1       2.594   7.276  19.337  0.00  0.00    +0.000 A 
ATOM      7  C   UNL     1       3.209   6.026  19.211  0.00  0.00    +0.000 A 
ATOM      8  C   UNL     1       3.951   5.697  18.064  0.00  0.00    +0.000 A 
ATOM      9  N   UNL     1       4.525   4.413  17.871  0.00  0.00    +0.000 N 
ATOM     10  C   UNL     1       5.123   4.041  16.669  0.00  0.00    +0.000 A 
ATOM     11  O   UNL     1       5.399   2.856  16.458  0.00  0.00    +0.000 OA
ATOM     12  N   UNL     1       5.330   5.049  15.719  0.00  0.00    +0.000 N 
ENDROOT
BRANCH  12  13
ATOM     13  C   UNL     1       6.032   4.683  14.519  0.00  0.00    +0.000 A 
ATOM     14  C   UNL     1       7.285   5.243  14.216  0.00  0.00    +0.000 A 
ATOM     15  C   UNL     1       7.908   4.967  12.995  0.00  0.00    +0.000 A 
ATOM     16  C   UNL     1       7.307   4.102  12.085  0.00  0.00    +0.000 A 
ATOM     17  C   UNL     1       6.090   3.515  12.400  0.00  0.00    +0.000 A 
ATOM     18  F   UNL     1       5.521   2.668  11.536  0.00  0.00    +0.000 F 
ATOM     19  C   UNL     1       5.447   3.803  13.600  0.00  0.00    +0.000 A 
ENDBRANCH  12  13
BRANCH   9  20
ATOM     20  C   UNL     1       4.393   3.362  18.887  0.00  0.00    +0.000 C 
BRANCH  20  21
ATOM     21  C   UNL     1       2.976   2.964  19.227  0.00  0.00    +0.000 A 
ATOM     22  C   UNL     1       2.017   2.593  18.271  0.00  0.00    +0.000 A 
ATOM     23  C   UNL     1       0.709   2.292  18.656  0.00  0.00    +0.000 A 
ATOM     24  C   UNL     1       0.347   2.328  20.001  0.00  0.00    +0.000 A 
ATOM     25  C   UNL     1       1.299   2.644  20.966  0.00  0.00    +0.000 A 
ATOM     26  C   UNL     1       2.598   2.954  20.574  0.00  0.00    +0.000 A 
ATOM     27  F   UNL     1       3.501   3.260  21.517  0.00  0.00    +0.000 F 
ENDBRANCH  20  21
ENDBRANCH   9  20
TORSDOF 3
ENDMDL
MODEL 9
REMARK VINA RESULT:      -7.8      4.974      7.392
REMARK  Name = 
REMARK  3 active torsions:
REMARK  status: ('A' for Active; 'I' for Inactive)
REMARK    1  A    between atoms: N_9  and  C_10
REMARK    2  A    between atoms: C_10  and  C_11
REMARK    3  A    between atoms: N_20  and  C_21
REMARK                            x       y       z     vdW  Elec       q    Type
REMARK                         _______ _______ _______ _____ _____    ______ ____
ROOT
ATOM      1  O   UNL     1       4.837   7.420  15.157  0.00  0.00    +0.000 OA
ATOM      2  C   UNL     1       4.706   6.486  15.947  0.00  0.00    +0.000 A 
ATOM      3  C   UNL     1       3.944   6.731  17.186  0.00  0.00    +0.000 A 
ATOM      4  C   UNL     1       3.262   7.946  17.343  0.00  0.00    +0.000 A 
ATOM      5  C   UNL     1       2.526   8.193  18.501  0.00  0.00    +0.000 A 
ATOM      6  C   UNL     1       2.494   7.235  19.505  0.00  0.00    +0.000 A 
ATOM      7  C   UNL     1       3.187   6.030  19.351  0.00  0.00    +0.000 A 
ATOM      8  C   UNL     1       3.913   5.756  18.180  0.00  0.00    +0.000 A 
ATOM      9  N   UNL     1       4.566   4.515  17.960  0.00  0.00    +0.000 N 
ATOM     10  C   UNL     1       5.148   4.189  16.738  0.00  0.00    +0.000 A 
ATOM     11  O   UNL     1       5.497   3.026  16.510  0.00  0.00    +0.000 OA
ATOM     12  N   UNL     1       5.258   5.213  15.789  0.00  0.00    +0.000 N 
ENDROOT
BRANCH  12  13
ATOM     13  C   UNL     1       5.944   4.900  14.565  0.00  0.00    +0.000 A 
ATOM     14  C   UNL     1       5.406   3.980  13.649  0.00  0.00    +0.000 A 
ATOM     15  C   UNL     1       6.133   3.599  12.517  0.00  0.00    +0.000 A 
ATOM     16  C   UNL     1       7.383   4.160  12.269  0.00  0.00    +0.000 A 
ATOM     17  C   UNL     1       7.897   5.101  13.149  0.00  0.00    +0.000 A 
ATOM     18  F   UNL     1       9.088   5.657  12.902  0.00  0.00    +0.000 F 
ATOM     19  C   UNL     1       7.196   5.468  14.294  0.00  0.00    +0.000 A 
ENDBRANCH  12  13
BRANCH   9  20
ATOM     20  C   UNL     1       4.537   3.452  18.973  0.00  0.00    +0.000 C 
BRANCH  20  21
ATOM     21  C   UNL     1       3.168   3.109  19.512  0.00  0.00    +0.000 A 
ATOM     22  C   UNL     1       2.806   3.233  20.862  0.00  0.00    +0.000 A 
ATOM     23  C   UNL     1       1.537   2.842  21.298  0.00  0.00    +0.000 A 
ATOM     24  C   UNL     1       0.604   2.349  20.388  0.00  0.00    +0.000 A 
ATOM     25  C   UNL     1       0.931   2.267  19.037  0.00  0.00    +0.000 A 
ATOM     26  C   UNL     1       2.200   2.648  18.613  0.00  0.00    +0.000 A 
ATOM     27  F   UNL     1       2.499   2.558  17.308  0.00  0.00    +0.000 F 
ENDBRANCH  20  21
ENDBRANCH   9  20
TORSDOF 3
ENDMDL
