MODEL 1
REMARK VINA RESULT:      -9.6      0.000      0.000
REMARK  Name = 
REMARK  5 active torsions:
REMARK  status: ('A' for Active; 'I' for Inactive)
REMARK    1  A    between atoms: C_1  and  C_2
REMARK    2  A    between atoms: C_4  and  C_5
REMARK    3  A    between atoms: C_6  and  C_7
REMARK    4  A    between atoms: C_14  and  N_15
REMARK    5  A    between atoms: N_15  and  C_16
REMARK                            x       y       z     vdW  Elec       q    Type
REMARK                         _______ _______ _______ _____ _____    ______ ____
ROOT
ATOM      1  C   UNL     1       7.295   4.925  14.307  0.00  0.00    +0.000 C 
ATOM      2  C   UNL     1       7.044   5.106  15.769  0.00  0.00    +0.000 A 
ATOM      3  N   UNL     1       7.554   6.206  16.338  0.00  0.00    +0.000 NA
ATOM      4  C   UNL     1       7.324   6.370  17.647  0.00  0.00    +0.000 A 
ATOM      5  C   UNL     1       6.604   5.460  18.398  0.00  0.00    +0.000 A 
ATOM      6  C   UNL     1       6.113   4.350  17.742  0.00  0.00    +0.000 A 
ATOM      7  N   UNL     1       6.334   4.163  16.429  0.00  0.00    +0.000 NA
ENDROOT
BRANCH   4   8
ATOM      8  C   UNL     1       7.895   7.576  18.270  0.00  0.00    +0.000 C 
ATOM      9  C   UNL     1       7.923   8.769  17.649  0.00  0.00    +0.000 C 
BRANCH   9  10
ATOM     10  C   UNL     1       8.535   9.996  18.178  0.00  0.00    +0.000 A 
ATOM     11  C   UNL     1       9.378   9.885  19.293  0.00  0.00    +0.000 A 
ATOM     12  C   UNL     1       9.986  11.013  19.847  0.00  0.00    +0.000 A 
ATOM     13  C   UNL     1       9.765  12.267  19.284  0.00  0.00    +0.000 A 
ATOM     14  C   UNL     1       8.952  12.389  18.158  0.00  0.00    +0.000 A 
ATOM     15  C   UNL     1       8.345  11.259  17.604  0.00  0.00    +0.000 A 
ENDBRANCH   9  10
ENDBRANCH   4   8
BRANCH   6  16
ATOM     16  N   UNL     1       5.317   3.398  18.333  0.00  0.00    +0.000 N 
ATOM     17  H   UNL     1       5.668   3.148  19.252  0.00  0.00    +0.000 HD
BRANCH  16  18
ATOM     18  C   UNL     1       3.888   3.202  18.101  0.00  0.00    +0.000 C 
ATOM     19  C   UNL     1       3.371   4.304  17.168  0.00  0.00    +0.000 C 
ATOM     20  C   UNL     1       1.857   4.497  17.108  0.00  0.00    +0.000 C 
ATOM     21  C   UNL     1       1.006   3.806  18.170  0.00  0.00    +0.000 C 
ATOM     22  C   UNL     1       1.727   3.349  19.405  0.00  0.00    +0.000 A 
ATOM     23  C   UNL     1       0.963   3.027  20.541  0.00  0.00    +0.000 A 
ATOM     24  C   UNL     1       1.571   2.553  21.700  0.00  0.00    +0.000 A 
ATOM     25  C   UNL     1       2.953   2.412  21.741  0.00  0.00    +0.000 A 
ATOM     26  C   UNL     1       3.718   2.693  20.605  0.00  0.00    +0.000 A 
ATOM     27  C   UNL     1       3.117   3.140  19.414  0.00  0.00    +0.000 A 
ENDBRANCH  16  18
ENDBRANCH   6  16
TORSDOF 4
ENDMDL
MODEL 2
REMARK VINA RESULT:      -9.4      1.724      2.519
REMARK  Name = 
REMARK  5 active torsions:
REMARK  status: ('A' for Active; 'I' for Inactive)
REMARK    1  A    between atoms: C_1  and  C_2
REMARK    2  A    between atoms: C_4  and  C_5
REMARK    3  A    between atoms: C_6  and  C_7
REMARK    4  A    between atoms: C_14  and  N_15
REMARK    5  A    between atoms: N_15  and  C_16
REMARK                            x       y       z     vdW  Elec       q    Type
REMARK                         _______ _______ _______ _____ _____    ______ ____
ROOT
ATOM      1  C   UNL     1       7.198   4.760  13.973  0.00  0.00    +0.000 C 
ATOM      2  C   UNL     1       6.735   5.168  15.335  0.00  0.00    +0.000 A 
ATOM      3  N   UNL     1       7.449   6.116  15.957  0.00  0.00    +0.000 NA
ATOM      4  C   UNL     1       7.030   6.484  17.175  0.00  0.00    +0.000 A 
ATOM      5  C   UNL     1       5.924   5.923  17.784  0.00  0.00    +0.000 A 
ATOM      6  C   UNL     1       5.242   4.951  17.083  0.00  0.00    +0.000 A 
ATOM      7  N   UNL     1       5.645   4.563  15.860  0.00  0.00    +0.000 NA
ENDROOT
BRANCH   4   8
ATOM      8  C   UNL     1       7.824   7.520  17.858  0.00  0.00    +0.000 C 
ATOM      9  C   UNL     1       7.683   8.831  17.596  0.00  0.00    +0.000 C 
BRANCH   9  10
ATOM     10  C   UNL     1       8.484   9.913  18.186  0.00  0.00    +0.000 A 
ATOM     11  C   UNL     1       8.410  11.185  17.599  0.00  0.00    +0.000 A 
ATOM     12  C   UNL     1       9.150  12.254  18.108  0.00  0.00    +0.000 A 
ATOM     13  C   UNL     1       9.965  12.065  19.220  0.00  0.00    +0.000 A 
ATOM     14  C   UNL     1      10.027  10.814  19.832  0.00  0.00    +0.000 A 
ATOM     15  C   UNL     1       9.285   9.745  19.322  0.00  0.00    +0.000 A 
ENDBRANCH   9  10
ENDBRANCH   4   8
BRANCH   6  16
ATOM     16  N   UNL     1       4.083   4.356  17.522  0.00  0.00    +0.000 N 
ATOM     17  H   UNL     1       3.769   3.643  16.871  0.00  0.00    +0.000 HD
BRANCH  16  18
ATOM     18  C   UNL     1       3.663   4.205  18.913  0.00  0.00    +0.000 C 
ATOM     19  C   UNL     1       2.997   2.836  19.094  0.00  0.00    +0.000 C 
ATOM     20  C   UNL     1       2.165   2.641  20.360  0.00  0.00    +0.000 C 
ATOM     21  C   UNL     1       1.818   3.878  21.185  0.00  0.00    +0.000 C 
ATOM     22  C   UNL     1       1.955   5.200  20.488  0.00  0.00    +0.000 A 
ATOM     23  C   UNL     1       1.334   6.323  21.064  0.00  0.00    +0.000 A 
ATOM     24  C   UNL     1       1.466   7.584  20.490  0.00  0.00    +0.000 A 
ATOM     25  C   UNL     1       2.204   7.733  19.322  0.00  0.00    +0.000 A 
ATOM     26  C   UNL     1       2.856   6.630  18.762  0.00  0.00    +0.000 A 
ATOM     27  C   UNL     1       2.763   5.355  19.348  0.00  0.00    +0.000 A 
ENDBRANCH  16  18
ENDBRANCH   6  16
TORSDOF 4
ENDMDL
MODEL 3
REMARK VINA RESULT:      -9.0      4.252      6.927
REMARK  Name = 
REMARK  5 active torsions:
REMARK  status: ('A' for Active; 'I' for Inactive)
REMARK    1  A    between atoms: C_1  and  C_2
REMARK    2  A    between atoms: C_4  and  C_5
REMARK    3  A    between atoms: C_6  and  C_7
REMARK    4  A    between atoms: C_14  and  N_15
REMARK    5  A    between atoms: N_15  and  C_16
REMARK                            x       y       z     vdW  Elec       q    Type
REMARK                         _______ _______ _______ _____ _____    ______ ____
ROOT
ATOM      1  C   UNL     1       2.350   2.444  20.706  0.00  0.00    +0.000 C 
ATOM      2  C   UNL     1       2.801   3.591  19.860  0.00  0.00    +0.000 A 
ATOM      3  N   UNL     1       3.402   3.287  18.702  0.00  0.00    +0.000 NA
ATOM      4  C   UNL     1       3.801   4.316  17.941  0.00  0.00    +0.000 A 
ATOM      5  C   UNL     1       3.619   5.634  18.315  0.00  0.00    +0.000 A 
ATOM      6  C   UNL     1       2.994   5.867  19.522  0.00  0.00    +0.000 A 
ATOM      7  N   UNL     1       2.588   4.850  20.303  0.00  0.00    +0.000 NA
ENDROOT
BRANCH   4   8
ATOM      8  C   UNL     1       4.470   3.976  16.674  0.00  0.00    +0.000 C 
ATOM      9  C   UNL     1       5.253   4.846  16.012  0.00  0.00    +0.000 C 
BRANCH   9  10
ATOM     10  C   UNL     1       5.897   4.603  14.713  0.00  0.00    +0.000 A 
ATOM     11  C   UNL     1       5.250   3.753  13.805  0.00  0.00    +0.000 A 
ATOM     12  C   UNL     1       5.812   3.476  12.557  0.00  0.00    +0.000 A 
ATOM     13  C   UNL     1       7.024   4.057  12.199  0.00  0.00    +0.000 A 
ATOM     14  C   UNL     1       7.665   4.926  13.080  0.00  0.00    +0.000 A 
ATOM     15  C   UNL     1       7.102   5.204  14.328  0.00  0.00    +0.000 A 
ENDBRANCH   9  10
ENDBRANCH   4   8
BRANCH   6  16
ATOM     16  N   UNL     1       2.675   7.118  19.993  0.00  0.00    +0.000 N 
ATOM     17  H   UNL     1       3.476   7.558  20.434  0.00  0.00    +0.000 HD
BRANCH  16  18
ATOM     18  C   UNL     1       1.654   8.010  19.450  0.00  0.00    +0.000 C 
ATOM     19  C   UNL     1       2.235   8.777  18.256  0.00  0.00    +0.000 C 
ATOM     20  C   UNL     1       1.465  10.013  17.794  0.00  0.00    +0.000 C 
ATOM     21  C   UNL     1       0.370  10.555  18.709  0.00  0.00    +0.000 C 
ATOM     22  C   UNL     1       0.416  10.104  20.140  0.00  0.00    +0.000 A 
ATOM     23  C   UNL     1      -0.336  10.820  21.089  0.00  0.00    +0.000 A 
ATOM     24  C   UNL     1      -0.371  10.421  22.421  0.00  0.00    +0.000 A 
ATOM     25  C   UNL     1       0.360   9.310  22.824  0.00  0.00    +0.000 A 
ATOM     26  C   UNL     1       1.080   8.569  21.883  0.00  0.00    +0.000 A 
ATOM     27  C   UNL     1       1.099   8.937  20.525  0.00  0.00    +0.000 A 
ENDBRANCH  16  18
ENDBRANCH   6  16
TORSDOF 4
ENDMDL
MODEL 4
REMARK VINA RESULT:      -9.0      2.118      2.599
REMARK  Name = 
REMARK  5 active torsions:
REMARK  status: ('A' for Active; 'I' for Inactive)
REMARK    1  A    between atoms: C_1  and  C_2
REMARK    2  A    between atoms: C_4  and  C_5
REMARK    3  A    between atoms: C_6  and  C_7
REMARK    4  A    between atoms: C_14  and  N_15
REMARK    5  A    between atoms: N_15  and  C_16
REMARK                            x       y       z     vdW  Elec       q    Type
REMARK                         _______ _______ _______ _____ _____    ______ ____
ROOT
ATOM      1  C   UNL     1       7.321   4.657  14.400  0.00  0.00    +0.000 C 
ATOM      2  C   UNL     1       6.794   5.391  15.589  0.00  0.00    +0.000 A 
ATOM      3  N   UNL     1       7.608   6.296  16.150  0.00  0.00    +0.000 NA
ATOM      4  C   UNL     1       7.133   6.958  17.213  0.00  0.00    +0.000 A 
ATOM      5  C   UNL     1       5.872   6.731  17.731  0.00  0.00    +0.000 A 
ATOM      6  C   UNL     1       5.094   5.781  17.102  0.00  0.00    +0.000 A 
ATOM      7  N   UNL     1       5.551   5.103  16.035  0.00  0.00    +0.000 NA
ENDROOT
BRANCH   4   8
ATOM      8  C   UNL     1       8.035   7.946  17.831  0.00  0.00    +0.000 C 
ATOM      9  C   UNL     1       7.778   9.265  17.823  0.00  0.00    +0.000 C 
BRANCH   9  10
ATOM     10  C   UNL     1       8.661  10.313  18.358  0.00  0.00    +0.000 A 
ATOM     11  C   UNL     1       9.325  10.061  19.567  0.00  0.00    +0.000 A 
ATOM     12  C   UNL     1      10.173  11.017  20.131  0.00  0.00    +0.000 A 
ATOM     13  C   UNL     1      10.375  12.232  19.484  0.00  0.00    +0.000 A 
ATOM     14  C   UNL     1       9.744  12.485  18.267  0.00  0.00    +0.000 A 
ATOM     15  C   UNL     1       8.897  11.527  17.703  0.00  0.00    +0.000 A 
ENDBRANCH   9  10
ENDBRANCH   4   8
BRANCH   6  16
ATOM     16  N   UNL     1       3.794   5.498  17.451  0.00  0.00    +0.000 N 
ATOM     17  H   UNL     1       3.271   5.148  16.655  0.00  0.00    +0.000 HD
BRANCH  16  18
ATOM     18  C   UNL     1       3.324   5.097  18.774  0.00  0.00    +0.000 C 
ATOM     19  C   UNL     1       2.654   3.721  18.677  0.00  0.00    +0.000 C 
ATOM     20  C   UNL     1       1.775   3.301  19.854  0.00  0.00    +0.000 C 
ATOM     21  C   UNL     1       1.395   4.368  20.877  0.00  0.00    +0.000 C 
ATOM     22  C   UNL     1       1.555   5.795  20.439  0.00  0.00    +0.000 A 
ATOM     23  C   UNL     1       0.911   6.797  21.188  0.00  0.00    +0.000 A 
ATOM     24  C   UNL     1       1.061   8.141  20.860  0.00  0.00    +0.000 A 
ATOM     25  C   UNL     1       1.842   8.497  19.768  0.00  0.00    +0.000 A 
ATOM     26  C   UNL     1       2.516   7.513  19.040  0.00  0.00    +0.000 A 
ATOM     27  C   UNL     1       2.405   6.152  19.379  0.00  0.00    +0.000 A 
ENDBRANCH  16  18
ENDBRANCH   6  16
TORSDOF 4
ENDMDL
MODEL 5
REMARK VINA RESULT:      -8.8      4.261      6.805
REMARK  Name = 
REMARK  5 active torsions:
REMARK  status: ('A' for Active; 'I' for Inactive)
REMARK    1  A    between atoms: C_1  and  C_2
REMARK    2  A    between atoms: C_4  and  C_5
REMARK    3  A    between atoms: C_6  and  C_7
REMARK    4  A    between atoms: C_14  and  N_15
REMARK    5  A    between atoms: N_15  and  C_16
REMARK                            x       y       z     vdW  Elec       q    Type
REMARK                         _______ _______ _______ _____ _____    ______ ____
ROOT
ATOM      1  C   UNL     1       4.050   2.585  20.114  0.00  0.00    +0.000 C 
ATOM      2  C   UNL     1       3.925   3.904  19.423  0.00  0.00    +0.000 A 
ATOM      3  N   UNL     1       4.423   3.985  18.182  0.00  0.00    +0.000 NA
ATOM      4  C   UNL     1       4.305   5.167  17.562  0.00  0.00    +0.000 A 
ATOM      5  C   UNL     1       3.711   6.265  18.154  0.00  0.00    +0.000 A 
ATOM      6  C   UNL     1       3.225   6.104  19.435  0.00  0.00    +0.000 A 
ATOM      7  N   UNL     1       3.334   4.929  20.078  0.00  0.00    +0.000 NA
ENDROOT
BRANCH   4   8
ATOM      8  C   UNL     1       4.863   5.254  16.201  0.00  0.00    +0.000 C 
ATOM      9  C   UNL     1       5.435   4.205  15.584  0.00  0.00    +0.000 C 
BRANCH   9  10
ATOM     10  C   UNL     1       6.071   4.233  14.259  0.00  0.00    +0.000 A 
ATOM     11  C   UNL     1       7.215   5.026  14.093  0.00  0.00    +0.000 A 
ATOM     12  C   UNL     1       7.863   5.101  12.858  0.00  0.00    +0.000 A 
ATOM     13  C   UNL     1       7.378   4.372  11.776  0.00  0.00    +0.000 A 
ATOM     14  C   UNL     1       6.258   3.557  11.933  0.00  0.00    +0.000 A 
ATOM     15  C   UNL     1       5.612   3.482  13.170  0.00  0.00    +0.000 A 
ENDBRANCH   9  10
ENDBRANCH   4   8
BRANCH   6  16
ATOM     16  N   UNL     1       2.542   7.078  20.126  0.00  0.00    +0.000 N 
ATOM     17  H   UNL     1       3.111   7.461  20.874  0.00  0.00    +0.000 HD
BRANCH  16  18
ATOM     18  C   UNL     1       1.494   7.942  19.589  0.00  0.00    +0.000 C 
ATOM     19  C   UNL     1       2.022   8.664  18.344  0.00  0.00    +0.000 C 
ATOM     20  C   UNL     1       1.226   9.877  17.865  0.00  0.00    +0.000 C 
ATOM     21  C   UNL     1       0.165  10.449  18.802  0.00  0.00    +0.000 C 
ATOM     22  C   UNL     1       0.271  10.055  20.246  0.00  0.00    +0.000 A 
ATOM     23  C   UNL     1      -0.447  10.804  21.195  0.00  0.00    +0.000 A 
ATOM     24  C   UNL     1      -0.426  10.457  22.543  0.00  0.00    +0.000 A 
ATOM     25  C   UNL     1       0.328   9.367  22.959  0.00  0.00    +0.000 A 
ATOM     26  C   UNL     1       1.015   8.593  22.019  0.00  0.00    +0.000 A 
ATOM     27  C   UNL     1       0.977   8.908  20.648  0.00  0.00    +0.000 A 
ENDBRANCH  16  18
ENDBRANCH   6  16
TORSDOF 4
ENDMDL
MODEL 6
REMARK VINA RESULT:      -8.8      6.931      8.883
REMARK  Name = 
REMARK  5 active torsions:
REMARK  status: ('A' for Active; 'I' for Inactive)
REMARK    1  A    between atoms: C_1  and  C_2
REMARK    2  A    between atoms: C_4  and  C_5
REMARK    3  A    between atoms: C_6  and  C_7
REMARK    4  A    between atoms: C_14  and  N_15
REMARK    5  A    between atoms: N_15  and  C_16
REMARK                            x       y       z     vdW  Elec       q    Type
REMARK                         _______ _______ _______ _____ _____    ______ ____
ROOT
ATOM      1  C   UNL     1       0.904   8.648  21.851  0.00  0.00    +0.000 C 
ATOM      2  C   UNL     1       1.021   8.944  20.391  0.00  0.00    +0.000 A 
ATOM      3  N   UNL     1       1.977   8.290  19.717  0.00  0.00    +0.000 NA
ATOM      4  C   UNL     1       2.077   8.552  18.407  0.00  0.00    +0.000 A 
ATOM      5  C   UNL     1       1.254   9.454  17.761  0.00  0.00    +0.000 A 
ATOM      6  C   UNL     1       0.295  10.091  18.523  0.00  0.00    +0.000 A 
ATOM      7  N   UNL     1       0.178   9.845  19.840  0.00  0.00    +0.000 NA
ENDROOT
BRANCH   4   8
ATOM      8  C   UNL     1       3.136   7.838  17.673  0.00  0.00    +0.000 C 
ATOM      9  C   UNL     1       3.456   6.557  17.927  0.00  0.00    +0.000 C 
BRANCH   9  10
ATOM     10  C   UNL     1       4.541   5.801  17.284  0.00  0.00    +0.000 A 
ATOM     11  C   UNL     1       5.786   6.431  17.138  0.00  0.00    +0.000 A 
ATOM     12  C   UNL     1       6.855   5.770  16.531  0.00  0.00    +0.000 A 
ATOM     13  C   UNL     1       6.695   4.465  16.073  0.00  0.00    +0.000 A 
ATOM     14  C   UNL     1       5.472   3.817  16.237  0.00  0.00    +0.000 A 
ATOM     15  C   UNL     1       4.402   4.479  16.846  0.00  0.00    +0.000 A 
ENDBRANCH   9  10
ENDBRANCH   4   8
BRANCH   6  16
ATOM     16  N   UNL     1      -0.645  10.954  18.012  0.00  0.00    +0.000 N 
ATOM     17  H   UNL     1      -0.225  11.599  17.350  0.00  0.00    +0.000 HD
BRANCH  16  18
ATOM     18  C   UNL     1      -2.070  10.680  17.847  0.00  0.00    +0.000 C 
ATOM     19  C   UNL     1      -2.419  10.697  16.354  0.00  0.00    +0.000 C 
ATOM     20  C   UNL     1      -3.901  10.808  15.998  0.00  0.00    +0.000 C 
ATOM     21  C   UNL     1      -4.876  11.183  17.111  0.00  0.00    +0.000 C 
ATOM     22  C   UNL     1      -4.277  11.809  18.336  0.00  0.00    +0.000 A 
ATOM     23  C   UNL     1      -5.135  12.479  19.228  0.00  0.00    +0.000 A 
ATOM     24  C   UNL     1      -4.645  13.038  20.405  0.00  0.00    +0.000 A 
ATOM     25  C   UNL     1      -3.289  12.950  20.694  0.00  0.00    +0.000 A 
ATOM     26  C   UNL     1      -2.435  12.254  19.833  0.00  0.00    +0.000 A 
ATOM     27  C   UNL     1      -2.918  11.652  18.657  0.00  0.00    +0.000 A 
ENDBRANCH  16  18
ENDBRANCH   6  16
TORSDOF 4
ENDMDL
MODEL 7
REMARK VINA RESULT:      -8.8      1.328      1.409
REMARK  Name = 
REMARK  5 active torsions:
REMARK  status: ('A' for Active; 'I' for Inactive)
REMARK    1  A    between atoms: C_1  and  C_2
REMARK    2  A    between atoms: C_4  and  C_5
REMARK    3  A    between atoms: C_6  and  C_7
REMARK    4  A    between atoms: C_14  and  N_15
REMARK    5  A    between atoms: N_15  and  C_16
REMARK                            x       y       z     vdW  Elec       q    Type
REMARK                         _______ _______ _______ _____ _____    ______ ____
ROOT
ATOM      1  C   UNL     1       7.219   4.768  13.707  0.00  0.00    +0.000 C 
ATOM      2  C   UNL     1       6.751   5.113  15.083  0.00  0.00    +0.000 A 
ATOM      3  N   UNL     1       7.451   6.046  15.743  0.00  0.00    +0.000 NA
ATOM      4  C   UNL     1       7.027   6.359  16.975  0.00  0.00    +0.000 A 
ATOM      5  C   UNL     1       5.931   5.756  17.562  0.00  0.00    +0.000 A 
ATOM      6  C   UNL     1       5.264   4.801  16.822  0.00  0.00    +0.000 A 
ATOM      7  N   UNL     1       5.673   4.470  15.585  0.00  0.00    +0.000 NA
ENDROOT
BRANCH   4   8
ATOM      8  C   UNL     1       7.805   7.379  17.699  0.00  0.00    +0.000 C 
ATOM      9  C   UNL     1       7.603   8.697  17.532  0.00  0.00    +0.000 C 
BRANCH   9  10
ATOM     10  C   UNL     1       8.382   9.771  18.167  0.00  0.00    +0.000 A 
ATOM     11  C   UNL     1       9.021   9.491  19.383  0.00  0.00    +0.000 A 
ATOM     12  C   UNL     1       9.771  10.468  20.040  0.00  0.00    +0.000 A 
ATOM     13  C   UNL     1       9.900  11.736  19.479  0.00  0.00    +0.000 A 
ATOM     14  C   UNL     1       9.295  12.020  18.256  0.00  0.00    +0.000 A 
ATOM     15  C   UNL     1       8.546  11.040  17.599  0.00  0.00    +0.000 A 
ENDBRANCH   9  10
ENDBRANCH   4   8
BRANCH   6  16
ATOM     16  N   UNL     1       4.115   4.171  17.238  0.00  0.00    +0.000 N 
ATOM     17  H   UNL     1       4.267   3.173  17.350  0.00  0.00    +0.000 HD
BRANCH  16  18
ATOM     18  C   UNL     1       3.044   4.765  18.033  0.00  0.00    +0.000 C 
ATOM     19  C   UNL     1       3.246   6.284  18.100  0.00  0.00    +0.000 C 
ATOM     20  C   UNL     1       2.465   7.033  19.179  0.00  0.00    +0.000 C 
ATOM     21  C   UNL     1       1.789   6.209  20.272  0.00  0.00    +0.000 C 
ATOM     22  C   UNL     1       2.280   4.801  20.443  0.00  0.00    +0.000 A 
ATOM     23  C   UNL     1       1.952   4.121  21.629  0.00  0.00    +0.000 A 
ATOM     24  C   UNL     1       2.338   2.798  21.824  0.00  0.00    +0.000 A 
ATOM     25  C   UNL     1       3.073   2.146  20.842  0.00  0.00    +0.000 A 
ATOM     26  C   UNL     1       3.372   2.800  19.643  0.00  0.00    +0.000 A 
ATOM     27  C   UNL     1       2.960   4.126  19.414  0.00  0.00    +0.000 A 
ENDBRANCH  16  18
ENDBRANCH   6  16
TORSDOF 4
ENDMDL
MODEL 8
REMARK VINA RESULT:      -8.7      3.095      3.850
REMARK  Name = 
REMARK  5 active torsions:
REMARK  status: ('A' for Active; 'I' for Inactive)
REMARK    1  A    between atoms: C_1  and  C_2
REMARK    2  A    between atoms: C_4  and  C_5
REMARK    3  A    between atoms: C_6  and  C_7
REMARK    4  A    between atoms: C_14  and  N_15
REMARK    5  A    between atoms: N_15  and  C_16
REMARK                            x       y       z     vdW  Elec       q    Type
REMARK                         _______ _______ _______ _____ _____    ______ ____
ROOT
ATOM      1  C   UNL     1       6.802   4.099  15.138  0.00  0.00    +0.000 C 
ATOM      2  C   UNL     1       6.451   5.245  16.030  0.00  0.00    +0.000 A 
ATOM      3  N   UNL     1       7.435   6.105  16.324  0.00  0.00    +0.000 NA
ATOM      4  C   UNL     1       7.118   7.136  17.120  0.00  0.00    +0.000 A 
ATOM      5  C   UNL     1       5.848   7.318  17.632  0.00  0.00    +0.000 A 
ATOM      6  C   UNL     1       4.888   6.389  17.288  0.00  0.00    +0.000 A 
ATOM      7  N   UNL     1       5.184   5.346  16.493  0.00  0.00    +0.000 NA
ENDROOT
BRANCH   4   8
ATOM      8  C   UNL     1       8.205   8.073  17.447  0.00  0.00    +0.000 C 
ATOM      9  C   UNL     1       8.025   9.143  18.242  0.00  0.00    +0.000 C 
BRANCH   9  10
ATOM     10  C   UNL     1       9.043  10.156  18.557  0.00  0.00    +0.000 A 
ATOM     11  C   UNL     1       9.317  10.417  19.908  0.00  0.00    +0.000 A 
ATOM     12  C   UNL     1      10.268  11.371  20.274  0.00  0.00    +0.000 A 
ATOM     13  C   UNL     1      10.964  12.070  19.292  0.00  0.00    +0.000 A 
ATOM     14  C   UNL     1      10.722  11.801  17.945  0.00  0.00    +0.000 A 
ATOM     15  C   UNL     1       9.771  10.844  17.580  0.00  0.00    +0.000 A 
ENDBRANCH   9  10
ENDBRANCH   4   8
BRANCH   6  16
ATOM     16  N   UNL     1       3.566   6.476  17.655  0.00  0.00    +0.000 N 
ATOM     17  H   UNL     1       2.987   5.874  17.079  0.00  0.00    +0.000 HD
BRANCH  16  18
ATOM     18  C   UNL     1       3.059   6.796  18.987  0.00  0.00    +0.000 C 
ATOM     19  C   UNL     1       2.353   5.565  19.568  0.00  0.00    +0.000 C 
ATOM     20  C   UNL     1       1.440   5.801  20.770  0.00  0.00    +0.000 C 
ATOM     21  C   UNL     1       1.071   7.242  21.113  0.00  0.00    +0.000 C 
ATOM     22  C   UNL     1       1.279   8.258  20.028  0.00  0.00    +0.000 A 
ATOM     23  C   UNL     1       0.650   9.509  20.158  0.00  0.00    +0.000 A 
ATOM     24  C   UNL     1       0.844  10.508  19.208  0.00  0.00    +0.000 A 
ATOM     25  C   UNL     1       1.656  10.260  18.108  0.00  0.00    +0.000 A 
ATOM     26  C   UNL     1       2.316   9.034  17.989  0.00  0.00    +0.000 A 
ATOM     27  C   UNL     1       2.160   8.025  18.957  0.00  0.00    +0.000 A 
ENDBRANCH  16  18
ENDBRANCH   6  16
TORSDOF 4
ENDMDL
MODEL 9
REMARK VINA RESULT:      -8.7      1.794      2.770
REMARK  Name = 
REMARK  5 active torsions:
REMARK  status: ('A' for Active; 'I' for Inactive)
REMARK    1  A    between atoms: C_1  and  C_2
REMARK    2  A    between atoms: C_4  and  C_5
REMARK    3  A    between atoms: C_6  and  C_7
REMARK    4  A    between atoms: C_14  and  N_15
REMARK    5  A    between atoms: N_15  and  C_16
REMARK                            x       y       z     vdW  Elec       q    Type
REMARK                         _______ _______ _______ _____ _____    ______ ____
ROOT
ATOM      1  C   UNL     1       8.386   5.109  19.904  0.00  0.00    +0.000 C 
ATOM      2  C   UNL     1       7.647   5.997  18.955  0.00  0.00    +0.000 A 
ATOM      3  N   UNL     1       8.207   7.181  18.675  0.00  0.00    +0.000 NA
ATOM      4  C   UNL     1       7.546   7.974  17.820  0.00  0.00    +0.000 A 
ATOM      5  C   UNL     1       6.341   7.613  17.249  0.00  0.00    +0.000 A 
ATOM      6  C   UNL     1       5.826   6.379  17.588  0.00  0.00    +0.000 A 
ATOM      7  N   UNL     1       6.470   5.568  18.446  0.00  0.00    +0.000 NA
ENDROOT
BRANCH   4   8
ATOM      8  C   UNL     1       8.161   9.279  17.523  0.00  0.00    +0.000 C 
ATOM      9  C   UNL     1       8.970   9.913  18.390  0.00  0.00    +0.000 C 
BRANCH   9  10
ATOM     10  C   UNL     1       9.564  11.243  18.192  0.00  0.00    +0.000 A 
ATOM     11  C   UNL     1       8.727  12.281  17.757  0.00  0.00    +0.000 A 
ATOM     12  C   UNL     1       9.231  13.565  17.544  0.00  0.00    +0.000 A 
ATOM     13  C   UNL     1      10.578  13.829  17.775  0.00  0.00    +0.000 A 
ATOM     14  C   UNL     1      11.415  12.815  18.235  0.00  0.00    +0.000 A 
ATOM     15  C   UNL     1      10.910  11.530  18.449  0.00  0.00    +0.000 A 
ENDBRANCH   9  10
ENDBRANCH   4   8
BRANCH   6  16
ATOM     16  N   UNL     1       4.679   5.849  17.045  0.00  0.00    +0.000 N 
ATOM     17  H   UNL     1       4.898   5.166  16.327  0.00  0.00    +0.000 HD
BRANCH  16  18
ATOM     18  C   UNL     1       3.392   5.703  17.720  0.00  0.00    +0.000 C 
ATOM     19  C   UNL     1       3.294   6.734  18.852  0.00  0.00    +0.000 C 
ATOM     20  C   UNL     1       2.208   6.499  19.901  0.00  0.00    +0.000 C 
ATOM     21  C   UNL     1       1.514   5.140  19.917  0.00  0.00    +0.000 C 
ATOM     22  C   UNL     1       2.219   4.024  19.202  0.00  0.00    +0.000 A 
ATOM     23  C   UNL     1       1.817   2.703  19.469  0.00  0.00    +0.000 A 
ATOM     24  C   UNL     1       2.400   1.630  18.802  0.00  0.00    +0.000 A 
ATOM     25  C   UNL     1       3.406   1.866  17.872  0.00  0.00    +0.000 A 
ATOM     26  C   UNL     1       3.787   3.177  17.572  0.00  0.00    +0.000 A 
ATOM     27  C   UNL     1       3.183   4.276  18.211  0.00  0.00    +0.000 A 
ENDBRANCH  16  18
ENDBRANCH   6  16
TORSDOF 4
ENDMDL
