MODEL 1
REMARK VINA RESULT:      -8.7      0.000      0.000
REMARK  Name = 
REMARK  5 active torsions:
REMARK  status: ('A' for Active; 'I' for Inactive)
REMARK    1  A    between atoms: N_5  and  C_6
REMARK    2  A    between atoms: C_6  and  C_7
REMARK    3  A    between atoms: C_10  and  C_11
REMARK    4  A    between atoms: C_22  and  O_23
REMARK    5  A    between atoms: O_23  and  C_24
REMARK                            x       y       z     vdW  Elec       q    Type
REMARK                         _______ _______ _______ _____ _____    ______ ____
ROOT
ATOM      1  O   UNL     1       1.997   2.208  17.349  0.00  0.00    +0.000 OA
ATOM      2  C   UNL     1       2.470   3.168  17.912  0.00  0.00    +0.000 C 
ATOM      3  C   UNL     1       1.886   3.931  19.129  0.00  0.00    +0.000 C 
ATOM      4  O   UNL     1       0.838   3.684  19.682  0.00  0.00    +0.000 OA
ATOM      5  N   UNL     1       2.816   4.913  19.419  0.00  0.00    +0.000 N 
ATOM      6  C   UNL     1       3.884   4.881  18.509  0.00  0.00    +0.000 A 
ATOM      7  C   UNL     1       4.991   5.704  18.432  0.00  0.00    +0.000 A 
ATOM      8  C   UNL     1       5.953   5.412  17.455  0.00  0.00    +0.000 A 
ATOM      9  C   UNL     1       5.815   4.315  16.574  0.00  0.00    +0.000 A 
ATOM     10  C   UNL     1       4.657   3.540  16.611  0.00  0.00    +0.000 A 
ATOM     11  C   UNL     1       3.730   3.839  17.596  0.00  0.00    +0.000 A 
ENDROOT
BRANCH   5  12
ATOM     12  C   UNL     1       2.659   5.868  20.496  0.00  0.00    +0.000 C 
BRANCH  12  13
ATOM     13  C   UNL     1       2.057   7.171  20.024  0.00  0.00    +0.000 A 
ATOM     14  C   UNL     1       2.261   7.609  18.720  0.00  0.00    +0.000 A 
ATOM     15  C   UNL     1       1.766   8.857  18.339  0.00  0.00    +0.000 A 
ATOM     16  C   UNL     1       1.072   9.666  19.250  0.00  0.00    +0.000 A 
ATOM     17  C   UNL     1       0.901   9.116  20.523  0.00  0.00    +0.000 A 
ATOM     18  N   UNL     1       1.374   7.910  20.932  0.00  0.00    +0.000 NA
BRANCH  16  19
ATOM     19  C   UNL     1       0.580  11.014  18.891  0.00  0.00    +0.000 A 
ATOM     20  C   UNL     1       1.429  12.131  18.889  0.00  0.00    +0.000 A 
ATOM     21  C   UNL     1       0.916  13.381  18.570  0.00  0.00    +0.000 A 
ATOM     22  N   UNL     1      -0.372  13.603  18.246  0.00  0.00    +0.000 NA
ATOM     23  C   UNL     1      -1.183  12.528  18.246  0.00  0.00    +0.000 A 
ATOM     24  C   UNL     1      -0.763  11.242  18.558  0.00  0.00    +0.000 A 
ENDBRANCH  16  19
ENDBRANCH  12  13
ENDBRANCH   5  12
BRANCH   9  25
ATOM     25  O   UNL     1       6.852   4.154  15.707  0.00  0.00    +0.000 OA
BRANCH  25  26
ATOM     26  C   UNL     1       6.703   4.564  14.352  0.00  0.00    +0.000 C 
ATOM     27  F   UNL     1       7.760   5.238  13.857  0.00  0.00    +0.000 F 
ATOM     28  F   UNL     1       6.478   3.477  13.582  0.00  0.00    +0.000 F 
ATOM     29  F   UNL     1       5.622   5.372  14.265  0.00  0.00    +0.000 F 
ENDBRANCH  25  26
ENDBRANCH   9  25
TORSDOF 5
ENDMDL
MODEL 2
REMARK VINA RESULT:      -8.3      0.633      1.472
REMARK  Name = 
REMARK  5 active torsions:
REMARK  status: ('A' for Active; 'I' for Inactive)
REMARK    1  A    between atoms: N_5  and  C_6
REMARK    2  A    between atoms: C_6  and  C_7
REMARK    3  A    between atoms: C_10  and  C_11
REMARK    4  A    between atoms: C_22  and  O_23
REMARK    5  A    between atoms: O_23  and  C_24
REMARK                            x       y       z     vdW  Elec       q    Type
REMARK                         _______ _______ _______ _____ _____    ______ ____
ROOT
ATOM      1  O   UNL     1       2.203   2.510  16.808  0.00  0.00    +0.000 OA
ATOM      2  C   UNL     1       2.653   3.381  17.514  0.00  0.00    +0.000 C 
ATOM      3  C   UNL     1       2.007   3.996  18.782  0.00  0.00    +0.000 C 
ATOM      4  O   UNL     1       0.925   3.702  19.238  0.00  0.00    +0.000 OA
ATOM      5  N   UNL     1       2.929   4.916  19.248  0.00  0.00    +0.000 N 
ATOM      6  C   UNL     1       4.049   4.978  18.404  0.00  0.00    +0.000 A 
ATOM      7  C   UNL     1       5.169   5.782  18.495  0.00  0.00    +0.000 A 
ATOM      8  C   UNL     1       6.184   5.597  17.546  0.00  0.00    +0.000 A 
ATOM      9  C   UNL     1       6.086   4.622  16.527  0.00  0.00    +0.000 A 
ATOM     10  C   UNL     1       4.918   3.872  16.399  0.00  0.00    +0.000 A 
ATOM     11  C   UNL     1       3.938   4.062  17.359  0.00  0.00    +0.000 A 
ENDROOT
BRANCH   5  12
ATOM     12  C   UNL     1       2.720   5.730  20.426  0.00  0.00    +0.000 C 
BRANCH  12  13
ATOM     13  C   UNL     1       2.173   7.097  20.090  0.00  0.00    +0.000 A 
ATOM     14  C   UNL     1       1.457   7.820  21.037  0.00  0.00    +0.000 A 
ATOM     15  C   UNL     1       0.890   9.043  20.671  0.00  0.00    +0.000 A 
ATOM     16  C   UNL     1       1.034   9.542  19.369  0.00  0.00    +0.000 A 
ATOM     17  C   UNL     1       1.794   8.746  18.508  0.00  0.00    +0.000 A 
ATOM     18  N   UNL     1       2.355   7.551  18.826  0.00  0.00    +0.000 NA
BRANCH  16  19
ATOM     19  C   UNL     1       0.401  10.807  18.936  0.00  0.00    +0.000 A 
ATOM     20  C   UNL     1      -0.913  10.845  18.448  0.00  0.00    +0.000 A 
ATOM     21  C   UNL     1      -1.455  12.052  18.029  0.00  0.00    +0.000 A 
ATOM     22  N   UNL     1      -0.793  13.224  18.067  0.00  0.00    +0.000 NA
ATOM     23  C   UNL     1       0.468  13.185  18.538  0.00  0.00    +0.000 A 
ATOM     24  C   UNL     1       1.096  12.026  18.972  0.00  0.00    +0.000 A 
ENDBRANCH  16  19
ENDBRANCH  12  13
ENDBRANCH   5  12
BRANCH   9  25
ATOM     25  O   UNL     1       7.170   4.552  15.707  0.00  0.00    +0.000 OA
BRANCH  25  26
ATOM     26  C   UNL     1       7.018   4.825  14.318  0.00  0.00    +0.000 C 
ATOM     27  F   UNL     1       5.967   5.614  14.020  0.00  0.00    +0.000 F 
ATOM     28  F   UNL     1       8.146   5.407  13.856  0.00  0.00    +0.000 F 
ATOM     29  F   UNL     1       6.851   3.652  13.667  0.00  0.00    +0.000 F 
ENDBRANCH  25  26
ENDBRANCH   9  25
TORSDOF 5
ENDMDL
MODEL 3
REMARK VINA RESULT:      -8.3      1.525      1.791
REMARK  Name = 
REMARK  5 active torsions:
REMARK  status: ('A' for Active; 'I' for Inactive)
REMARK    1  A    between atoms: N_5  and  C_6
REMARK    2  A    between atoms: C_6  and  C_7
REMARK    3  A    between atoms: C_10  and  C_11
REMARK    4  A    between atoms: C_22  and  O_23
REMARK    5  A    between atoms: O_23  and  C_24
REMARK                            x       y       z     vdW  Elec       q    Type
REMARK                         _______ _______ _______ _____ _____    ______ ____
ROOT
ATOM      1  O   UNL     1       2.560   2.256  17.401  0.00  0.00    +0.000 OA
ATOM      2  C   UNL     1       3.119   3.315  17.566  0.00  0.00    +0.000 C 
ATOM      3  C   UNL     1       2.872   4.346  18.696  0.00  0.00    +0.000 C 
ATOM      4  O   UNL     1       2.048   4.246  19.578  0.00  0.00    +0.000 OA
ATOM      5  N   UNL     1       3.785   5.360  18.466  0.00  0.00    +0.000 N 
ATOM      6  C   UNL     1       4.540   5.105  17.310  0.00  0.00    +0.000 A 
ATOM      7  C   UNL     1       5.524   5.876  16.722  0.00  0.00    +0.000 A 
ATOM      8  C   UNL     1       6.173   5.354  15.595  0.00  0.00    +0.000 A 
ATOM      9  C   UNL     1       5.850   4.083  15.066  0.00  0.00    +0.000 A 
ATOM     10  C   UNL     1       4.803   3.351  15.622  0.00  0.00    +0.000 A 
ATOM     11  C   UNL     1       4.189   3.880  16.744  0.00  0.00    +0.000 A 
ENDROOT
BRANCH   5  12
ATOM     12  C   UNL     1       3.893   6.541  19.296  0.00  0.00    +0.000 C 
BRANCH  12  13
ATOM     13  C   UNL     1       2.709   7.465  19.136  0.00  0.00    +0.000 A 
ATOM     14  C   UNL     1       2.451   8.072  17.912  0.00  0.00    +0.000 A 
ATOM     15  C   UNL     1       1.401   8.988  17.816  0.00  0.00    +0.000 A 
ATOM     16  C   UNL     1       0.613   9.298  18.934  0.00  0.00    +0.000 A 
ATOM     17  C   UNL     1       0.943   8.611  20.104  0.00  0.00    +0.000 A 
ATOM     18  N   UNL     1       1.960   7.719  20.236  0.00  0.00    +0.000 NA
BRANCH  16  19
ATOM     19  C   UNL     1      -0.472  10.302  18.878  0.00  0.00    +0.000 A 
ATOM     20  C   UNL     1      -0.662  11.240  19.903  0.00  0.00    +0.000 A 
ATOM     21  C   UNL     1      -1.711  12.145  19.819  0.00  0.00    +0.000 A 
ATOM     22  N   UNL     1      -2.577  12.196  18.789  0.00  0.00    +0.000 NA
ATOM     23  C   UNL     1      -2.390  11.296  17.805  0.00  0.00    +0.000 A 
ATOM     24  C   UNL     1      -1.376  10.349  17.805  0.00  0.00    +0.000 A 
ENDBRANCH  16  19
ENDBRANCH  12  13
ENDBRANCH   5  12
BRANCH   9  25
ATOM     25  O   UNL     1       6.595   3.714  13.989  0.00  0.00    +0.000 OA
BRANCH  25  26
ATOM     26  C   UNL     1       5.978   3.615  12.710  0.00  0.00    +0.000 C 
ATOM     27  F   UNL     1       4.712   4.076  12.669  0.00  0.00    +0.000 F 
ATOM     28  F   UNL     1       6.720   4.291  11.807  0.00  0.00    +0.000 F 
ATOM     29  F   UNL     1       5.954   2.313  12.346  0.00  0.00    +0.000 F 
ENDBRANCH  25  26
ENDBRANCH   9  25
TORSDOF 5
ENDMDL
MODEL 4
REMARK VINA RESULT:      -8.1      2.380      3.507
REMARK  Name = 
REMARK  5 active torsions:
REMARK  status: ('A' for Active; 'I' for Inactive)
REMARK    1  A    between atoms: N_5  and  C_6
REMARK    2  A    between atoms: C_6  and  C_7
REMARK    3  A    between atoms: C_10  and  C_11
REMARK    4  A    between atoms: C_22  and  O_23
REMARK    5  A    between atoms: O_23  and  C_24
REMARK                            x       y       z     vdW  Elec       q    Type
REMARK                         _______ _______ _______ _____ _____    ______ ____
ROOT
ATOM      1  O   UNL     1       8.152   4.872  18.518  0.00  0.00    +0.000 OA
ATOM      2  C   UNL     1       7.042   4.680  18.079  0.00  0.00    +0.000 C 
ATOM      3  C   UNL     1       5.734   4.468  18.883  0.00  0.00    +0.000 C 
ATOM      4  O   UNL     1       5.642   4.437  20.090  0.00  0.00    +0.000 OA
ATOM      5  N   UNL     1       4.741   4.334  17.928  0.00  0.00    +0.000 N 
ATOM      6  C   UNL     1       5.277   4.396  16.633  0.00  0.00    +0.000 A 
ATOM      7  C   UNL     1       4.635   4.275  15.415  0.00  0.00    +0.000 A 
ATOM      8  C   UNL     1       5.402   4.443  14.254  0.00  0.00    +0.000 A 
ATOM      9  C   UNL     1       6.785   4.731  14.307  0.00  0.00    +0.000 A 
ATOM     10  C   UNL     1       7.436   4.772  15.539  0.00  0.00    +0.000 A 
ATOM     11  C   UNL     1       6.652   4.621  16.671  0.00  0.00    +0.000 A 
ENDROOT
BRANCH   5  12
ATOM     12  C   UNL     1       3.348   4.111  18.251  0.00  0.00    +0.000 C 
BRANCH  12  13
ATOM     13  C   UNL     1       2.697   5.331  18.858  0.00  0.00    +0.000 A 
ATOM     14  C   UNL     1       2.759   6.559  18.207  0.00  0.00    +0.000 A 
ATOM     15  C   UNL     1       2.224   7.686  18.833  0.00  0.00    +0.000 A 
ATOM     16  C   UNL     1       1.630   7.593  20.100  0.00  0.00    +0.000 A 
ATOM     17  C   UNL     1       1.598   6.308  20.648  0.00  0.00    +0.000 A 
ATOM     18  N   UNL     1       2.114   5.191  20.073  0.00  0.00    +0.000 NA
BRANCH  16  19
ATOM     19  C   UNL     1       1.100   8.777  20.810  0.00  0.00    +0.000 A 
ATOM     20  C   UNL     1       1.028  10.035  20.195  0.00  0.00    +0.000 A 
ATOM     21  C   UNL     1       0.548  11.123  20.911  0.00  0.00    +0.000 A 
ATOM     22  N   UNL     1       0.126  11.053  22.187  0.00  0.00    +0.000 NA
ATOM     23  C   UNL     1       0.194   9.843  22.775  0.00  0.00    +0.000 A 
ATOM     24  C   UNL     1       0.665   8.701  22.142  0.00  0.00    +0.000 A 
ENDBRANCH  16  19
ENDBRANCH  12  13
ENDBRANCH   5  12
BRANCH   9  25
ATOM     25  O   UNL     1       7.375   4.893  13.091  0.00  0.00    +0.000 OA
BRANCH  25  26
ATOM     26  C   UNL     1       6.937   4.106  11.989  0.00  0.00    +0.000 C 
ATOM     27  F   UNL     1       5.606   3.895  11.953  0.00  0.00    +0.000 F 
ATOM     28  F   UNL     1       7.315   4.705  10.839  0.00  0.00    +0.000 F 
ATOM     29  F   UNL     1       7.544   2.900  12.056  0.00  0.00    +0.000 F 
ENDBRANCH  25  26
ENDBRANCH   9  25
TORSDOF 5
ENDMDL
MODEL 5
REMARK VINA RESULT:      -7.9      2.157      3.191
REMARK  Name = 
REMARK  5 active torsions:
REMARK  status: ('A' for Active; 'I' for Inactive)
REMARK    1  A    between atoms: N_5  and  C_6
REMARK    2  A    between atoms: C_6  and  C_7
REMARK    3  A    between atoms: C_10  and  C_11
REMARK    4  A    between atoms: C_22  and  O_23
REMARK    5  A    between atoms: O_23  and  C_24
REMARK                            x       y       z     vdW  Elec       q    Type
REMARK                         _______ _______ _______ _____ _____    ______ ____
ROOT
ATOM      1  O   UNL     1       8.195   4.779  18.388  0.00  0.00    +0.000 OA
ATOM      2  C   UNL     1       7.038   4.680  18.050  0.00  0.00    +0.000 C 
ATOM      3  C   UNL     1       5.785   4.681  18.961  0.00  0.00    +0.000 C 
ATOM      4  O   UNL     1       5.789   4.757  20.170  0.00  0.00    +0.000 OA
ATOM      5  N   UNL     1       4.710   4.585  18.097  0.00  0.00    +0.000 N 
ATOM      6  C   UNL     1       5.141   4.484  16.765  0.00  0.00    +0.000 A 
ATOM      7  C   UNL     1       4.392   4.341  15.613  0.00  0.00    +0.000 A 
ATOM      8  C   UNL     1       5.076   4.328  14.389  0.00  0.00    +0.000 A 
ATOM      9  C   UNL     1       6.481   4.461  14.316  0.00  0.00    +0.000 A 
ATOM     10  C   UNL     1       7.231   4.526  15.489  0.00  0.00    +0.000 A 
ATOM     11  C   UNL     1       6.531   4.554  16.684  0.00  0.00    +0.000 A 
ENDROOT
BRANCH   5  12
ATOM     12  C   UNL     1       3.331   4.548  18.538  0.00  0.00    +0.000 C 
BRANCH  12  13
ATOM     13  C   UNL     1       2.804   5.919  18.890  0.00  0.00    +0.000 A 
ATOM     14  C   UNL     1       2.222   6.151  20.132  0.00  0.00    +0.000 A 
ATOM     15  C   UNL     1       1.666   7.404  20.397  0.00  0.00    +0.000 A 
ATOM     16  C   UNL     1       1.688   8.420  19.431  0.00  0.00    +0.000 A 
ATOM     17  C   UNL     1       2.321   8.087  18.231  0.00  0.00    +0.000 A 
ATOM     18  N   UNL     1       2.867   6.878  17.935  0.00  0.00    +0.000 NA
BRANCH  16  19
ATOM     19  C   UNL     1       1.062   9.741  19.663  0.00  0.00    +0.000 A 
ATOM     20  C   UNL     1       0.282   9.997  20.799  0.00  0.00    +0.000 A 
ATOM     21  C   UNL     1      -0.307  11.243  20.960  0.00  0.00    +0.000 A 
ATOM     22  N   UNL     1      -0.171  12.256  20.083  0.00  0.00    +0.000 NA
ATOM     23  C   UNL     1       0.581  12.007  18.993  0.00  0.00    +0.000 A 
ATOM     24  C   UNL     1       1.203  10.792  18.744  0.00  0.00    +0.000 A 
ENDBRANCH  16  19
ENDBRANCH  12  13
ENDBRANCH   5  12
BRANCH   9  25
ATOM     25  O   UNL     1       6.983   4.459  13.051  0.00  0.00    +0.000 OA
BRANCH  25  26
ATOM     26  C   UNL     1       6.537   3.478  12.121  0.00  0.00    +0.000 C 
ATOM     27  F   UNL     1       6.069   2.348  12.689  0.00  0.00    +0.000 F 
ATOM     28  F   UNL     1       5.568   4.011  11.345  0.00  0.00    +0.000 F 
ATOM     29  F   UNL     1       7.576   3.139  11.325  0.00  0.00    +0.000 F 
ENDBRANCH  25  26
ENDBRANCH   9  25
TORSDOF 5
ENDMDL
MODEL 6
REMARK VINA RESULT:      -7.9      2.373      3.521
REMARK  Name = 
REMARK  5 active torsions:
REMARK  status: ('A' for Active; 'I' for Inactive)
REMARK    1  A    between atoms: N_5  and  C_6
REMARK    2  A    between atoms: C_6  and  C_7
REMARK    3  A    between atoms: C_10  and  C_11
REMARK    4  A    between atoms: C_22  and  O_23
REMARK    5  A    between atoms: O_23  and  C_24
REMARK                            x       y       z     vdW  Elec       q    Type
REMARK                         _______ _______ _______ _____ _____    ______ ____
ROOT
ATOM      1  O   UNL     1       8.154   4.775  18.533  0.00  0.00    +0.000 OA
ATOM      2  C   UNL     1       7.035   4.652  18.090  0.00  0.00    +0.000 C 
ATOM      3  C   UNL     1       5.714   4.522  18.889  0.00  0.00    +0.000 C 
ATOM      4  O   UNL     1       5.615   4.495  20.095  0.00  0.00    +0.000 OA
ATOM      5  N   UNL     1       4.718   4.451  17.931  0.00  0.00    +0.000 N 
ATOM      6  C   UNL     1       5.261   4.481  16.637  0.00  0.00    +0.000 A 
ATOM      7  C   UNL     1       4.617   4.402  15.417  0.00  0.00    +0.000 A 
ATOM      8  C   UNL     1       5.398   4.522  14.259  0.00  0.00    +0.000 A 
ATOM      9  C   UNL     1       6.796   4.724  14.317  0.00  0.00    +0.000 A 
ATOM     10  C   UNL     1       7.443   4.723  15.551  0.00  0.00    +0.000 A 
ATOM     11  C   UNL     1       6.648   4.619  16.680  0.00  0.00    +0.000 A 
ENDROOT
BRANCH   5  12
ATOM     12  C   UNL     1       3.313   4.315  18.248  0.00  0.00    +0.000 C 
BRANCH  12  13
ATOM     13  C   UNL     1       2.777   5.508  19.003  0.00  0.00    +0.000 A 
ATOM     14  C   UNL     1       2.162   5.340  20.239  0.00  0.00    +0.000 A 
ATOM     15  C   UNL     1       1.600   6.449  20.874  0.00  0.00    +0.000 A 
ATOM     16  C   UNL     1       1.649   7.719  20.282  0.00  0.00    +0.000 A 
ATOM     17  C   UNL     1       2.313   7.778  19.054  0.00  0.00    +0.000 A 
ATOM     18  N   UNL     1       2.866   6.720  18.404  0.00  0.00    +0.000 NA
BRANCH  16  19
ATOM     19  C   UNL     1       1.017   8.904  20.904  0.00  0.00    +0.000 A 
ATOM     20  C   UNL     1       0.588   8.894  22.239  0.00  0.00    +0.000 A 
ATOM     21  C   UNL     1      -0.023  10.020  22.771  0.00  0.00    +0.000 A 
ATOM     22  N   UNL     1      -0.230  11.158  22.081  0.00  0.00    +0.000 NA
ATOM     23  C   UNL     1       0.186  11.165  20.800  0.00  0.00    +0.000 A 
ATOM     24  C   UNL     1       0.799  10.086  20.180  0.00  0.00    +0.000 A 
ENDBRANCH  16  19
ENDBRANCH  12  13
ENDBRANCH   5  12
BRANCH   9  25
ATOM     25  O   UNL     1       7.398   4.851  13.103  0.00  0.00    +0.000 OA
BRANCH  25  26
ATOM     26  C   UNL     1       6.942   4.063  12.008  0.00  0.00    +0.000 C 
ATOM     27  F   UNL     1       7.568   2.876  11.880  0.00  0.00    +0.000 F 
ATOM     28  F   UNL     1       5.616   3.847  12.140  0.00  0.00    +0.000 F 
ATOM     29  F   UNL     1       7.144   4.760  10.867  0.00  0.00    +0.000 F 
ENDBRANCH  25  26
ENDBRANCH   9  25
TORSDOF 5
ENDMDL
MODEL 7
REMARK VINA RESULT:      -7.9      1.252      1.654
REMARK  Name = 
REMARK  5 active torsions:
REMARK  status: ('A' for Active; 'I' for Inactive)
REMARK    1  A    between atoms: N_5  and  C_6
REMARK    2  A    between atoms: C_6  and  C_7
REMARK    3  A    between atoms: C_10  and  C_11
REMARK    4  A    between atoms: C_22  and  O_23
REMARK    5  A    between atoms: O_23  and  C_24
REMARK                            x       y       z     vdW  Elec       q    Type
REMARK                         _______ _______ _______ _____ _____    ______ ____
ROOT
ATOM      1  O   UNL     1       1.220   2.563  17.913  0.00  0.00    +0.000 OA
ATOM      2  C   UNL     1       1.908   3.456  18.351  0.00  0.00    +0.000 C 
ATOM      3  C   UNL     1       1.611   4.362  19.573  0.00  0.00    +0.000 C 
ATOM      4  O   UNL     1       0.615   4.320  20.260  0.00  0.00    +0.000 OA
ATOM      5  N   UNL     1       2.715   5.188  19.686  0.00  0.00    +0.000 N 
ATOM      6  C   UNL     1       3.641   4.935  18.663  0.00  0.00    +0.000 A 
ATOM      7  C   UNL     1       4.847   5.556  18.402  0.00  0.00    +0.000 A 
ATOM      8  C   UNL     1       5.619   5.062  17.342  0.00  0.00    +0.000 A 
ATOM      9  C   UNL     1       5.198   3.963  16.559  0.00  0.00    +0.000 A 
ATOM     10  C   UNL     1       3.945   3.395  16.783  0.00  0.00    +0.000 A 
ATOM     11  C   UNL     1       3.209   3.891  17.846  0.00  0.00    +0.000 A 
ENDROOT
BRANCH   5  12
ATOM     12  C   UNL     1       2.849   6.205  20.707  0.00  0.00    +0.000 C 
BRANCH  12  13
ATOM     13  C   UNL     1       1.958   7.397  20.451  0.00  0.00    +0.000 A 
ATOM     14  C   UNL     1       1.039   7.808  21.411  0.00  0.00    +0.000 A 
ATOM     15  C   UNL     1       0.169   8.858  21.113  0.00  0.00    +0.000 A 
ATOM     16  C   UNL     1       0.213   9.496  19.865  0.00  0.00    +0.000 A 
ATOM     17  C   UNL     1       1.191   9.022  18.988  0.00  0.00    +0.000 A 
ATOM     18  N   UNL     1       2.049   7.999  19.240  0.00  0.00    +0.000 NA
BRANCH  16  19
ATOM     19  C   UNL     1      -0.729  10.577  19.500  0.00  0.00    +0.000 A 
ATOM     20  C   UNL     1      -1.162  11.525  20.438  0.00  0.00    +0.000 A 
ATOM     21  C   UNL     1      -2.067  12.505  20.055  0.00  0.00    +0.000 A 
ATOM     22  N   UNL     1      -2.566  12.620  18.809  0.00  0.00    +0.000 NA
ATOM     23  C   UNL     1      -2.147  11.709  17.910  0.00  0.00    +0.000 A 
ATOM     24  C   UNL     1      -1.251  10.690  18.202  0.00  0.00    +0.000 A 
ENDBRANCH  16  19
ENDBRANCH  12  13
ENDBRANCH   5  12
BRANCH   9  25
ATOM     25  O   UNL     1       6.078   3.590  15.590  0.00  0.00    +0.000 OA
BRANCH  25  26
ATOM     26  C   UNL     1       6.172   4.358  14.395  0.00  0.00    +0.000 C 
ATOM     27  F   UNL     1       5.209   5.291  14.259  0.00  0.00    +0.000 F 
ATOM     28  F   UNL     1       7.378   4.963  14.350  0.00  0.00    +0.000 F 
ATOM     29  F   UNL     1       6.082   3.517  13.339  0.00  0.00    +0.000 F 
ENDBRANCH  25  26
ENDBRANCH   9  25
TORSDOF 5
ENDMDL
MODEL 8
REMARK VINA RESULT:      -7.9      1.136      1.648
REMARK  Name = 
REMARK  5 active torsions:
REMARK  status: ('A' for Active; 'I' for Inactive)
REMARK    1  A    between atoms: N_5  and  C_6
REMARK    2  A    between atoms: C_6  and  C_7
REMARK    3  A    between atoms: C_10  and  C_11
REMARK    4  A    between atoms: C_22  and  O_23
REMARK    5  A    between atoms: O_23  and  C_24
REMARK                            x       y       z     vdW  Elec       q    Type
REMARK                         _______ _______ _______ _____ _____    ______ ____
ROOT
ATOM      1  O   UNL     1       1.250   2.478  17.874  0.00  0.00    +0.000 OA
ATOM      2  C   UNL     1       1.937   3.371  18.312  0.00  0.00    +0.000 C 
ATOM      3  C   UNL     1       1.640   4.275  19.536  0.00  0.00    +0.000 C 
ATOM      4  O   UNL     1       0.644   4.232  20.223  0.00  0.00    +0.000 OA
ATOM      5  N   UNL     1       2.743   5.103  19.649  0.00  0.00    +0.000 N 
ATOM      6  C   UNL     1       3.669   4.852  18.624  0.00  0.00    +0.000 A 
ATOM      7  C   UNL     1       4.874   5.475  18.364  0.00  0.00    +0.000 A 
ATOM      8  C   UNL     1       5.646   4.983  17.302  0.00  0.00    +0.000 A 
ATOM      9  C   UNL     1       5.226   3.884  16.518  0.00  0.00    +0.000 A 
ATOM     10  C   UNL     1       3.973   3.315  16.742  0.00  0.00    +0.000 A 
ATOM     11  C   UNL     1       3.238   3.808  17.807  0.00  0.00    +0.000 A 
ENDROOT
BRANCH   5  12
ATOM     12  C   UNL     1       2.877   6.119  20.671  0.00  0.00    +0.000 C 
BRANCH  12  13
ATOM     13  C   UNL     1       2.028   7.335  20.386  0.00  0.00    +0.000 A 
ATOM     14  C   UNL     1       1.110   7.788  21.328  0.00  0.00    +0.000 A 
ATOM     15  C   UNL     1       0.279   8.862  21.003  0.00  0.00    +0.000 A 
ATOM     16  C   UNL     1       0.359   9.481  19.747  0.00  0.00    +0.000 A 
ATOM     17  C   UNL     1       1.334   8.963  18.891  0.00  0.00    +0.000 A 
ATOM     18  N   UNL     1       2.155   7.917  19.169  0.00  0.00    +0.000 NA
BRANCH  16  19
ATOM     19  C   UNL     1      -0.543  10.586  19.355  0.00  0.00    +0.000 A 
ATOM     20  C   UNL     1      -1.332  10.516  18.198  0.00  0.00    +0.000 A 
ATOM     21  C   UNL     1      -2.144  11.589  17.856  0.00  0.00    +0.000 A 
ATOM     22  N   UNL     1      -2.237  12.720  18.581  0.00  0.00    +0.000 NA
ATOM     23  C   UNL     1      -1.479  12.782  19.693  0.00  0.00    +0.000 A 
ATOM     24  C   UNL     1      -0.633  11.764  20.110  0.00  0.00    +0.000 A 
ENDBRANCH  16  19
ENDBRANCH  12  13
ENDBRANCH   5  12
BRANCH   9  25
ATOM     25  O   UNL     1       6.105   3.514  15.548  0.00  0.00    +0.000 OA
BRANCH  25  26
ATOM     26  C   UNL     1       6.187   4.274  14.348  0.00  0.00    +0.000 C 
ATOM     27  F   UNL     1       6.281   3.532  13.227  0.00  0.00    +0.000 F 
ATOM     28  F   UNL     1       5.101   5.072  14.254  0.00  0.00    +0.000 F 
ATOM     29  F   UNL     1       7.284   5.062  14.413  0.00  0.00    +0.000 F 
ENDBRANCH  25  26
ENDBRANCH   9  25
TORSDOF 5
ENDMDL
MODEL 9
REMARK VINA RESULT:      -7.7      2.150      2.997
REMARK  Name = 
REMARK  5 active torsions:
REMARK  status: ('A' for Active; 'I' for Inactive)
REMARK    1  A    between atoms: N_5  and  C_6
REMARK    2  A    between atoms: C_6  and  C_7
REMARK    3  A    between atoms: C_10  and  C_11
REMARK    4  A    between atoms: C_22  and  O_23
REMARK    5  A    between atoms: O_23  and  C_24
REMARK                            x       y       z     vdW  Elec       q    Type
REMARK                         _______ _______ _______ _____ _____    ______ ____
ROOT
ATOM      1  O   UNL     1       8.317   4.983  18.306  0.00  0.00    +0.000 OA
ATOM      2  C   UNL     1       7.154   4.828  18.015  0.00  0.00    +0.000 C 
ATOM      3  C   UNL     1       5.939   4.788  18.977  0.00  0.00    +0.000 C 
ATOM      4  O   UNL     1       5.987   4.881  20.183  0.00  0.00    +0.000 OA
ATOM      5  N   UNL     1       4.835   4.633  18.157  0.00  0.00    +0.000 N 
ATOM      6  C   UNL     1       5.218   4.532  16.811  0.00  0.00    +0.000 A 
ATOM      7  C   UNL     1       4.432   4.340  15.691  0.00  0.00    +0.000 A 
ATOM      8  C   UNL     1       5.066   4.340  14.441  0.00  0.00    +0.000 A 
ATOM      9  C   UNL     1       6.461   4.533  14.310  0.00  0.00    +0.000 A 
ATOM     10  C   UNL     1       7.252   4.647  15.452  0.00  0.00    +0.000 A 
ATOM     11  C   UNL     1       6.599   4.661  16.673  0.00  0.00    +0.000 A 
ENDROOT
BRANCH   5  12
ATOM     12  C   UNL     1       3.479   4.541  18.653  0.00  0.00    +0.000 C 
BRANCH  12  13
ATOM     13  C   UNL     1       2.831   5.898  18.808  0.00  0.00    +0.000 A 
ATOM     14  C   UNL     1       2.780   6.779  17.734  0.00  0.00    +0.000 A 
ATOM     15  C   UNL     1       2.253   8.057  17.930  0.00  0.00    +0.000 A 
ATOM     16  C   UNL     1       1.781   8.456  19.189  0.00  0.00    +0.000 A 
ATOM     17  C   UNL     1       1.856   7.483  20.188  0.00  0.00    +0.000 A 
ATOM     18  N   UNL     1       2.367   6.233  20.037  0.00  0.00    +0.000 NA
BRANCH  16  19
ATOM     19  C   UNL     1       1.266   9.820  19.441  0.00  0.00    +0.000 A 
ATOM     20  C   UNL     1       1.521  10.879  18.558  0.00  0.00    +0.000 A 
ATOM     21  C   UNL     1       1.039  12.147  18.850  0.00  0.00    +0.000 A 
ATOM     22  N   UNL     1       0.314  12.439  19.947  0.00  0.00    +0.000 NA
ATOM     23  C   UNL     1       0.068  11.419  20.791  0.00  0.00    +0.000 A 
ATOM     24  C   UNL     1       0.515  10.121  20.587  0.00  0.00    +0.000 A 
ENDBRANCH  16  19
ENDBRANCH  12  13
ENDBRANCH   5  12
BRANCH   9  25
ATOM     25  O   UNL     1       6.912   4.535  13.026  0.00  0.00    +0.000 OA
BRANCH  25  26
ATOM     26  C   UNL     1       6.558   3.465  12.157  0.00  0.00    +0.000 C 
ATOM     27  F   UNL     1       7.535   3.097  11.304  0.00  0.00    +0.000 F 
ATOM     28  F   UNL     1       6.197   2.394  12.897  0.00  0.00    +0.000 F 
ATOM     29  F   UNL     1       5.491   3.847  11.420  0.00  0.00    +0.000 F 
ENDBRANCH  25  26
ENDBRANCH   9  25
TORSDOF 5
ENDMDL
