MODEL 1
REMARK VINA RESULT:      -7.9      0.000      0.000
REMARK  Name = 
REMARK  17 active torsions:
REMARK  status: ('A' for Active; 'I' for Inactive)
REMARK    1  A    between atoms: C_1  and  O_2
REMARK    2  A    between atoms: O_2  and  C_3
REMARK    3  A    between atoms: C_5  and  C_6
REMARK    4  A    between atoms: C_6  and  C_7
REMARK    5  A    between atoms: C_7  and  C_8
REMARK    6  A    between atoms: C_8  and  O_10
REMARK    7  A    between atoms: O_10  and  C_11
REMARK    8  A    between atoms: C_11  and  C_12
REMARK    9  A    between atoms: N_14  and  C_15
REMARK   10  A    between atoms: C_15  and  C_16
REMARK   11  A    between atoms: C_16  and  C_17
REMARK   12  A    between atoms: C_20  and  S_21
REMARK   13  A    between atoms: S_21  and  N_22
REMARK   14  A    between atoms: C_28  and  O_29
REMARK   15  A    between atoms: O_29  and  C_30
REMARK   16  A    between atoms: C_31  and  O_32
REMARK   17  A    between atoms: O_32  and  C_33
REMARK                            x       y       z     vdW  Elec       q    Type
REMARK                         _______ _______ _______ _____ _____    ______ ____
ROOT
ATOM      1  C   UNL     1       4.307   2.180  20.215  0.00  0.00    +0.000 C 
ENDROOT
BRANCH   1   2
ATOM      2  C   UNL     1       4.199   3.713  20.248  0.00  0.00    +0.000 C 
ATOM      3  O   UNL     1       5.148   4.417  19.920  0.00  0.00    +0.000 OA
ATOM      4  N   UNL     1       2.952   4.191  20.657  0.00  0.00    +0.000 N 
ATOM      5  H   UNL     1       2.242   3.501  20.847  0.00  0.00    +0.000 HD
BRANCH   4   6
ATOM      6  C   UNL     1       2.429   5.576  20.554  0.00  0.00    +0.000 C 
BRANCH   6   7
ATOM      7  C   UNL     1       2.358   6.209  19.176  0.00  0.00    +0.000 C 
BRANCH   7   8
ATOM      8  C   UNL     1       2.117   7.676  19.267  0.00  0.00    +0.000 A 
ATOM      9  C   UNL     1       1.588   8.339  20.356  0.00  0.00    +0.000 A 
ATOM     10  C   UNL     1       0.642   9.384  20.162  0.00  0.00    +0.000 A 
ATOM     11  C   UNL     1       0.373  10.035  18.904  0.00  0.00    +0.000 A 
ATOM     12  C   UNL     1       1.561   9.608  18.145  0.00  0.00    +0.000 A 
ATOM     13  C   UNL     1       2.238   8.402  18.146  0.00  0.00    +0.000 A 
BRANCH  11  14
ATOM     14  S   UNL     1      -1.007  11.865  18.431  0.00  0.00    +0.000 S 
ATOM     15  O   UNL     1      -0.192  13.038  18.188  0.00  0.00    +0.000 OA
ATOM     16  O   UNL     1      -2.025  11.698  17.425  0.00  0.00    +0.000 OA
BRANCH  14  17
ATOM     17  N   UNL     1      -2.100  12.450  19.983  0.00  0.00    +0.000 NA
ATOM     18  H   UNL     1      -1.690  12.102  20.868  0.00  0.00    +0.000 HD
ATOM     19  H   UNL     1      -2.056  13.483  20.082  0.00  0.00    +0.000 HD
ENDBRANCH  14  17
ENDBRANCH  11  14
ENDBRANCH   7   8
ENDBRANCH   6   7
ENDBRANCH   4   6
ENDBRANCH   1   2
BRANCH   1  20
ATOM     20  O   UNL     1       3.821   1.583  18.982  0.00  0.00    +0.000 OA
BRANCH  20  21
ATOM     21  C   UNL     1       2.529   1.879  18.620  0.00  0.00    +0.000 C 
ATOM     22  O   UNL     1       1.618   1.737  19.476  0.00  0.00    +0.000 OA
BRANCH  21  23
ATOM     23  C   UNL     1       2.406   2.444  17.247  0.00  0.00    +0.000 C 
BRANCH  23  24
ATOM     24  C   UNL     1       2.972   3.962  17.042  0.00  0.00    +0.000 C 
BRANCH  24  27
ATOM     25  C   UNL     1       6.122   3.918  14.429  0.00  0.00    +0.000 A 
ATOM     26  C   UNL     1       5.028   3.631  15.452  0.00  0.00    +0.000 A 
ATOM     27  C   UNL     1       4.477   4.295  16.576  0.00  0.00    +0.000 A 
ATOM     28  C   UNL     1       5.159   5.462  16.784  0.00  0.00    +0.000 A 
ATOM     29  C   UNL     1       6.339   5.766  15.985  0.00  0.00    +0.000 A 
ATOM     30  C   UNL     1       6.898   4.970  14.874  0.00  0.00    +0.000 A 
BRANCH  25  32
ATOM     31  C   UNL     1       5.683   2.265  11.579  0.00  0.00    +0.000 C 
ATOM     32  O   UNL     1       6.177   3.584  12.787  0.00  0.00    +0.000 OA
ENDBRANCH  25  32
BRANCH  29  33
ATOM     33  O   UNL     1       6.845   7.006  16.347  0.00  0.00    +0.000 OA
ATOM     34  C   UNL     1       7.397   7.074  17.655  0.00  0.00    +0.000 C 
ENDBRANCH  29  33
BRANCH  30  35
ATOM     35  O   UNL     1       8.059   5.415  14.337  0.00  0.00    +0.000 OA
ATOM     36  C   UNL     1       8.187   5.637  12.944  0.00  0.00    +0.000 C 
ENDBRANCH  30  35
ENDBRANCH  24  27
ENDBRANCH  23  24
ENDBRANCH  21  23
ENDBRANCH  20  21
ENDBRANCH   1  20
TORSDOF 14
ENDMDL
MODEL 2
REMARK VINA RESULT:      -7.8      1.957      3.516
REMARK  Name = 
REMARK  17 active torsions:
REMARK  status: ('A' for Active; 'I' for Inactive)
REMARK    1  A    between atoms: C_1  and  O_2
REMARK    2  A    between atoms: O_2  and  C_3
REMARK    3  A    between atoms: C_5  and  C_6
REMARK    4  A    between atoms: C_6  and  C_7
REMARK    5  A    between atoms: C_7  and  C_8
REMARK    6  A    between atoms: C_8  and  O_10
REMARK    7  A    between atoms: O_10  and  C_11
REMARK    8  A    between atoms: C_11  and  C_12
REMARK    9  A    between atoms: N_14  and  C_15
REMARK   10  A    between atoms: C_15  and  C_16
REMARK   11  A    between atoms: C_16  and  C_17
REMARK   12  A    between atoms: C_20  and  S_21
REMARK   13  A    between atoms: S_21  and  N_22
REMARK   14  A    between atoms: C_28  and  O_29
REMARK   15  A    between atoms: O_29  and  C_30
REMARK   16  A    between atoms: C_31  and  O_32
REMARK   17  A    between atoms: O_32  and  C_33
REMARK                            x       y       z     vdW  Elec       q    Type
REMARK                         _______ _______ _______ _____ _____    ______ ____
ROOT
ATOM      1  C   UNL     1       1.043   2.545  20.235  0.00  0.00    +0.000 C 
ENDROOT
BRANCH   1   2
ATOM      2  C   UNL     1       1.657   3.702  21.039  0.00  0.00    +0.000 C 
ATOM      3  O   UNL     1       2.339   3.484  22.034  0.00  0.00    +0.000 OA
ATOM      4  N   UNL     1       1.377   4.969  20.523  0.00  0.00    +0.000 N 
ATOM      5  H   UNL     1       0.846   5.003  19.666  0.00  0.00    +0.000 HD
BRANCH   4   6
ATOM      6  C   UNL     1       2.011   6.261  20.886  0.00  0.00    +0.000 C 
BRANCH   6   7
ATOM      7  C   UNL     1       2.227   7.282  19.782  0.00  0.00    +0.000 C 
BRANCH   7   8
ATOM      8  C   UNL     1       1.320   8.452  19.944  0.00  0.00    +0.000 A 
ATOM      9  C   UNL     1       1.044   9.398  18.977  0.00  0.00    +0.000 A 
ATOM     10  C   UNL     1       0.959  10.773  19.332  0.00  0.00    +0.000 A 
ATOM     11  C   UNL     1       0.851  11.276  20.678  0.00  0.00    +0.000 A 
ATOM     12  C   UNL     1       0.464  10.039  21.376  0.00  0.00    +0.000 A 
ATOM     13  C   UNL     1       0.875   8.733  21.178  0.00  0.00    +0.000 A 
BRANCH  11  14
ATOM     14  S   UNL     1       0.534  13.468  21.435  0.00  0.00    +0.000 S 
ATOM     15  O   UNL     1       1.816  14.065  21.748  0.00  0.00    +0.000 OA
ATOM     16  O   UNL     1      -0.287  14.344  20.637  0.00  0.00    +0.000 OA
BRANCH  14  17
ATOM     17  N   UNL     1      -0.396  13.571  23.188  0.00  0.00    +0.000 NA
ATOM     18  H   UNL     1      -0.831  12.660  23.421  0.00  0.00    +0.000 HD
ATOM     19  H   UNL     1       0.294  13.716  23.950  0.00  0.00    +0.000 HD
ENDBRANCH  14  17
ENDBRANCH  11  14
ENDBRANCH   7   8
ENDBRANCH   6   7
ENDBRANCH   4   6
ENDBRANCH   1   2
BRANCH   1  20
ATOM     20  O   UNL     1       2.022   1.595  19.731  0.00  0.00    +0.000 OA
BRANCH  20  21
ATOM     21  C   UNL     1       3.046   2.108  18.973  0.00  0.00    +0.000 C 
ATOM     22  O   UNL     1       4.195   2.174  19.482  0.00  0.00    +0.000 OA
BRANCH  21  23
ATOM     23  C   UNL     1       2.652   2.431  17.573  0.00  0.00    +0.000 C 
BRANCH  23  24
ATOM     24  C   UNL     1       2.579   4.019  17.196  0.00  0.00    +0.000 C 
BRANCH  24  27
ATOM     25  C   UNL     1       6.016   5.675  18.674  0.00  0.00    +0.000 A 
ATOM     26  C   UNL     1       4.592   5.259  18.324  0.00  0.00    +0.000 A 
ATOM     27  C   UNL     1       3.870   4.979  17.137  0.00  0.00    +0.000 A 
ATOM     28  C   UNL     1       4.683   5.192  16.058  0.00  0.00    +0.000 A 
ATOM     29  C   UNL     1       6.010   5.761  16.250  0.00  0.00    +0.000 A 
ATOM     30  C   UNL     1       6.662   6.102  17.530  0.00  0.00    +0.000 A 
BRANCH  25  32
ATOM     31  C   UNL     1       8.736   5.387  20.563  0.00  0.00    +0.000 C 
ATOM     32  O   UNL     1       6.990   5.214  19.959  0.00  0.00    +0.000 OA
ENDBRANCH  25  32
BRANCH  29  33
ATOM     33  O   UNL     1       6.660   5.858  15.029  0.00  0.00    +0.000 OA
ATOM     34  C   UNL     1       6.916   4.619  14.381  0.00  0.00    +0.000 C 
ENDBRANCH  29  33
BRANCH  30  35
ATOM     35  O   UNL     1       7.873   6.704  17.450  0.00  0.00    +0.000 OA
ATOM     36  C   UNL     1       8.030   8.080  17.748  0.00  0.00    +0.000 C 
ENDBRANCH  30  35
ENDBRANCH  24  27
ENDBRANCH  23  24
ENDBRANCH  21  23
ENDBRANCH  20  21
ENDBRANCH   1  20
TORSDOF 14
ENDMDL
MODEL 3
REMARK VINA RESULT:      -7.8      4.814     10.953
REMARK  Name = 
REMARK  17 active torsions:
REMARK  status: ('A' for Active; 'I' for Inactive)
REMARK    1  A    between atoms: C_1  and  O_2
REMARK    2  A    between atoms: O_2  and  C_3
REMARK    3  A    between atoms: C_5  and  C_6
REMARK    4  A    between atoms: C_6  and  C_7
REMARK    5  A    between atoms: C_7  and  C_8
REMARK    6  A    between atoms: C_8  and  O_10
REMARK    7  A    between atoms: O_10  and  C_11
REMARK    8  A    between atoms: C_11  and  C_12
REMARK    9  A    between atoms: N_14  and  C_15
REMARK   10  A    between atoms: C_15  and  C_16
REMARK   11  A    between atoms: C_16  and  C_17
REMARK   12  A    between atoms: C_20  and  S_21
REMARK   13  A    between atoms: S_21  and  N_22
REMARK   14  A    between atoms: C_28  and  O_29
REMARK   15  A    between atoms: O_29  and  C_30
REMARK   16  A    between atoms: C_31  and  O_32
REMARK   17  A    between atoms: O_32  and  C_33
REMARK                            x       y       z     vdW  Elec       q    Type
REMARK                         _______ _______ _______ _____ _____    ______ ____
ROOT
ATOM      1  C   UNL     1       1.783   8.219  20.421  0.00  0.00    +0.000 C 
ENDROOT
BRANCH   1   2
ATOM      2  C   UNL     1       2.108   6.755  20.082  0.00  0.00    +0.000 C 
ATOM      3  O   UNL     1       2.729   6.469  19.064  0.00  0.00    +0.000 OA
ATOM      4  N   UNL     1       1.654   5.834  21.029  0.00  0.00    +0.000 N 
ATOM      5  H   UNL     1       1.203   6.211  21.849  0.00  0.00    +0.000 HD
BRANCH   4   6
ATOM      6  C   UNL     1       2.015   4.399  21.150  0.00  0.00    +0.000 C 
BRANCH   6   7
ATOM      7  C   UNL     1       1.542   3.453  20.060  0.00  0.00    +0.000 C 
BRANCH   7   8
ATOM      8  C   UNL     1       2.639   3.143  19.101  0.00  0.00    +0.000 A 
ATOM      9  C   UNL     1       3.978   3.032  19.417  0.00  0.00    +0.000 A 
ATOM     10  C   UNL     1       4.961   3.580  18.546  0.00  0.00    +0.000 A 
ATOM     11  C   UNL     1       4.721   4.007  17.191  0.00  0.00    +0.000 A 
ATOM     12  C   UNL     1       3.426   3.349  16.948  0.00  0.00    +0.000 A 
ATOM     13  C   UNL     1       2.348   3.156  17.792  0.00  0.00    +0.000 A 
BRANCH  11  14
ATOM     14  S   UNL     1       6.232   4.764  15.571  0.00  0.00    +0.000 S 
ATOM     15  O   UNL     1       5.758   6.011  15.010  0.00  0.00    +0.000 OA
ATOM     16  O   UNL     1       7.626   4.831  15.930  0.00  0.00    +0.000 OA
BRANCH  14  17
ATOM     17  N   UNL     1       6.311   3.602  13.962  0.00  0.00    +0.000 NA
ATOM     18  H   UNL     1       5.403   3.608  13.465  0.00  0.00    +0.000 HD
ATOM     19  H   UNL     1       6.973   3.998  13.267  0.00  0.00    +0.000 HD
ENDBRANCH  14  17
ENDBRANCH  11  14
ENDBRANCH   7   8
ENDBRANCH   6   7
ENDBRANCH   4   6
ENDBRANCH   1   2
BRANCH   1  20
ATOM     20  O   UNL     1       1.149   8.396  21.717  0.00  0.00    +0.000 OA
BRANCH  20  21
ATOM     21  C   UNL     1      -0.001   9.146  21.744  0.00  0.00    +0.000 C 
ATOM     22  O   UNL     1      -0.651   9.211  22.820  0.00  0.00    +0.000 OA
BRANCH  21  23
ATOM     23  C   UNL     1      -0.266   9.883  20.477  0.00  0.00    +0.000 C 
BRANCH  23  24
ATOM     24  C   UNL     1       0.197  11.450  20.448  0.00  0.00    +0.000 C 
BRANCH  24  27
ATOM     25  C   UNL     1      -2.890  12.993  22.648  0.00  0.00    +0.000 A 
ATOM     26  C   UNL     1      -1.951  12.421  21.591  0.00  0.00    +0.000 A 
ATOM     27  C   UNL     1      -0.606  12.628  21.197  0.00  0.00    +0.000 A 
ATOM     28  C   UNL     1      -0.067  13.633  21.952  0.00  0.00    +0.000 A 
ATOM     29  C   UNL     1      -0.913  14.380  22.875  0.00  0.00    +0.000 A 
ATOM     30  C   UNL     1      -2.341  14.148  23.169  0.00  0.00    +0.000 A 
BRANCH  25  32
ATOM     31  C   UNL     1      -5.703  12.576  24.367  0.00  0.00    +0.000 C 
ATOM     32  O   UNL     1      -4.060  12.232  23.575  0.00  0.00    +0.000 OA
ENDBRANCH  25  32
BRANCH  29  33
ATOM     33  O   UNL     1      -0.152  15.321  23.551  0.00  0.00    +0.000 OA
ATOM     34  C   UNL     1       0.033  16.553  22.865  0.00  0.00    +0.000 C 
ENDBRANCH  29  33
BRANCH  30  35
ATOM     35  O   UNL     1      -2.937  15.034  24.003  0.00  0.00    +0.000 OA
ATOM     36  C   UNL     1      -2.872  14.877  25.409  0.00  0.00    +0.000 C 
ENDBRANCH  30  35
ENDBRANCH  24  27
ENDBRANCH  23  24
ENDBRANCH  21  23
ENDBRANCH  20  21
ENDBRANCH   1  20
TORSDOF 14
ENDMDL
MODEL 4
REMARK VINA RESULT:      -7.6      3.155      3.892
REMARK  Name = 
REMARK  17 active torsions:
REMARK  status: ('A' for Active; 'I' for Inactive)
REMARK    1  A    between atoms: C_1  and  O_2
REMARK    2  A    between atoms: O_2  and  C_3
REMARK    3  A    between atoms: C_5  and  C_6
REMARK    4  A    between atoms: C_6  and  C_7
REMARK    5  A    between atoms: C_7  and  C_8
REMARK    6  A    between atoms: C_8  and  O_10
REMARK    7  A    between atoms: O_10  and  C_11
REMARK    8  A    between atoms: C_11  and  C_12
REMARK    9  A    between atoms: N_14  and  C_15
REMARK   10  A    between atoms: C_15  and  C_16
REMARK   11  A    between atoms: C_16  and  C_17
REMARK   12  A    between atoms: C_20  and  S_21
REMARK   13  A    between atoms: S_21  and  N_22
REMARK   14  A    between atoms: C_28  and  O_29
REMARK   15  A    between atoms: O_29  and  C_30
REMARK   16  A    between atoms: C_31  and  O_32
REMARK   17  A    between atoms: O_32  and  C_33
REMARK                            x       y       z     vdW  Elec       q    Type
REMARK                         _______ _______ _______ _____ _____    ______ ____
ROOT
ATOM      1  C   UNL     1       2.768   6.734  17.979  0.00  0.00    +0.000 C 
ENDROOT
BRANCH   1   2
ATOM      2  C   UNL     1       2.296   8.130  18.417  0.00  0.00    +0.000 C 
ATOM      3  O   UNL     1       2.335   9.079  17.641  0.00  0.00    +0.000 OA
ATOM      4  N   UNL     1       1.825   8.189  19.730  0.00  0.00    +0.000 N 
ATOM      5  H   UNL     1       1.800   7.321  20.243  0.00  0.00    +0.000 HD
BRANCH   4   6
ATOM      6  C   UNL     1       1.068   9.289  20.378  0.00  0.00    +0.000 C 
BRANCH   6   7
ATOM      7  C   UNL     1      -0.003   9.992  19.562  0.00  0.00    +0.000 C 
BRANCH   7   8
ATOM      8  C   UNL     1      -0.546  11.174  20.288  0.00  0.00    +0.000 A 
ATOM      9  C   UNL     1      -0.093  11.652  21.501  0.00  0.00    +0.000 A 
ATOM     10  C   UNL     1      -1.023  12.099  22.481  0.00  0.00    +0.000 A 
ATOM     11  C   UNL     1      -2.416  12.375  22.235  0.00  0.00    +0.000 A 
ATOM     12  C   UNL     1      -2.399  12.454  20.765  0.00  0.00    +0.000 A 
ATOM     13  C   UNL     1      -1.686  11.716  19.837  0.00  0.00    +0.000 A 
BRANCH  11  14
ATOM     14  S   UNL     1      -4.039  13.268  23.666  0.00  0.00    +0.000 S 
ATOM     15  O   UNL     1      -3.396  14.052  24.700  0.00  0.00    +0.000 OA
ATOM     16  O   UNL     1      -5.149  13.968  23.072  0.00  0.00    +0.000 OA
BRANCH  14  17
ATOM     17  N   UNL     1      -4.989  11.891  24.738  0.00  0.00    +0.000 NA
ATOM     18  H   UNL     1      -5.427  12.320  25.573  0.00  0.00    +0.000 HD
ATOM     19  H   UNL     1      -5.797  11.517  24.203  0.00  0.00    +0.000 HD
ENDBRANCH  14  17
ENDBRANCH  11  14
ENDBRANCH   7   8
ENDBRANCH   6   7
ENDBRANCH   4   6
ENDBRANCH   1   2
BRANCH   1  20
ATOM     20  O   UNL     1       1.692   5.765  17.847  0.00  0.00    +0.000 OA
BRANCH  20  21
ATOM     21  C   UNL     1       1.836   4.587  18.539  0.00  0.00    +0.000 C 
ATOM     22  O   UNL     1       1.140   4.409  19.572  0.00  0.00    +0.000 OA
BRANCH  21  23
ATOM     23  C   UNL     1       2.754   3.615  17.883  0.00  0.00    +0.000 C 
BRANCH  23  24
ATOM     24  C   UNL     1       4.321   3.686  18.341  0.00  0.00    +0.000 C 
BRANCH  24  27
ATOM     25  C   UNL     1       6.145   3.958  14.688  0.00  0.00    +0.000 A 
ATOM     26  C   UNL     1       5.546   3.550  16.030  0.00  0.00    +0.000 A 
ATOM     27  C   UNL     1       5.522   4.080  17.344  0.00  0.00    +0.000 A 
ATOM     28  C   UNL     1       6.275   5.221  17.380  0.00  0.00    +0.000 A 
ATOM     29  C   UNL     1       7.043   5.621  16.209  0.00  0.00    +0.000 A 
ATOM     30  C   UNL     1       7.075   4.959  14.889  0.00  0.00    +0.000 A 
BRANCH  25  32
ATOM     31  C   UNL     1       5.521   2.635  11.704  0.00  0.00    +0.000 C 
ATOM     32  O   UNL     1       5.521   3.811  13.139  0.00  0.00    +0.000 OA
ENDBRANCH  25  32
BRANCH  29  33
ATOM     33  O   UNL     1       7.700   6.815  16.464  0.00  0.00    +0.000 OA
ATOM     34  C   UNL     1       7.255   7.515  17.619  0.00  0.00    +0.000 C 
ENDBRANCH  29  33
BRANCH  30  35
ATOM     35  O   UNL     1       7.938   5.470  13.978  0.00  0.00    +0.000 OA
ATOM     36  C   UNL     1       7.769   5.233  12.592  0.00  0.00    +0.000 C 
ENDBRANCH  30  35
ENDBRANCH  24  27
ENDBRANCH  23  24
ENDBRANCH  21  23
ENDBRANCH  20  21
ENDBRANCH   1  20
TORSDOF 14
ENDMDL
MODEL 5
REMARK VINA RESULT:      -7.6      4.834      7.448
REMARK  Name = 
REMARK  17 active torsions:
REMARK  status: ('A' for Active; 'I' for Inactive)
REMARK    1  A    between atoms: C_1  and  O_2
REMARK    2  A    between atoms: O_2  and  C_3
REMARK    3  A    between atoms: C_5  and  C_6
REMARK    4  A    between atoms: C_6  and  C_7
REMARK    5  A    between atoms: C_7  and  C_8
REMARK    6  A    between atoms: C_8  and  O_10
REMARK    7  A    between atoms: O_10  and  C_11
REMARK    8  A    between atoms: C_11  and  C_12
REMARK    9  A    between atoms: N_14  and  C_15
REMARK   10  A    between atoms: C_15  and  C_16
REMARK   11  A    between atoms: C_16  and  C_17
REMARK   12  A    between atoms: C_20  and  S_21
REMARK   13  A    between atoms: S_21  and  N_22
REMARK   14  A    between atoms: C_28  and  O_29
REMARK   15  A    between atoms: O_29  and  C_30
REMARK   16  A    between atoms: C_31  and  O_32
REMARK   17  A    between atoms: O_32  and  C_33
REMARK                            x       y       z     vdW  Elec       q    Type
REMARK                         _______ _______ _______ _____ _____    ______ ____
ROOT
ATOM      1  C   UNL     1       6.002   5.816  16.066  0.00  0.00    +0.000 C 
ENDROOT
BRANCH   1   2
ATOM      2  C   UNL     1       5.610   4.462  16.679  0.00  0.00    +0.000 C 
ATOM      3  O   UNL     1       5.707   3.427  16.030  0.00  0.00    +0.000 OA
ATOM      4  N   UNL     1       5.169   4.539  18.002  0.00  0.00    +0.000 N 
ATOM      5  H   UNL     1       5.189   5.450  18.435  0.00  0.00    +0.000 HD
BRANCH   4   6
ATOM      6  C   UNL     1       4.967   3.424  18.961  0.00  0.00    +0.000 C 
BRANCH   6   7
ATOM      7  C   UNL     1       3.592   2.783  19.027  0.00  0.00    +0.000 C 
BRANCH   7   8
ATOM      8  C   UNL     1       2.534   3.799  19.287  0.00  0.00    +0.000 A 
ATOM      9  C   UNL     1       2.120   4.774  18.402  0.00  0.00    +0.000 A 
ATOM     10  C   UNL     1       1.850   6.091  18.871  0.00  0.00    +0.000 A 
ATOM     11  C   UNL     1       1.690   6.460  20.255  0.00  0.00    +0.000 A 
ATOM     12  C   UNL     1       1.485   5.127  20.846  0.00  0.00    +0.000 A 
ATOM     13  C   UNL     1       2.069   3.912  20.539  0.00  0.00    +0.000 A 
BRANCH  11  14
ATOM     14  S   UNL     1       1.083   8.517  21.193  0.00  0.00    +0.000 S 
ATOM     15  O   UNL     1       1.897   8.777  22.362  0.00  0.00    +0.000 OA
ATOM     16  O   UNL     1       1.014   9.661  20.320  0.00  0.00    +0.000 OA
BRANCH  14  17
ATOM     17  N   UNL     1      -0.746   8.521  21.967  0.00  0.00    +0.000 NA
ATOM     18  H   UNL     1      -0.717   8.251  22.966  0.00  0.00    +0.000 HD
ATOM     19  H   UNL     1      -1.124   9.488  21.986  0.00  0.00    +0.000 HD
ENDBRANCH  14  17
ENDBRANCH  11  14
ENDBRANCH   7   8
ENDBRANCH   6   7
ENDBRANCH   4   6
ENDBRANCH   1   2
BRANCH   1  20
ATOM     20  O   UNL     1       7.312   6.292  16.481  0.00  0.00    +0.000 OA
BRANCH  20  21
ATOM     21  C   UNL     1       7.360   7.046  17.627  0.00  0.00    +0.000 C 
ATOM     22  O   UNL     1       7.300   6.456  18.737  0.00  0.00    +0.000 OA
BRANCH  21  23
ATOM     23  C   UNL     1       7.585   8.498  17.381  0.00  0.00    +0.000 C 
BRANCH  23  24
ATOM     24  C   UNL     1       8.640   9.240  18.383  0.00  0.00    +0.000 C 
BRANCH  24  27
ATOM     25  C   UNL     1       8.513  13.294  17.838  0.00  0.00    +0.000 A 
ATOM     26  C   UNL     1       8.439  11.774  17.748  0.00  0.00    +0.000 A 
ATOM     27  C   UNL     1       9.283  10.686  18.085  0.00  0.00    +0.000 A 
ATOM     28  C   UNL     1      10.466  11.171  18.570  0.00  0.00    +0.000 A 
ATOM     29  C   UNL     1      10.729  12.604  18.543  0.00  0.00    +0.000 A 
ATOM     30  C   UNL     1       9.816  13.674  18.094  0.00  0.00    +0.000 A 
BRANCH  25  32
ATOM     31  C   UNL     1       7.108  16.228  18.520  0.00  0.00    +0.000 C 
ATOM     32  O   UNL     1       7.318  14.411  18.206  0.00  0.00    +0.000 OA
ENDBRANCH  25  32
BRANCH  29  33
ATOM     33  O   UNL     1      11.968  12.865  19.108  0.00  0.00    +0.000 OA
ATOM     34  C   UNL     1      12.333  12.010  20.184  0.00  0.00    +0.000 C 
ENDBRANCH  29  33
BRANCH  30  35
ATOM     35  O   UNL     1      10.320  14.932  18.080  0.00  0.00    +0.000 OA
ATOM     36  C   UNL     1      10.452  15.656  16.870  0.00  0.00    +0.000 C 
ENDBRANCH  30  35
ENDBRANCH  24  27
ENDBRANCH  23  24
ENDBRANCH  21  23
ENDBRANCH  20  21
ENDBRANCH   1  20
TORSDOF 14
ENDMDL
MODEL 6
REMARK VINA RESULT:      -7.5      3.210      4.021
REMARK  Name = 
REMARK  17 active torsions:
REMARK  status: ('A' for Active; 'I' for Inactive)
REMARK    1  A    between atoms: C_1  and  O_2
REMARK    2  A    between atoms: O_2  and  C_3
REMARK    3  A    between atoms: C_5  and  C_6
REMARK    4  A    between atoms: C_6  and  C_7
REMARK    5  A    between atoms: C_7  and  C_8
REMARK    6  A    between atoms: C_8  and  O_10
REMARK    7  A    between atoms: O_10  and  C_11
REMARK    8  A    between atoms: C_11  and  C_12
REMARK    9  A    between atoms: N_14  and  C_15
REMARK   10  A    between atoms: C_15  and  C_16
REMARK   11  A    between atoms: C_16  and  C_17
REMARK   12  A    between atoms: C_20  and  S_21
REMARK   13  A    between atoms: S_21  and  N_22
REMARK   14  A    between atoms: C_28  and  O_29
REMARK   15  A    between atoms: O_29  and  C_30
REMARK   16  A    between atoms: C_31  and  O_32
REMARK   17  A    between atoms: O_32  and  C_33
REMARK                            x       y       z     vdW  Elec       q    Type
REMARK                         _______ _______ _______ _____ _____    ______ ____
ROOT
ATOM      1  C   UNL     1       2.783   6.860  18.795  0.00  0.00    +0.000 C 
ENDROOT
BRANCH   1   2
ATOM      2  C   UNL     1       1.963   7.975  19.464  0.00  0.00    +0.000 C 
ATOM      3  O   UNL     1       1.780   7.978  20.677  0.00  0.00    +0.000 OA
ATOM      4  N   UNL     1       1.487   8.945  18.580  0.00  0.00    +0.000 N 
ATOM      5  H   UNL     1       1.757   8.849  17.613  0.00  0.00    +0.000 HD
BRANCH   4   6
ATOM      6  C   UNL     1       0.899  10.268  18.910  0.00  0.00    +0.000 C 
BRANCH   6   7
ATOM      7  C   UNL     1      -0.378  10.294  19.730  0.00  0.00    +0.000 C 
BRANCH   7   8
ATOM      8  C   UNL     1      -0.207  11.099  20.971  0.00  0.00    +0.000 A 
ATOM      9  C   UNL     1      -0.718  10.783  22.214  0.00  0.00    +0.000 A 
ATOM     10  C   UNL     1      -1.275  11.803  23.034  0.00  0.00    +0.000 A 
ATOM     11  C   UNL     1      -1.110  13.219  22.821  0.00  0.00    +0.000 A 
ATOM     12  C   UNL     1       0.027  13.199  21.885  0.00  0.00    +0.000 A 
ATOM     13  C   UNL     1       0.322  12.326  20.854  0.00  0.00    +0.000 A 
BRANCH  11  14
ATOM     14  S   UNL     1      -1.801  15.022  24.145  0.00  0.00    +0.000 S 
ATOM     15  O   UNL     1      -0.967  15.105  25.326  0.00  0.00    +0.000 OA
ATOM     16  O   UNL     1      -1.961  16.303  23.507  0.00  0.00    +0.000 OA
BRANCH  14  17
ATOM     17  N   UNL     1      -3.603  14.769  24.942  0.00  0.00    +0.000 NA
ATOM     18  H   UNL     1      -3.594  15.021  25.946  0.00  0.00    +0.000 HD
ATOM     19  H   UNL     1      -4.275  15.442  24.526  0.00  0.00    +0.000 HD
ENDBRANCH  14  17
ENDBRANCH  11  14
ENDBRANCH   7   8
ENDBRANCH   6   7
ENDBRANCH   4   6
ENDBRANCH   1   2
BRANCH   1  20
ATOM     20  O   UNL     1       2.063   5.606  18.650  0.00  0.00    +0.000 OA
BRANCH  20  21
ATOM     21  C   UNL     1       2.222   4.684  19.656  0.00  0.00    +0.000 C 
ATOM     22  O   UNL     1       1.262   4.484  20.445  0.00  0.00    +0.000 OA
BRANCH  21  23
ATOM     23  C   UNL     1       3.520   3.955  19.602  0.00  0.00    +0.000 C 
BRANCH  23  24
ATOM     24  C   UNL     1       3.944   3.353  18.143  0.00  0.00    +0.000 C 
BRANCH  24  27
ATOM     25  C   UNL     1       6.119   3.898  14.720  0.00  0.00    +0.000 A 
ATOM     26  C   UNL     1       5.422   3.399  15.981  0.00  0.00    +0.000 A 
ATOM     27  C   UNL     1       5.200   3.891  17.291  0.00  0.00    +0.000 A 
ATOM     28  C   UNL     1       5.823   5.101  17.426  0.00  0.00    +0.000 A 
ATOM     29  C   UNL     1       6.669   5.605  16.353  0.00  0.00    +0.000 A 
ATOM     30  C   UNL     1       6.913   4.983  15.036  0.00  0.00    +0.000 A 
BRANCH  25  32
ATOM     31  C   UNL     1       5.843   2.523  11.707  0.00  0.00    +0.000 C 
ATOM     32  O   UNL     1       5.686   3.728  13.109  0.00  0.00    +0.000 OA
ENDBRANCH  25  32
BRANCH  29  33
ATOM     33  O   UNL     1       7.168   6.853  16.695  0.00  0.00    +0.000 OA
ATOM     34  C   UNL     1       7.657   6.963  18.025  0.00  0.00    +0.000 C 
ENDBRANCH  29  33
BRANCH  30  35
ATOM     35  O   UNL     1       7.813   5.600  14.234  0.00  0.00    +0.000 OA
ATOM     36  C   UNL     1       7.890   5.303  12.851  0.00  0.00    +0.000 C 
ENDBRANCH  30  35
ENDBRANCH  24  27
ENDBRANCH  23  24
ENDBRANCH  21  23
ENDBRANCH  20  21
ENDBRANCH   1  20
TORSDOF 14
ENDMDL
MODEL 7
REMARK VINA RESULT:      -7.4      4.863      7.400
REMARK  Name = 
REMARK  17 active torsions:
REMARK  status: ('A' for Active; 'I' for Inactive)
REMARK    1  A    between atoms: C_1  and  O_2
REMARK    2  A    between atoms: O_2  and  C_3
REMARK    3  A    between atoms: C_5  and  C_6
REMARK    4  A    between atoms: C_6  and  C_7
REMARK    5  A    between atoms: C_7  and  C_8
REMARK    6  A    between atoms: C_8  and  O_10
REMARK    7  A    between atoms: O_10  and  C_11
REMARK    8  A    between atoms: C_11  and  C_12
REMARK    9  A    between atoms: N_14  and  C_15
REMARK   10  A    between atoms: C_15  and  C_16
REMARK   11  A    between atoms: C_16  and  C_17
REMARK   12  A    between atoms: C_20  and  S_21
REMARK   13  A    between atoms: S_21  and  N_22
REMARK   14  A    between atoms: C_28  and  O_29
REMARK   15  A    between atoms: O_29  and  C_30
REMARK   16  A    between atoms: C_31  and  O_32
REMARK   17  A    between atoms: O_32  and  C_33
REMARK                            x       y       z     vdW  Elec       q    Type
REMARK                         _______ _______ _______ _____ _____    ______ ____
ROOT
ATOM      1  C   UNL     1       7.653   6.836  17.676  0.00  0.00    +0.000 C 
ENDROOT
BRANCH   1   2
ATOM      2  C   UNL     1       7.638   8.370  17.762  0.00  0.00    +0.000 C 
ATOM      3  O   UNL     1       6.659   9.011  17.395  0.00  0.00    +0.000 OA
ATOM      4  N   UNL     1       8.804   8.925  18.295  0.00  0.00    +0.000 N 
ATOM      5  H   UNL     1       9.513   8.279  18.606  0.00  0.00    +0.000 HD
BRANCH   4   6
ATOM      6  C   UNL     1       9.022  10.320  18.755  0.00  0.00    +0.000 C 
BRANCH   6   7
ATOM      7  C   UNL     1      10.069  11.151  18.035  0.00  0.00    +0.000 C 
BRANCH   7   8
ATOM      8  C   UNL     1       9.554  12.511  17.716  0.00  0.00    +0.000 A 
ATOM      9  C   UNL     1      10.286  13.680  17.757  0.00  0.00    +0.000 A 
ATOM     10  C   UNL     1       9.705  14.866  18.287  0.00  0.00    +0.000 A 
ATOM     11  C   UNL     1       8.299  15.057  18.540  0.00  0.00    +0.000 A 
ATOM     12  C   UNL     1       7.750  13.941  17.751  0.00  0.00    +0.000 A 
ATOM     13  C   UNL     1       8.230  12.658  17.560  0.00  0.00    +0.000 A 
BRANCH  11  14
ATOM     14  S   UNL     1       7.152  16.973  19.241  0.00  0.00    +0.000 S 
ATOM     15  O   UNL     1       7.037  16.970  20.685  0.00  0.00    +0.000 OA
ATOM     16  O   UNL     1       7.601  18.247  18.740  0.00  0.00    +0.000 OA
BRANCH  14  17
ATOM     17  N   UNL     1       5.245  16.998  18.686  0.00  0.00    +0.000 NA
ATOM     18  H   UNL     1       5.020  16.159  18.123  0.00  0.00    +0.000 HD
ATOM     19  H   UNL     1       4.630  16.909  19.517  0.00  0.00    +0.000 HD
ENDBRANCH  14  17
ENDBRANCH  11  14
ENDBRANCH   7   8
ENDBRANCH   6   7
ENDBRANCH   4   6
ENDBRANCH   1   2
BRANCH   1  20
ATOM     20  O   UNL     1       7.614   6.323  16.316  0.00  0.00    +0.000 OA
BRANCH  20  21
ATOM     21  C   UNL     1       7.513   4.960  16.173  0.00  0.00    +0.000 C 
ATOM     22  O   UNL     1       7.845   4.229  17.142  0.00  0.00    +0.000 OA
BRANCH  21  23
ATOM     23  C   UNL     1       6.908   4.536  14.880  0.00  0.00    +0.000 C 
BRANCH  23  24
ATOM     24  C   UNL     1       5.287   4.336  14.878  0.00  0.00    +0.000 C 
BRANCH  24  27
ATOM     25  C   UNL     1       3.676   3.044  18.411  0.00  0.00    +0.000 A 
ATOM     26  C   UNL     1       4.062   3.330  16.964  0.00  0.00    +0.000 A 
ATOM     27  C   UNL     1       4.372   4.479  16.195  0.00  0.00    +0.000 A 
ATOM     28  C   UNL     1       4.233   5.592  16.978  0.00  0.00    +0.000 A 
ATOM     29  C   UNL     1       3.699   5.468  18.328  0.00  0.00    +0.000 A 
ATOM     30  C   UNL     1       3.321   4.226  19.031  0.00  0.00    +0.000 A 
BRANCH  25  32
ATOM     31  C   UNL     1       5.185   1.410  20.881  0.00  0.00    +0.000 C 
ATOM     32  O   UNL     1       4.110   1.771  19.412  0.00  0.00    +0.000 OA
ENDBRANCH  25  32
BRANCH  29  33
ATOM     33  O   UNL     1       3.678   6.712  18.940  0.00  0.00    +0.000 OA
ATOM     34  C   UNL     1       2.632   7.576  18.515  0.00  0.00    +0.000 C 
ENDBRANCH  29  33
BRANCH  30  35
ATOM     35  O   UNL     1       2.763   4.372  20.257  0.00  0.00    +0.000 OA
ATOM     36  C   UNL     1       1.356   4.379  20.427  0.00  0.00    +0.000 C 
ENDBRANCH  30  35
ENDBRANCH  24  27
ENDBRANCH  23  24
ENDBRANCH  21  23
ENDBRANCH  20  21
ENDBRANCH   1  20
TORSDOF 14
ENDMDL
MODEL 8
REMARK VINA RESULT:      -7.4      1.845      2.365
REMARK  Name = 
REMARK  17 active torsions:
REMARK  status: ('A' for Active; 'I' for Inactive)
REMARK    1  A    between atoms: C_1  and  O_2
REMARK    2  A    between atoms: O_2  and  C_3
REMARK    3  A    between atoms: C_5  and  C_6
REMARK    4  A    between atoms: C_6  and  C_7
REMARK    5  A    between atoms: C_7  and  C_8
REMARK    6  A    between atoms: C_8  and  O_10
REMARK    7  A    between atoms: O_10  and  C_11
REMARK    8  A    between atoms: C_11  and  C_12
REMARK    9  A    between atoms: N_14  and  C_15
REMARK   10  A    between atoms: C_15  and  C_16
REMARK   11  A    between atoms: C_16  and  C_17
REMARK   12  A    between atoms: C_20  and  S_21
REMARK   13  A    between atoms: S_21  and  N_22
REMARK   14  A    between atoms: C_28  and  O_29
REMARK   15  A    between atoms: O_29  and  C_30
REMARK   16  A    between atoms: C_31  and  O_32
REMARK   17  A    between atoms: O_32  and  C_33
REMARK                            x       y       z     vdW  Elec       q    Type
REMARK                         _______ _______ _______ _____ _____    ______ ____
ROOT
ATOM      1  C   UNL     1       0.540   3.176  19.185  0.00  0.00    +0.000 C 
ENDROOT
BRANCH   1   2
ATOM      2  C   UNL     1       1.310   4.320  19.864  0.00  0.00    +0.000 C 
ATOM      3  O   UNL     1       1.478   4.330  21.079  0.00  0.00    +0.000 OA
ATOM      4  N   UNL     1       1.788   5.291  18.982  0.00  0.00    +0.000 N 
ATOM      5  H   UNL     1       1.624   5.132  18.000  0.00  0.00    +0.000 HD
BRANCH   4   6
ATOM      6  C   UNL     1       2.772   6.368  19.259  0.00  0.00    +0.000 C 
BRANCH   6   7
ATOM      7  C   UNL     1       2.719   7.618  18.399  0.00  0.00    +0.000 C 
BRANCH   7   8
ATOM      8  C   UNL     1       1.667   8.558  18.878  0.00  0.00    +0.000 A 
ATOM      9  C   UNL     1       1.050   9.531  18.118  0.00  0.00    +0.000 A 
ATOM     10  C   UNL     1       0.793  10.814  18.678  0.00  0.00    +0.000 A 
ATOM     11  C   UNL     1       0.857  11.132  20.082  0.00  0.00    +0.000 A 
ATOM     12  C   UNL     1       0.833   9.772  20.647  0.00  0.00    +0.000 A 
ATOM     13  C   UNL     1       1.422   8.605  20.195  0.00  0.00    +0.000 A 
BRANCH  11  14
ATOM     14  S   UNL     1       0.308  13.118  21.192  0.00  0.00    +0.000 S 
ATOM     15  O   UNL     1      -0.233  14.071  20.245  0.00  0.00    +0.000 OA
ATOM     16  O   UNL     1      -0.501  13.024  22.381  0.00  0.00    +0.000 OA
BRANCH  14  17
ATOM     17  N   UNL     1       1.891  14.096  21.888  0.00  0.00    +0.000 NA
ATOM     18  H   UNL     1       2.729  13.489  21.870  0.00  0.00    +0.000 HD
ATOM     19  H   UNL     1       2.138  14.876  21.248  0.00  0.00    +0.000 HD
ENDBRANCH  14  17
ENDBRANCH  11  14
ENDBRANCH   7   8
ENDBRANCH   6   7
ENDBRANCH   4   6
ENDBRANCH   1   2
BRANCH   1  20
ATOM     20  O   UNL     1       1.371   2.034  18.837  0.00  0.00    +0.000 OA
BRANCH  20  21
ATOM     21  C   UNL     1       2.501   2.295  18.102  0.00  0.00    +0.000 C 
ATOM     22  O   UNL     1       2.368   2.777  16.947  0.00  0.00    +0.000 OA
BRANCH  21  23
ATOM     23  C   UNL     1       3.769   2.053  18.845  0.00  0.00    +0.000 C 
BRANCH  23  24
ATOM     24  C   UNL     1       4.749   3.347  19.031  0.00  0.00    +0.000 C 
BRANCH  24  27
ATOM     25  C   UNL     1       5.874   3.789  15.122  0.00  0.00    +0.000 A 
ATOM     26  C   UNL     1       5.631   3.359  16.565  0.00  0.00    +0.000 A 
ATOM     27  C   UNL     1       5.604   3.995  17.831  0.00  0.00    +0.000 A 
ATOM     28  C   UNL     1       5.927   5.315  17.676  0.00  0.00    +0.000 A 
ATOM     29  C   UNL     1       6.353   5.810  16.374  0.00  0.00    +0.000 A 
ATOM     30  C   UNL     1       6.430   5.053  15.109  0.00  0.00    +0.000 A 
BRANCH  25  32
ATOM     31  C   UNL     1       5.110   3.659  11.890  0.00  0.00    +0.000 C 
ATOM     32  O   UNL     1       5.136   3.277  13.706  0.00  0.00    +0.000 OA
ENDBRANCH  25  32
BRANCH  29  33
ATOM     33  O   UNL     1       6.597   7.173  16.447  0.00  0.00    +0.000 OA
ATOM     34  C   UNL     1       7.470   7.575  17.495  0.00  0.00    +0.000 C 
ENDBRANCH  29  33
BRANCH  30  35
ATOM     35  O   UNL     1       6.943   5.711  14.041  0.00  0.00    +0.000 OA
ATOM     36  C   UNL     1       7.989   5.152  13.267  0.00  0.00    +0.000 C 
ENDBRANCH  30  35
ENDBRANCH  24  27
ENDBRANCH  23  24
ENDBRANCH  21  23
ENDBRANCH  20  21
ENDBRANCH   1  20
TORSDOF 14
ENDMDL
MODEL 9
REMARK VINA RESULT:      -7.4      2.614      3.452
REMARK  Name = 
REMARK  17 active torsions:
REMARK  status: ('A' for Active; 'I' for Inactive)
REMARK    1  A    between atoms: C_1  and  O_2
REMARK    2  A    between atoms: O_2  and  C_3
REMARK    3  A    between atoms: C_5  and  C_6
REMARK    4  A    between atoms: C_6  and  C_7
REMARK    5  A    between atoms: C_7  and  C_8
REMARK    6  A    between atoms: C_8  and  O_10
REMARK    7  A    between atoms: O_10  and  C_11
REMARK    8  A    between atoms: C_11  and  C_12
REMARK    9  A    between atoms: N_14  and  C_15
REMARK   10  A    between atoms: C_15  and  C_16
REMARK   11  A    between atoms: C_16  and  C_17
REMARK   12  A    between atoms: C_20  and  S_21
REMARK   13  A    between atoms: S_21  and  N_22
REMARK   14  A    between atoms: C_28  and  O_29
REMARK   15  A    between atoms: O_29  and  C_30
REMARK   16  A    between atoms: C_31  and  O_32
REMARK   17  A    between atoms: O_32  and  C_33
REMARK                            x       y       z     vdW  Elec       q    Type
REMARK                         _______ _______ _______ _____ _____    ______ ____
ROOT
ATOM      1  C   UNL     1       3.062   6.306  18.893  0.00  0.00    +0.000 C 
ENDROOT
BRANCH   1   2
ATOM      2  C   UNL     1       2.729   7.750  18.485  0.00  0.00    +0.000 C 
ATOM      3  O   UNL     1       3.193   8.237  17.460  0.00  0.00    +0.000 OA
ATOM      4  N   UNL     1       1.866   8.408  19.364  0.00  0.00    +0.000 N 
ATOM      5  H   UNL     1       1.516   7.872  20.143  0.00  0.00    +0.000 HD
BRANCH   4   6
ATOM      6  C   UNL     1       1.145   9.687  19.146  0.00  0.00    +0.000 C 
BRANCH   6   7
ATOM      7  C   UNL     1      -0.004   9.696  18.153  0.00  0.00    +0.000 C 
BRANCH   7   8
ATOM      8  C   UNL     1      -0.875  10.889  18.346  0.00  0.00    +0.000 A 
ATOM      9  C   UNL     1      -0.527  12.039  19.025  0.00  0.00    +0.000 A 
ATOM     10  C   UNL     1      -1.471  12.674  19.879  0.00  0.00    +0.000 A 
ATOM     11  C   UNL     1      -2.885  12.396  19.902  0.00  0.00    +0.000 A 
ATOM     12  C   UNL     1      -3.019  11.681  18.621  0.00  0.00    +0.000 A 
ATOM     13  C   UNL     1      -2.168  10.783  18.005  0.00  0.00    +0.000 A 
BRANCH  11  14
ATOM     14  S   UNL     1      -4.597  13.447  21.104  0.00  0.00    +0.000 S 
ATOM     15  O   UNL     1      -4.048  14.062  22.294  0.00  0.00    +0.000 OA
ATOM     16  O   UNL     1      -5.470  14.343  20.388  0.00  0.00    +0.000 OA
BRANCH  14  17
ATOM     17  N   UNL     1      -5.912  12.175  21.878  0.00  0.00    +0.000 NA
ATOM     18  H   UNL     1      -5.427  11.364  22.300  0.00  0.00    +0.000 HD
ATOM     19  H   UNL     1      -6.401  12.614  22.682  0.00  0.00    +0.000 HD
ENDBRANCH  14  17
ENDBRANCH  11  14
ENDBRANCH   7   8
ENDBRANCH   6   7
ENDBRANCH   4   6
ENDBRANCH   1   2
BRANCH   1  20
ATOM     20  O   UNL     1       1.937   5.580  19.457  0.00  0.00    +0.000 OA
BRANCH  20  21
ATOM     21  C   UNL     1       2.034   4.210  19.477  0.00  0.00    +0.000 C 
ATOM     22  O   UNL     1       0.981   3.535  19.614  0.00  0.00    +0.000 OA
BRANCH  21  23
ATOM     23  C   UNL     1       3.411   3.703  19.222  0.00  0.00    +0.000 C 
BRANCH  23  24
ATOM     24  C   UNL     1       3.768   3.345  17.668  0.00  0.00    +0.000 C 
BRANCH  24  27
ATOM     25  C   UNL     1       6.231   3.840  14.438  0.00  0.00    +0.000 A 
ATOM     26  C   UNL     1       5.415   3.354  15.631  0.00  0.00    +0.000 A 
ATOM     27  C   UNL     1       5.109   3.838  16.928  0.00  0.00    +0.000 A 
ATOM     28  C   UNL     1       5.770   5.019  17.132  0.00  0.00    +0.000 A 
ATOM     29  C   UNL     1       6.720   5.500  16.137  0.00  0.00    +0.000 A 
ATOM     30  C   UNL     1       7.042   4.885  14.834  0.00  0.00    +0.000 A 
BRANCH  25  32
ATOM     31  C   UNL     1       4.558   3.230  11.631  0.00  0.00    +0.000 C 
ATOM     32  O   UNL     1       5.922   3.709  12.795  0.00  0.00    +0.000 OA
ENDBRANCH  25  32
BRANCH  29  33
ATOM     33  O   UNL     1       7.241   6.721  16.539  0.00  0.00    +0.000 OA
ATOM     34  C   UNL     1       7.505   6.836  17.931  0.00  0.00    +0.000 C 
ENDBRANCH  29  33
BRANCH  30  35
ATOM     35  O   UNL     1       8.029   5.474  14.116  0.00  0.00    +0.000 OA
ATOM     36  C   UNL     1       8.012   5.464  12.700  0.00  0.00    +0.000 C 
ENDBRANCH  30  35
ENDBRANCH  24  27
ENDBRANCH  23  24
ENDBRANCH  21  23
ENDBRANCH  20  21
ENDBRANCH   1  20
TORSDOF 14
ENDMDL
