MODEL 1
REMARK VINA RESULT:      -8.1      0.000      0.000
REMARK  Name = 
REMARK  7 active torsions:
REMARK  status: ('A' for Active; 'I' for Inactive)
REMARK    1  A    between atoms: C_1  and  C_2
REMARK    2  A    between atoms: C_4  and  C_5
REMARK    3  A    between atoms: C_8  and  C_10
REMARK    4  A    between atoms: C_10  and  O_11
REMARK    5  A    between atoms: O_11  and  C_12
REMARK    6  A    between atoms: C_12  and  C_14
REMARK    7  A    between atoms: C_17  and  N_18
REMARK                            x       y       z     vdW  Elec       q    Type
REMARK                         _______ _______ _______ _____ _____    ______ ____
ROOT
ATOM      1  C   UNL     1       2.472   5.787  20.124  0.00  0.00    +0.000 C 
ATOM      2  O   UNL     1       1.746   4.974  20.677  0.00  0.00    +0.000 OA
ENDROOT
BRANCH   1   3
ATOM      3  C   UNL     1       2.048   7.182  19.838  0.00  0.00    +0.000 A 
ATOM      4  C   UNL     1       1.395   7.950  20.799  0.00  0.00    +0.000 A 
ATOM      5  C   UNL     1       0.961   9.244  20.491  0.00  0.00    +0.000 A 
ATOM      6  C   UNL     1       1.146   9.808  19.219  0.00  0.00    +0.000 A 
ATOM      7  C   UNL     1       1.802   9.019  18.259  0.00  0.00    +0.000 A 
ATOM      8  C   UNL     1       2.249   7.720  18.562  0.00  0.00    +0.000 A 
BRANCH   6   9
ATOM      9  N   UNL     1       0.678  11.118  18.922  0.00  0.00    +0.000 N 
ATOM     10  C   UNL     1       1.564  12.231  18.671  0.00  0.00    +0.000 C 
ATOM     11  C   UNL     1       0.665  13.450  18.723  0.00  0.00    +0.000 C 
ATOM     12  C   UNL     1      -0.675  12.930  18.251  0.00  0.00    +0.000 C 
ATOM     13  C   UNL     1      -0.656  11.479  18.658  0.00  0.00    +0.000 C 
ATOM     14  O   UNL     1      -1.670  10.799  18.688  0.00  0.00    +0.000 OA
ENDBRANCH   6   9
ENDBRANCH   1   3
BRANCH   1  15
ATOM     15  O   UNL     1       3.746   5.579  19.717  0.00  0.00    +0.000 OA
BRANCH  15  16
ATOM     16  C   UNL     1       4.125   4.223  19.454  0.00  0.00    +0.000 C 
BRANCH  16  24
ATOM     17  C   UNL     1       7.791   4.547  17.740  0.00  0.00    +0.000 C 
ATOM     18  C   UNL     1       7.051   5.613  16.926  0.00  0.00    +0.000 C 
ATOM     19  C   UNL     1       7.063   5.282  15.423  0.00  0.00    +0.000 C 
ATOM     20  C   UNL     1       6.168   4.077  15.093  0.00  0.00    +0.000 C 
ATOM     21  C   UNL     1       6.157   3.808  13.591  0.00  0.00    +0.000 C 
ATOM     22  C   UNL     1       4.749   4.304  15.638  0.00  0.00    +0.000 C 
ATOM     23  N   UNL     1       4.782   4.624  17.068  0.00  0.00    +0.000 N 
ATOM     24  C   UNL     1       4.048   3.846  17.966  0.00  0.00    +0.000 C 
ATOM     25  O   UNL     1       3.359   2.896  17.588  0.00  0.00    +0.000 OA
ATOM     26  C   UNL     1       5.606   5.784  17.422  0.00  0.00    +0.000 C 
ENDBRANCH  16  24
ENDBRANCH  15  16
ENDBRANCH   1  15
TORSDOF 5
ENDMDL
MODEL 2
REMARK VINA RESULT:      -8.0      6.200      7.722
REMARK  Name = 
REMARK  7 active torsions:
REMARK  status: ('A' for Active; 'I' for Inactive)
REMARK    1  A    between atoms: C_1  and  C_2
REMARK    2  A    between atoms: C_4  and  C_5
REMARK    3  A    between atoms: C_8  and  C_10
REMARK    4  A    between atoms: C_10  and  O_11
REMARK    5  A    between atoms: O_11  and  C_12
REMARK    6  A    between atoms: C_12  and  C_14
REMARK    7  A    between atoms: C_17  and  N_18
REMARK                            x       y       z     vdW  Elec       q    Type
REMARK                         _______ _______ _______ _____ _____    ______ ____
ROOT
ATOM      1  C   UNL     1       7.834   8.758  17.855  0.00  0.00    +0.000 C 
ATOM      2  O   UNL     1       6.965   8.779  16.994  0.00  0.00    +0.000 OA
ENDROOT
BRANCH   1   3
ATOM      3  C   UNL     1       8.603   9.965  18.253  0.00  0.00    +0.000 A 
ATOM      4  C   UNL     1       9.404   9.968  19.391  0.00  0.00    +0.000 A 
ATOM      5  C   UNL     1      10.081  11.131  19.774  0.00  0.00    +0.000 A 
ATOM      6  C   UNL     1       9.969  12.329  19.051  0.00  0.00    +0.000 A 
ATOM      7  C   UNL     1       9.153  12.312  17.907  0.00  0.00    +0.000 A 
ATOM      8  C   UNL     1       8.475  11.144  17.511  0.00  0.00    +0.000 A 
BRANCH   6   9
ATOM      9  N   UNL     1      10.650  13.505  19.469  0.00  0.00    +0.000 N 
ATOM     10  C   UNL     1      10.385  14.162  20.729  0.00  0.00    +0.000 C 
ATOM     11  C   UNL     1      11.078  15.504  20.610  0.00  0.00    +0.000 C 
ATOM     12  C   UNL     1      12.249  15.226  19.693  0.00  0.00    +0.000 C 
ATOM     13  C   UNL     1      11.764  14.085  18.835  0.00  0.00    +0.000 C 
ATOM     14  O   UNL     1      12.327  13.765  17.800  0.00  0.00    +0.000 OA
ENDBRANCH   6   9
ENDBRANCH   1   3
BRANCH   1  15
ATOM     15  O   UNL     1       8.211   7.684  18.587  0.00  0.00    +0.000 OA
BRANCH  15  16
ATOM     16  C   UNL     1       7.900   6.394  18.047  0.00  0.00    +0.000 C 
BRANCH  16  24
ATOM     17  C   UNL     1       5.817   3.748  15.779  0.00  0.00    +0.000 C 
ATOM     18  C   UNL     1       4.649   4.600  16.286  0.00  0.00    +0.000 C 
ATOM     19  C   UNL     1       3.643   3.756  17.088  0.00  0.00    +0.000 C 
ATOM     20  C   UNL     1       4.216   3.316  18.445  0.00  0.00    +0.000 C 
ATOM     21  C   UNL     1       3.177   2.528  19.239  0.00  0.00    +0.000 C 
ATOM     22  C   UNL     1       4.721   4.538  19.230  0.00  0.00    +0.000 C 
ATOM     23  N   UNL     1       5.668   5.318  18.428  0.00  0.00    +0.000 N 
ATOM     24  C   UNL     1       6.945   5.577  18.931  0.00  0.00    +0.000 C 
ATOM     25  O   UNL     1       7.301   5.173  20.041  0.00  0.00    +0.000 OA
ATOM     26  C   UNL     1       5.152   5.778  17.136  0.00  0.00    +0.000 C 
ENDBRANCH  16  24
ENDBRANCH  15  16
ENDBRANCH   1  15
TORSDOF 5
ENDMDL
MODEL 3
REMARK VINA RESULT:      -8.0      0.932      1.199
REMARK  Name = 
REMARK  7 active torsions:
REMARK  status: ('A' for Active; 'I' for Inactive)
REMARK    1  A    between atoms: C_1  and  C_2
REMARK    2  A    between atoms: C_4  and  C_5
REMARK    3  A    between atoms: C_8  and  C_10
REMARK    4  A    between atoms: C_10  and  O_11
REMARK    5  A    between atoms: O_11  and  C_12
REMARK    6  A    between atoms: C_12  and  C_14
REMARK    7  A    between atoms: C_17  and  N_18
REMARK                            x       y       z     vdW  Elec       q    Type
REMARK                         _______ _______ _______ _____ _____    ______ ____
ROOT
ATOM      1  C   UNL     1       2.459   5.752  19.918  0.00  0.00    +0.000 C 
ATOM      2  O   UNL     1       1.661   4.868  20.194  0.00  0.00    +0.000 OA
ENDROOT
BRANCH   1   3
ATOM      3  C   UNL     1       2.051   7.160  19.679  0.00  0.00    +0.000 A 
ATOM      4  C   UNL     1       1.438   7.914  20.678  0.00  0.00    +0.000 A 
ATOM      5  C   UNL     1       1.017   9.222  20.415  0.00  0.00    +0.000 A 
ATOM      6  C   UNL     1       1.175   9.815  19.153  0.00  0.00    +0.000 A 
ATOM      7  C   UNL     1       1.791   9.041  18.154  0.00  0.00    +0.000 A 
ATOM      8  C   UNL     1       2.224   7.728  18.412  0.00  0.00    +0.000 A 
BRANCH   6   9
ATOM      9  N   UNL     1       0.722  11.140  18.903  0.00  0.00    +0.000 N 
ATOM     10  C   UNL     1      -0.617  11.585  19.214  0.00  0.00    +0.000 C 
ATOM     11  C   UNL     1      -0.749  12.917  18.502  0.00  0.00    +0.000 C 
ATOM     12  C   UNL     1       0.662  13.464  18.495  0.00  0.00    +0.000 C 
ATOM     13  C   UNL     1       1.522  12.225  18.500  0.00  0.00    +0.000 C 
ATOM     14  O   UNL     1       2.711  12.258  18.224  0.00  0.00    +0.000 OA
ENDBRANCH   6   9
ENDBRANCH   1   3
BRANCH   1  15
ATOM     15  O   UNL     1       3.802   5.616  19.812  0.00  0.00    +0.000 OA
BRANCH  15  16
ATOM     16  C   UNL     1       4.295   4.306  19.508  0.00  0.00    +0.000 C 
BRANCH  16  24
ATOM     17  C   UNL     1       7.882   4.490  17.618  0.00  0.00    +0.000 C 
ATOM     18  C   UNL     1       7.141   5.575  16.830  0.00  0.00    +0.000 C 
ATOM     19  C   UNL     1       7.069   5.233  15.332  0.00  0.00    +0.000 C 
ATOM     20  C   UNL     1       6.119   4.057  15.056  0.00  0.00    +0.000 C 
ATOM     21  C   UNL     1       6.026   3.777  13.559  0.00  0.00    +0.000 C 
ATOM     22  C   UNL     1       4.736   4.337  15.667  0.00  0.00    +0.000 C 
ATOM     23  N   UNL     1       4.850   4.667  17.091  0.00  0.00    +0.000 N 
ATOM     24  C   UNL     1       4.133   3.921  18.029  0.00  0.00    +0.000 C 
ATOM     25  O   UNL     1       3.394   2.992  17.694  0.00  0.00    +0.000 OA
ATOM     26  C   UNL     1       5.729   5.799  17.394  0.00  0.00    +0.000 C 
ENDBRANCH  16  24
ENDBRANCH  15  16
ENDBRANCH   1  15
TORSDOF 5
ENDMDL
MODEL 4
REMARK VINA RESULT:      -7.9      6.062      7.525
REMARK  Name = 
REMARK  7 active torsions:
REMARK  status: ('A' for Active; 'I' for Inactive)
REMARK    1  A    between atoms: C_1  and  C_2
REMARK    2  A    between atoms: C_4  and  C_5
REMARK    3  A    between atoms: C_8  and  C_10
REMARK    4  A    between atoms: C_10  and  O_11
REMARK    5  A    between atoms: O_11  and  C_12
REMARK    6  A    between atoms: C_12  and  C_14
REMARK    7  A    between atoms: C_17  and  N_18
REMARK                            x       y       z     vdW  Elec       q    Type
REMARK                         _______ _______ _______ _____ _____    ______ ____
ROOT
ATOM      1  C   UNL     1       7.867   8.693  17.869  0.00  0.00    +0.000 C 
ATOM      2  O   UNL     1       7.034   8.633  16.975  0.00  0.00    +0.000 OA
ENDROOT
BRANCH   1   3
ATOM      3  C   UNL     1       8.522   9.964  18.273  0.00  0.00    +0.000 A 
ATOM      4  C   UNL     1       8.323  11.140  17.555  0.00  0.00    +0.000 A 
ATOM      5  C   UNL     1       8.989  12.313  17.924  0.00  0.00    +0.000 A 
ATOM      6  C   UNL     1       9.884  12.351  19.005  0.00  0.00    +0.000 A 
ATOM      7  C   UNL     1      10.078  11.156  19.719  0.00  0.00    +0.000 A 
ATOM      8  C   UNL     1       9.405   9.974  19.358  0.00  0.00    +0.000 A 
BRANCH   6   9
ATOM      9  N   UNL     1      10.566  13.550  19.352  0.00  0.00    +0.000 N 
ATOM     10  C   UNL     1      11.895  13.864  18.881  0.00  0.00    +0.000 C 
ATOM     11  C   UNL     1      12.333  15.038  19.733  0.00  0.00    +0.000 C 
ATOM     12  C   UNL     1      11.039  15.753  20.054  0.00  0.00    +0.000 C 
ATOM     13  C   UNL     1      10.009  14.652  20.028  0.00  0.00    +0.000 C 
ATOM     14  O   UNL     1       8.894  14.794  20.504  0.00  0.00    +0.000 OA
ENDBRANCH   6   9
ENDBRANCH   1   3
BRANCH   1  15
ATOM     15  O   UNL     1       8.299   7.664  18.634  0.00  0.00    +0.000 OA
BRANCH  15  16
ATOM     16  C   UNL     1       7.986   6.344  18.175  0.00  0.00    +0.000 C 
BRANCH  16  24
ATOM     17  C   UNL     1       5.792   3.723  15.984  0.00  0.00    +0.000 C 
ATOM     18  C   UNL     1       4.664   4.648  16.451  0.00  0.00    +0.000 C 
ATOM     19  C   UNL     1       3.612   3.883  17.273  0.00  0.00    +0.000 C 
ATOM     20  C   UNL     1       4.153   3.464  18.650  0.00  0.00    +0.000 C 
ATOM     21  C   UNL     1       3.072   2.757  19.462  0.00  0.00    +0.000 C 
ATOM     22  C   UNL     1       4.711   4.687  19.395  0.00  0.00    +0.000 C 
ATOM     23  N   UNL     1       5.702   5.392  18.575  0.00  0.00    +0.000 N 
ATOM     24  C   UNL     1       6.986   5.606  19.080  0.00  0.00    +0.000 C 
ATOM     25  O   UNL     1       7.314   5.225  20.206  0.00  0.00    +0.000 OA
ATOM     26  C   UNL     1       5.217   5.829  17.263  0.00  0.00    +0.000 C 
ENDBRANCH  16  24
ENDBRANCH  15  16
ENDBRANCH   1  15
TORSDOF 5
ENDMDL
MODEL 5
REMARK VINA RESULT:      -7.9      6.208      7.607
REMARK  Name = 
REMARK  7 active torsions:
REMARK  status: ('A' for Active; 'I' for Inactive)
REMARK    1  A    between atoms: C_1  and  C_2
REMARK    2  A    between atoms: C_4  and  C_5
REMARK    3  A    between atoms: C_8  and  C_10
REMARK    4  A    between atoms: C_10  and  O_11
REMARK    5  A    between atoms: O_11  and  C_12
REMARK    6  A    between atoms: C_12  and  C_14
REMARK    7  A    between atoms: C_17  and  N_18
REMARK                            x       y       z     vdW  Elec       q    Type
REMARK                         _______ _______ _______ _____ _____    ______ ____
ROOT
ATOM      1  C   UNL     1       8.110   8.880  18.019  0.00  0.00    +0.000 C 
ATOM      2  O   UNL     1       7.321   8.869  17.084  0.00  0.00    +0.000 OA
ENDROOT
BRANCH   1   3
ATOM      3  C   UNL     1       8.785  10.117  18.487  0.00  0.00    +0.000 A 
ATOM      4  C   UNL     1       9.519  10.136  19.670  0.00  0.00    +0.000 A 
ATOM      5  C   UNL     1      10.105  11.325  20.118  0.00  0.00    +0.000 A 
ATOM      6  C   UNL     1       9.967  12.532  19.416  0.00  0.00    +0.000 A 
ATOM      7  C   UNL     1       9.219  12.499  18.226  0.00  0.00    +0.000 A 
ATOM      8  C   UNL     1       8.634  11.306  17.765  0.00  0.00    +0.000 A 
BRANCH   6   9
ATOM      9  N   UNL     1      10.554  13.734  19.899  0.00  0.00    +0.000 N 
ATOM     10  C   UNL     1      11.432  14.557  19.101  0.00  0.00    +0.000 C 
ATOM     11  C   UNL     1      12.055  15.520  20.092  0.00  0.00    +0.000 C 
ATOM     12  C   UNL     1      10.989  15.686  21.153  0.00  0.00    +0.000 C 
ATOM     13  C   UNL     1      10.242  14.377  21.112  0.00  0.00    +0.000 C 
ATOM     14  O   UNL     1       9.486  14.032  22.007  0.00  0.00    +0.000 OA
ENDBRANCH   6   9
ENDBRANCH   1   3
BRANCH   1  15
ATOM     15  O   UNL     1       8.470   7.819  18.777  0.00  0.00    +0.000 OA
BRANCH  15  16
ATOM     16  C   UNL     1       8.144   6.521  18.266  0.00  0.00    +0.000 C 
BRANCH  16  24
ATOM     17  C   UNL     1       5.971   3.969  15.974  0.00  0.00    +0.000 C 
ATOM     18  C   UNL     1       4.839   4.883  16.453  0.00  0.00    +0.000 C 
ATOM     19  C   UNL     1       3.776   4.098  17.240  0.00  0.00    +0.000 C 
ATOM     20  C   UNL     1       4.298   3.639  18.611  0.00  0.00    +0.000 C 
ATOM     21  C   UNL     1       3.205   2.911  19.389  0.00  0.00    +0.000 C 
ATOM     22  C   UNL     1       4.850   4.839  19.398  0.00  0.00    +0.000 C 
ATOM     23  N   UNL     1       5.852   5.564  18.610  0.00  0.00    +0.000 N 
ATOM     24  C   UNL     1       7.131   5.760  19.137  0.00  0.00    +0.000 C 
ATOM     25  O   UNL     1       7.444   5.346  20.256  0.00  0.00    +0.000 OA
ATOM     26  C   UNL     1       5.386   6.040  17.305  0.00  0.00    +0.000 C 
ENDBRANCH  16  24
ENDBRANCH  15  16
ENDBRANCH   1  15
TORSDOF 5
ENDMDL
MODEL 6
REMARK VINA RESULT:      -7.7      5.320      8.203
REMARK  Name = 
REMARK  7 active torsions:
REMARK  status: ('A' for Active; 'I' for Inactive)
REMARK    1  A    between atoms: C_1  and  C_2
REMARK    2  A    between atoms: C_4  and  C_5
REMARK    3  A    between atoms: C_8  and  C_10
REMARK    4  A    between atoms: C_10  and  O_11
REMARK    5  A    between atoms: O_11  and  C_12
REMARK    6  A    between atoms: C_12  and  C_14
REMARK    7  A    between atoms: C_17  and  N_18
REMARK                            x       y       z     vdW  Elec       q    Type
REMARK                         _______ _______ _______ _____ _____    ______ ____
ROOT
ATOM      1  C   UNL     1       7.570   7.266  17.510  0.00  0.00    +0.000 C 
ATOM      2  O   UNL     1       8.019   7.131  16.381  0.00  0.00    +0.000 OA
ENDROOT
BRANCH   1   3
ATOM      3  C   UNL     1       6.356   6.553  17.983  0.00  0.00    +0.000 A 
ATOM      4  C   UNL     1       6.432   5.577  18.974  0.00  0.00    +0.000 A 
ATOM      5  C   UNL     1       5.284   4.883  19.370  0.00  0.00    +0.000 A 
ATOM      6  C   UNL     1       4.031   5.122  18.784  0.00  0.00    +0.000 A 
ATOM      7  C   UNL     1       3.971   6.106  17.782  0.00  0.00    +0.000 A 
ATOM      8  C   UNL     1       5.120   6.814  17.384  0.00  0.00    +0.000 A 
BRANCH   6   9
ATOM      9  N   UNL     1       2.880   4.390  19.187  0.00  0.00    +0.000 N 
ATOM     10  C   UNL     1       2.040   4.791  20.291  0.00  0.00    +0.000 C 
ATOM     11  C   UNL     1       1.159   3.586  20.554  0.00  0.00    +0.000 C 
ATOM     12  C   UNL     1       1.022   2.935  19.195  0.00  0.00    +0.000 C 
ATOM     13  C   UNL     1       2.301   3.312  18.491  0.00  0.00    +0.000 C 
ATOM     14  O   UNL     1       2.674   2.748  17.475  0.00  0.00    +0.000 OA
ENDBRANCH   6   9
ENDBRANCH   1   3
BRANCH   1  15
ATOM     15  O   UNL     1       8.091   8.034  18.495  0.00  0.00    +0.000 OA
BRANCH  15  16
ATOM     16  C   UNL     1       8.516   9.352  18.128  0.00  0.00    +0.000 C 
BRANCH  16  24
ATOM     17  C   UNL     1       8.040  13.334  17.496  0.00  0.00    +0.000 C 
ATOM     18  C   UNL     1       9.571  13.273  17.497  0.00  0.00    +0.000 C 
ATOM     19  C   UNL     1      10.168  14.152  18.610  0.00  0.00    +0.000 C 
ATOM     20  C   UNL     1       9.912  13.563  20.006  0.00  0.00    +0.000 C 
ATOM     21  C   UNL     1      10.562  14.426  21.084  0.00  0.00    +0.000 C 
ATOM     22  C   UNL     1      10.408  12.110  20.069  0.00  0.00    +0.000 C 
ATOM     23  N   UNL     1       9.824  11.310  18.988  0.00  0.00    +0.000 N 
ATOM     24  C   UNL     1       9.113  10.148  19.299  0.00  0.00    +0.000 C 
ATOM     25  O   UNL     1       8.969   9.766  20.463  0.00  0.00    +0.000 OA
ATOM     26  C   UNL     1      10.066  11.825  17.638  0.00  0.00    +0.000 C 
ENDBRANCH  16  24
ENDBRANCH  15  16
ENDBRANCH   1  15
TORSDOF 5
ENDMDL
MODEL 7
REMARK VINA RESULT:      -7.7      2.118      8.747
REMARK  Name = 
REMARK  7 active torsions:
REMARK  status: ('A' for Active; 'I' for Inactive)
REMARK    1  A    between atoms: C_1  and  C_2
REMARK    2  A    between atoms: C_4  and  C_5
REMARK    3  A    between atoms: C_8  and  C_10
REMARK    4  A    between atoms: C_10  and  O_11
REMARK    5  A    between atoms: O_11  and  C_12
REMARK    6  A    between atoms: C_12  and  C_14
REMARK    7  A    between atoms: C_17  and  N_18
REMARK                            x       y       z     vdW  Elec       q    Type
REMARK                         _______ _______ _______ _____ _____    ______ ____
ROOT
ATOM      1  C   UNL     1       3.499   6.002  19.114  0.00  0.00    +0.000 C 
ATOM      2  O   UNL     1       3.232   5.203  20.000  0.00  0.00    +0.000 OA
ENDROOT
BRANCH   1   3
ATOM      3  C   UNL     1       4.175   5.608  17.852  0.00  0.00    +0.000 A 
ATOM      4  C   UNL     1       4.618   6.564  16.941  0.00  0.00    +0.000 A 
ATOM      5  C   UNL     1       5.207   6.169  15.735  0.00  0.00    +0.000 A 
ATOM      6  C   UNL     1       5.359   4.817  15.389  0.00  0.00    +0.000 A 
ATOM      7  C   UNL     1       4.903   3.864  16.316  0.00  0.00    +0.000 A 
ATOM      8  C   UNL     1       4.317   4.253  17.535  0.00  0.00    +0.000 A 
BRANCH   6   9
ATOM      9  N   UNL     1       5.943   4.437  14.149  0.00  0.00    +0.000 N 
ATOM     10  C   UNL     1       5.237   3.670  13.149  0.00  0.00    +0.000 C 
ATOM     11  C   UNL     1       6.313   3.235  12.175  0.00  0.00    +0.000 C 
ATOM     12  C   UNL     1       7.335   4.348  12.246  0.00  0.00    +0.000 C 
ATOM     13  C   UNL     1       7.179   4.884  13.647  0.00  0.00    +0.000 C 
ATOM     14  O   UNL     1       8.017   5.607  14.163  0.00  0.00    +0.000 OA
ENDBRANCH   6   9
ENDBRANCH   1   3
BRANCH   1  15
ATOM     15  O   UNL     1       3.214   7.325  19.115  0.00  0.00    +0.000 OA
BRANCH  15  16
ATOM     16  C   UNL     1       1.827   7.685  19.077  0.00  0.00    +0.000 C 
BRANCH  16  24
ATOM     17  C   UNL     1      -1.253  10.180  18.200  0.00  0.00    +0.000 C 
ATOM     18  C   UNL     1      -0.234  11.218  18.680  0.00  0.00    +0.000 C 
ATOM     19  C   UNL     1      -0.759  12.002  19.895  0.00  0.00    +0.000 C 
ATOM     20  C   UNL     1      -0.817  11.131  21.160  0.00  0.00    +0.000 C 
ATOM     21  C   UNL     1      -1.289  11.950  22.358  0.00  0.00    +0.000 C 
ATOM     22  C   UNL     1       0.552  10.483  21.422  0.00  0.00    +0.000 C 
ATOM     23  N   UNL     1       1.021   9.754  20.239  0.00  0.00    +0.000 N 
ATOM     24  C   UNL     1       1.349   8.402  20.349  0.00  0.00    +0.000 C 
ATOM     25  O   UNL     1       1.265   7.798  21.422  0.00  0.00    +0.000 OA
ATOM     26  C   UNL     1       1.113  10.556  19.016  0.00  0.00    +0.000 C 
ENDBRANCH  16  24
ENDBRANCH  15  16
ENDBRANCH   1  15
TORSDOF 5
ENDMDL
MODEL 8
REMARK VINA RESULT:      -7.6      5.301      8.082
REMARK  Name = 
REMARK  7 active torsions:
REMARK  status: ('A' for Active; 'I' for Inactive)
REMARK    1  A    between atoms: C_1  and  C_2
REMARK    2  A    between atoms: C_4  and  C_5
REMARK    3  A    between atoms: C_8  and  C_10
REMARK    4  A    between atoms: C_10  and  O_11
REMARK    5  A    between atoms: O_11  and  C_12
REMARK    6  A    between atoms: C_12  and  C_14
REMARK    7  A    between atoms: C_17  and  N_18
REMARK                            x       y       z     vdW  Elec       q    Type
REMARK                         _______ _______ _______ _____ _____    ______ ____
ROOT
ATOM      1  C   UNL     1       7.586   7.234  17.490  0.00  0.00    +0.000 C 
ATOM      2  O   UNL     1       8.041   7.086  16.364  0.00  0.00    +0.000 OA
ENDROOT
BRANCH   1   3
ATOM      3  C   UNL     1       6.358   6.543  17.959  0.00  0.00    +0.000 A 
ATOM      4  C   UNL     1       6.418   5.527  18.909  0.00  0.00    +0.000 A 
ATOM      5  C   UNL     1       5.254   4.857  19.300  0.00  0.00    +0.000 A 
ATOM      6  C   UNL     1       3.999   5.161  18.748  0.00  0.00    +0.000 A 
ATOM      7  C   UNL     1       3.955   6.186  17.786  0.00  0.00    +0.000 A 
ATOM      8  C   UNL     1       5.120   6.870  17.394  0.00  0.00    +0.000 A 
BRANCH   6   9
ATOM      9  N   UNL     1       2.831   4.453  19.144  0.00  0.00    +0.000 N 
ATOM     10  C   UNL     1       2.576   3.082  18.767  0.00  0.00    +0.000 C 
ATOM     11  C   UNL     1       1.121   2.856  19.123  0.00  0.00    +0.000 C 
ATOM     12  C   UNL     1       0.889   3.776  20.301  0.00  0.00    +0.000 C 
ATOM     13  C   UNL     1       1.872   4.896  20.074  0.00  0.00    +0.000 C 
ATOM     14  O   UNL     1       1.795   5.960  20.669  0.00  0.00    +0.000 OA
ENDBRANCH   6   9
ENDBRANCH   1   3
BRANCH   1  15
ATOM     15  O   UNL     1       8.114   7.998  18.474  0.00  0.00    +0.000 OA
BRANCH  15  16
ATOM     16  C   UNL     1       8.514   9.326  18.115  0.00  0.00    +0.000 C 
BRANCH  16  24
ATOM     17  C   UNL     1       8.012  13.305  17.490  0.00  0.00    +0.000 C 
ATOM     18  C   UNL     1       9.543  13.255  17.496  0.00  0.00    +0.000 C 
ATOM     19  C   UNL     1      10.131  14.136  18.612  0.00  0.00    +0.000 C 
ATOM     20  C   UNL     1       9.874  13.543  20.007  0.00  0.00    +0.000 C 
ATOM     21  C   UNL     1      10.516  14.408  21.088  0.00  0.00    +0.000 C 
ATOM     22  C   UNL     1      10.381  12.092  20.068  0.00  0.00    +0.000 C 
ATOM     23  N   UNL     1       9.805  11.291  18.984  0.00  0.00    +0.000 N 
ATOM     24  C   UNL     1       9.102  10.124  19.290  0.00  0.00    +0.000 C 
ATOM     25  O   UNL     1       8.957   9.738  20.453  0.00  0.00    +0.000 OA
ATOM     26  C   UNL     1      10.048  11.811  17.636  0.00  0.00    +0.000 C 
ENDBRANCH  16  24
ENDBRANCH  15  16
ENDBRANCH   1  15
TORSDOF 5
ENDMDL
MODEL 9
REMARK VINA RESULT:      -7.6      4.753      7.185
REMARK  Name = 
REMARK  7 active torsions:
REMARK  status: ('A' for Active; 'I' for Inactive)
REMARK    1  A    between atoms: C_1  and  C_2
REMARK    2  A    between atoms: C_4  and  C_5
REMARK    3  A    between atoms: C_8  and  C_10
REMARK    4  A    between atoms: C_10  and  O_11
REMARK    5  A    between atoms: O_11  and  C_12
REMARK    6  A    between atoms: C_12  and  C_14
REMARK    7  A    between atoms: C_17  and  N_18
REMARK                            x       y       z     vdW  Elec       q    Type
REMARK                         _______ _______ _______ _____ _____    ______ ____
ROOT
ATOM      1  C   UNL     1       6.830   6.660  16.814  0.00  0.00    +0.000 C 
ATOM      2  O   UNL     1       5.859   6.844  16.094  0.00  0.00    +0.000 OA
ENDROOT
BRANCH   1   3
ATOM      3  C   UNL     1       7.502   7.757  17.556  0.00  0.00    +0.000 A 
ATOM      4  C   UNL     1       7.357   9.086  17.168  0.00  0.00    +0.000 A 
ATOM      5  C   UNL     1       8.039  10.099  17.851  0.00  0.00    +0.000 A 
ATOM      6  C   UNL     1       8.897   9.823  18.927  0.00  0.00    +0.000 A 
ATOM      7  C   UNL     1       9.037   8.476  19.305  0.00  0.00    +0.000 A 
ATOM      8  C   UNL     1       8.349   7.453  18.628  0.00  0.00    +0.000 A 
BRANCH   6   9
ATOM      9  N   UNL     1       9.596  10.866  19.595  0.00  0.00    +0.000 N 
ATOM     10  C   UNL     1       9.329  11.241  20.964  0.00  0.00    +0.000 C 
ATOM     11  C   UNL     1      10.051  12.561  21.144  0.00  0.00    +0.000 C 
ATOM     12  C   UNL     1      11.228  12.460  20.198  0.00  0.00    +0.000 C 
ATOM     13  C   UNL     1      10.731  11.543  19.110  0.00  0.00    +0.000 C 
ATOM     14  O   UNL     1      11.301  11.440  18.036  0.00  0.00    +0.000 OA
ENDBRANCH   6   9
ENDBRANCH   1   3
BRANCH   1  15
ATOM     15  O   UNL     1       7.422   5.470  17.075  0.00  0.00    +0.000 OA
BRANCH  15  16
ATOM     16  C   UNL     1       6.559   4.390  17.450  0.00  0.00    +0.000 C 
BRANCH  16  24
ATOM     17  C   UNL     1       3.373   1.880  17.621  0.00  0.00    +0.000 C 
ATOM     18  C   UNL     1       2.623   3.210  17.491  0.00  0.00    +0.000 C 
ATOM     19  C   UNL     1       1.704   3.458  18.699  0.00  0.00    +0.000 C 
ATOM     20  C   UNL     1       2.504   3.766  19.976  0.00  0.00    +0.000 C 
ATOM     21  C   UNL     1       1.566   4.062  21.143  0.00  0.00    +0.000 C 
ATOM     22  C   UNL     1       3.478   4.929  19.724  0.00  0.00    +0.000 C 
ATOM     23  N   UNL     1       4.328   4.657  18.561  0.00  0.00    +0.000 N 
ATOM     24  C   UNL     1       5.717   4.690  18.700  0.00  0.00    +0.000 C 
ATOM     25  O   UNL     1       6.255   4.951  19.779  0.00  0.00    +0.000 OA
ATOM     26  C   UNL     1       3.602   4.382  17.317  0.00  0.00    +0.000 C 
ENDBRANCH  16  24
ENDBRANCH  15  16
ENDBRANCH   1  15
TORSDOF 5
ENDMDL
