MODEL 1
REMARK VINA RESULT:      -8.8      0.000      0.000
REMARK  Name = 
REMARK  5 active torsions:
REMARK  status: ('A' for Active; 'I' for Inactive)
REMARK    1  A    between atoms: C_1  and  O_2
REMARK    2  A    between atoms: O_2  and  C_3
REMARK    3  A    between atoms: C_6  and  C_7
REMARK    4  A    between atoms: N_9  and  C_10
REMARK    5  A    between atoms: C_10  and  C_11
REMARK                            x       y       z     vdW  Elec       q    Type
REMARK                         _______ _______ _______ _____ _____    ______ ____
ROOT
ATOM      1  C   UNL     1       2.826   6.275  18.972  0.00  0.00    +0.000 C 
ATOM      2  N   UNL     1       3.658   6.198  17.968  0.00  0.00    +0.000 NA
ATOM      3  N   UNL     1       3.676   5.016  17.223  0.00  0.00    +0.000 N 
ATOM      4  C   UNL     1       2.653   4.054  17.339  0.00  0.00    +0.000 C 
ATOM      5  O   UNL     1       2.281   3.315  16.433  0.00  0.00    +0.000 OA
ATOM      6  C   UNL     1       2.374   3.778  18.790  0.00  0.00    +0.000 C 
ATOM      7  C   UNL     1       1.209   2.864  19.163  0.00  0.00    +0.000 C 
ATOM      8  C   UNL     1       1.291   2.561  20.677  0.00  0.00    +0.000 C 
ATOM      9  C   UNL     1       1.478   3.809  21.564  0.00  0.00    +0.000 C 
ATOM     10  C   UNL     1       2.555   4.752  21.020  0.00  0.00    +0.000 C 
ATOM     11  C   UNL     1       2.179   5.058  19.568  0.00  0.00    +0.000 C 
ENDROOT
BRANCH   1  15
ATOM     12  C   UNL     1       0.240   9.452  19.757  0.00  0.00    +0.000 A 
ATOM     13  C   UNL     1       1.069   9.528  18.635  0.00  0.00    +0.000 A 
ATOM     14  C   UNL     1       2.095   8.600  18.461  0.00  0.00    +0.000 A 
ATOM     15  C   UNL     1       2.293   7.612  19.426  0.00  0.00    +0.000 A 
ATOM     16  C   UNL     1       1.620   7.718  20.659  0.00  0.00    +0.000 A 
ATOM     17  C   UNL     1       0.576   8.624  20.818  0.00  0.00    +0.000 A 
BRANCH  12  19
ATOM     18  C   UNL     1      -1.490  10.414  18.556  0.00  0.00    +0.000 C 
ATOM     19  O   UNL     1      -0.959  10.104  19.849  0.00  0.00    +0.000 OA
ENDBRANCH  12  19
ENDBRANCH   1  15
BRANCH   3  20
ATOM     20  C   UNL     1       4.989   4.467  16.924  0.00  0.00    +0.000 C 
BRANCH  20  21
ATOM     21  C   UNL     1       6.194   5.208  17.435  0.00  0.00    +0.000 A 
ATOM     22  C   UNL     1       6.627   6.362  16.763  0.00  0.00    +0.000 A 
ATOM     23  C   UNL     1       7.570   7.210  17.342  0.00  0.00    +0.000 A 
ATOM     24  C   UNL     1       8.103   6.905  18.592  0.00  0.00    +0.000 A 
ATOM     25  C   UNL     1       7.718   5.734  19.247  0.00  0.00    +0.000 A 
ATOM     26  C   UNL     1       6.771   4.885  18.669  0.00  0.00    +0.000 A 
ENDBRANCH  20  21
ENDBRANCH   3  20
TORSDOF 4
ENDMDL
MODEL 2
REMARK VINA RESULT:      -8.7      2.197      6.513
REMARK  Name = 
REMARK  5 active torsions:
REMARK  status: ('A' for Active; 'I' for Inactive)
REMARK    1  A    between atoms: C_1  and  O_2
REMARK    2  A    between atoms: O_2  and  C_3
REMARK    3  A    between atoms: C_6  and  C_7
REMARK    4  A    between atoms: N_9  and  C_10
REMARK    5  A    between atoms: C_10  and  C_11
REMARK                            x       y       z     vdW  Elec       q    Type
REMARK                         _______ _______ _______ _____ _____    ______ ____
ROOT
ATOM      1  C   UNL     1       3.630   5.958  17.765  0.00  0.00    +0.000 C 
ATOM      2  N   UNL     1       3.379   7.226  17.574  0.00  0.00    +0.000 NA
ATOM      3  N   UNL     1       2.529   7.867  18.479  0.00  0.00    +0.000 N 
ATOM      4  C   UNL     1       2.182   7.279  19.711  0.00  0.00    +0.000 C 
ATOM      5  O   UNL     1       1.931   7.902  20.738  0.00  0.00    +0.000 OA
ATOM      6  C   UNL     1       1.769   5.849  19.496  0.00  0.00    +0.000 C 
ATOM      7  C   UNL     1       1.476   4.970  20.708  0.00  0.00    +0.000 C 
ATOM      8  C   UNL     1       0.852   3.645  20.211  0.00  0.00    +0.000 C 
ATOM      9  C   UNL     1       1.629   2.970  19.063  0.00  0.00    +0.000 C 
ATOM     10  C   UNL     1       2.026   3.964  17.968  0.00  0.00    +0.000 C 
ATOM     11  C   UNL     1       2.781   5.102  18.660  0.00  0.00    +0.000 C 
ENDROOT
BRANCH   1  15
ATOM     12  C   UNL     1       7.019   5.162  15.467  0.00  0.00    +0.000 A 
ATOM     13  C   UNL     1       5.919   4.308  15.353  0.00  0.00    +0.000 A 
ATOM     14  C   UNL     1       4.862   4.407  16.255  0.00  0.00    +0.000 A 
ATOM     15  C   UNL     1       4.924   5.351  17.280  0.00  0.00    +0.000 A 
ATOM     16  C   UNL     1       6.145   6.010  17.526  0.00  0.00    +0.000 A 
ATOM     17  C   UNL     1       7.186   5.934  16.607  0.00  0.00    +0.000 A 
BRANCH  12  19
ATOM     18  C   UNL     1       7.418   4.917  13.200  0.00  0.00    +0.000 C 
ATOM     19  O   UNL     1       7.930   5.348  14.465  0.00  0.00    +0.000 OA
ENDBRANCH  12  19
ENDBRANCH   1  15
BRANCH   3  20
ATOM     20  C   UNL     1       1.494   8.708  17.899  0.00  0.00    +0.000 C 
BRANCH  20  21
ATOM     21  C   UNL     1       1.371  10.120  18.400  0.00  0.00    +0.000 A 
ATOM     22  C   UNL     1       2.357  11.059  18.057  0.00  0.00    +0.000 A 
ATOM     23  C   UNL     1       2.153  12.419  18.285  0.00  0.00    +0.000 A 
ATOM     24  C   UNL     1       0.969  12.854  18.873  0.00  0.00    +0.000 A 
ATOM     25  C   UNL     1       0.003  11.926  19.265  0.00  0.00    +0.000 A 
ATOM     26  C   UNL     1       0.205  10.563  19.035  0.00  0.00    +0.000 A 
ENDBRANCH  20  21
ENDBRANCH   3  20
TORSDOF 4
ENDMDL
MODEL 3
REMARK VINA RESULT:      -8.5      1.600      2.338
REMARK  Name = 
REMARK  5 active torsions:
REMARK  status: ('A' for Active; 'I' for Inactive)
REMARK    1  A    between atoms: C_1  and  O_2
REMARK    2  A    between atoms: O_2  and  C_3
REMARK    3  A    between atoms: C_6  and  C_7
REMARK    4  A    between atoms: N_9  and  C_10
REMARK    5  A    between atoms: C_10  and  C_11
REMARK                            x       y       z     vdW  Elec       q    Type
REMARK                         _______ _______ _______ _____ _____    ______ ____
ROOT
ATOM      1  C   UNL     1       3.013   6.101  18.619  0.00  0.00    +0.000 C 
ATOM      2  N   UNL     1       3.810   5.913  17.602  0.00  0.00    +0.000 NA
ATOM      3  N   UNL     1       3.751   4.682  16.943  0.00  0.00    +0.000 N 
ATOM      4  C   UNL     1       2.690   3.780  17.157  0.00  0.00    +0.000 C 
ATOM      5  O   UNL     1       2.258   2.997  16.317  0.00  0.00    +0.000 OA
ATOM      6  C   UNL     1       2.444   3.621  18.631  0.00  0.00    +0.000 C 
ATOM      7  C   UNL     1       1.251   2.792  19.101  0.00  0.00    +0.000 C 
ATOM      8  C   UNL     1       1.365   2.594  20.630  0.00  0.00    +0.000 C 
ATOM      9  C   UNL     1       1.635   3.891  21.419  0.00  0.00    +0.000 C 
ATOM     10  C   UNL     1       2.736   4.742  20.779  0.00  0.00    +0.000 C 
ATOM     11  C   UNL     1       2.330   4.960  19.320  0.00  0.00    +0.000 C 
ENDROOT
BRANCH   1  15
ATOM     12  C   UNL     1       0.594   9.437  19.262  0.00  0.00    +0.000 A 
ATOM     13  C   UNL     1       1.376   9.392  18.105  0.00  0.00    +0.000 A 
ATOM     14  C   UNL     1       2.354   8.411  17.961  0.00  0.00    +0.000 A 
ATOM     15  C   UNL     1       2.555   7.491  18.990  0.00  0.00    +0.000 A 
ATOM     16  C   UNL     1       1.942   7.719  20.238  0.00  0.00    +0.000 A 
ATOM     17  C   UNL     1       0.943   8.678  20.369  0.00  0.00    +0.000 A 
BRANCH  12  19
ATOM     18  C   UNL     1      -1.170  10.341  18.065  0.00  0.00    +0.000 C 
ATOM     19  O   UNL     1      -0.572  10.146  19.351  0.00  0.00    +0.000 OA
ENDBRANCH  12  19
ENDBRANCH   1  15
BRANCH   3  20
ATOM     20  C   UNL     1       5.029   4.052  16.649  0.00  0.00    +0.000 C 
BRANCH  20  21
ATOM     21  C   UNL     1       5.638   4.297  15.296  0.00  0.00    +0.000 A 
ATOM     22  C   UNL     1       6.855   4.990  15.206  0.00  0.00    +0.000 A 
ATOM     23  C   UNL     1       7.571   5.016  14.010  0.00  0.00    +0.000 A 
ATOM     24  C   UNL     1       7.071   4.362  12.887  0.00  0.00    +0.000 A 
ATOM     25  C   UNL     1       5.838   3.712  12.951  0.00  0.00    +0.000 A 
ATOM     26  C   UNL     1       5.120   3.684  14.149  0.00  0.00    +0.000 A 
ENDBRANCH  20  21
ENDBRANCH   3  20
TORSDOF 4
ENDMDL
MODEL 4
REMARK VINA RESULT:      -8.4      2.245      6.659
REMARK  Name = 
REMARK  5 active torsions:
REMARK  status: ('A' for Active; 'I' for Inactive)
REMARK    1  A    between atoms: C_1  and  O_2
REMARK    2  A    between atoms: O_2  and  C_3
REMARK    3  A    between atoms: C_6  and  C_7
REMARK    4  A    between atoms: N_9  and  C_10
REMARK    5  A    between atoms: C_10  and  C_11
REMARK                            x       y       z     vdW  Elec       q    Type
REMARK                         _______ _______ _______ _____ _____    ______ ____
ROOT
ATOM      1  C   UNL     1       3.347   6.793  17.883  0.00  0.00    +0.000 C 
ATOM      2  N   UNL     1       2.958   8.039  17.845  0.00  0.00    +0.000 NA
ATOM      3  N   UNL     1       2.116   8.492  18.863  0.00  0.00    +0.000 N 
ATOM      4  C   UNL     1       1.919   7.750  20.045  0.00  0.00    +0.000 C 
ATOM      5  O   UNL     1       1.682   8.237  21.146  0.00  0.00    +0.000 OA
ATOM      6  C   UNL     1       1.637   6.313  19.705  0.00  0.00    +0.000 C 
ATOM      7  C   UNL     1       1.522   5.291  20.832  0.00  0.00    +0.000 C 
ATOM      8  C   UNL     1       1.000   3.963  20.236  0.00  0.00    +0.000 C 
ATOM      9  C   UNL     1       1.755   3.493  18.977  0.00  0.00    +0.000 C 
ATOM     10  C   UNL     1       1.971   4.628  17.971  0.00  0.00    +0.000 C 
ATOM     11  C   UNL     1       2.656   5.765  18.733  0.00  0.00    +0.000 C 
ENDROOT
BRANCH   1  15
ATOM     12  C   UNL     1       6.216   4.649  15.746  0.00  0.00    +0.000 A 
ATOM     13  C   UNL     1       6.196   4.532  17.138  0.00  0.00    +0.000 A 
ATOM     14  C   UNL     1       5.407   5.392  17.899  0.00  0.00    +0.000 A 
ATOM     15  C   UNL     1       4.657   6.378  17.258  0.00  0.00    +0.000 A 
ATOM     16  C   UNL     1       4.898   6.640  15.894  0.00  0.00    +0.000 A 
ATOM     17  C   UNL     1       5.660   5.761  15.131  0.00  0.00    +0.000 A 
BRANCH  12  19
ATOM     18  C   UNL     1       6.213   3.829  13.580  0.00  0.00    +0.000 C 
ATOM     19  O   UNL     1       6.698   3.672  14.918  0.00  0.00    +0.000 OA
ENDBRANCH  12  19
ENDBRANCH   1  15
BRANCH   3  20
ATOM     20  C   UNL     1       0.962   9.270  18.441  0.00  0.00    +0.000 C 
BRANCH  20  21
ATOM     21  C   UNL     1       1.002  10.759  18.654  0.00  0.00    +0.000 A 
ATOM     22  C   UNL     1       2.178  11.464  18.355  0.00  0.00    +0.000 A 
ATOM     23  C   UNL     1       2.175  12.857  18.297  0.00  0.00    +0.000 A 
ATOM     24  C   UNL     1       1.001  13.561  18.553  0.00  0.00    +0.000 A 
ATOM     25  C   UNL     1      -0.162  12.872  18.901  0.00  0.00    +0.000 A 
ATOM     26  C   UNL     1      -0.162  11.476  18.957  0.00  0.00    +0.000 A 
ENDBRANCH  20  21
ENDBRANCH   3  20
TORSDOF 4
ENDMDL
MODEL 5
REMARK VINA RESULT:      -8.4      2.275      6.602
REMARK  Name = 
REMARK  5 active torsions:
REMARK  status: ('A' for Active; 'I' for Inactive)
REMARK    1  A    between atoms: C_1  and  O_2
REMARK    2  A    between atoms: O_2  and  C_3
REMARK    3  A    between atoms: C_6  and  C_7
REMARK    4  A    between atoms: N_9  and  C_10
REMARK    5  A    between atoms: C_10  and  C_11
REMARK                            x       y       z     vdW  Elec       q    Type
REMARK                         _______ _______ _______ _____ _____    ______ ____
ROOT
ATOM      1  C   UNL     1       3.366   6.733  17.890  0.00  0.00    +0.000 C 
ATOM      2  N   UNL     1       3.021   7.992  17.922  0.00  0.00    +0.000 NA
ATOM      3  N   UNL     1       2.192   8.417  18.964  0.00  0.00    +0.000 N 
ATOM      4  C   UNL     1       1.968   7.616  20.102  0.00  0.00    +0.000 C 
ATOM      5  O   UNL     1       1.745   8.049  21.228  0.00  0.00    +0.000 OA
ATOM      6  C   UNL     1       1.636   6.212  19.681  0.00  0.00    +0.000 C 
ATOM      7  C   UNL     1       1.483   5.132  20.749  0.00  0.00    +0.000 C 
ATOM      8  C   UNL     1       0.916   3.859  20.079  0.00  0.00    +0.000 C 
ATOM      9  C   UNL     1       1.656   3.435  18.795  0.00  0.00    +0.000 C 
ATOM     10  C   UNL     1       1.914   4.616  17.855  0.00  0.00    +0.000 C 
ATOM     11  C   UNL     1       2.637   5.684  18.681  0.00  0.00    +0.000 C 
ENDROOT
BRANCH   1  15
ATOM     12  C   UNL     1       6.177   4.579  15.686  0.00  0.00    +0.000 A 
ATOM     13  C   UNL     1       6.171   4.442  17.076  0.00  0.00    +0.000 A 
ATOM     14  C   UNL     1       5.405   5.302  17.859  0.00  0.00    +0.000 A 
ATOM     15  C   UNL     1       4.662   6.309  17.242  0.00  0.00    +0.000 A 
ATOM     16  C   UNL     1       4.890   6.586  15.879  0.00  0.00    +0.000 A 
ATOM     17  C   UNL     1       5.629   5.708  15.094  0.00  0.00    +0.000 A 
BRANCH  12  19
ATOM     18  C   UNL     1       6.190   3.829  13.495  0.00  0.00    +0.000 C 
ATOM     19  O   UNL     1       6.633   3.607  14.838  0.00  0.00    +0.000 OA
ENDBRANCH  12  19
ENDBRANCH   1  15
BRANCH   3  20
ATOM     20  C   UNL     1       1.068   9.257  18.586  0.00  0.00    +0.000 C 
BRANCH  20  21
ATOM     21  C   UNL     1       1.144  10.723  18.914  0.00  0.00    +0.000 A 
ATOM     22  C   UNL     1       0.477  11.208  20.050  0.00  0.00    +0.000 A 
ATOM     23  C   UNL     1       0.726  12.494  20.526  0.00  0.00    +0.000 A 
ATOM     24  C   UNL     1       1.634  13.316  19.862  0.00  0.00    +0.000 A 
ATOM     25  C   UNL     1       2.265  12.863  18.702  0.00  0.00    +0.000 A 
ATOM     26  C   UNL     1       2.017  11.573  18.226  0.00  0.00    +0.000 A 
ENDBRANCH  20  21
ENDBRANCH   3  20
TORSDOF 4
ENDMDL
MODEL 6
REMARK VINA RESULT:      -8.3      1.613      2.333
REMARK  Name = 
REMARK  5 active torsions:
REMARK  status: ('A' for Active; 'I' for Inactive)
REMARK    1  A    between atoms: C_1  and  O_2
REMARK    2  A    between atoms: O_2  and  C_3
REMARK    3  A    between atoms: C_6  and  C_7
REMARK    4  A    between atoms: N_9  and  C_10
REMARK    5  A    between atoms: C_10  and  C_11
REMARK                            x       y       z     vdW  Elec       q    Type
REMARK                         _______ _______ _______ _____ _____    ______ ____
ROOT
ATOM      1  C   UNL     1       3.124   6.075  18.571  0.00  0.00    +0.000 C 
ATOM      2  N   UNL     1       4.003   5.836  17.635  0.00  0.00    +0.000 NA
ATOM      3  N   UNL     1       3.958   4.592  16.999  0.00  0.00    +0.000 N 
ATOM      4  C   UNL     1       2.848   3.734  17.131  0.00  0.00    +0.000 C 
ATOM      5  O   UNL     1       2.465   2.949  16.270  0.00  0.00    +0.000 OA
ATOM      6  C   UNL     1       2.461   3.619  18.579  0.00  0.00    +0.000 C 
ATOM      7  C   UNL     1       1.200   2.845  18.952  0.00  0.00    +0.000 C 
ATOM      8  C   UNL     1       1.166   2.678  20.489  0.00  0.00    +0.000 C 
ATOM      9  C   UNL     1       1.411   3.982  21.274  0.00  0.00    +0.000 C 
ATOM     10  C   UNL     1       2.598   4.778  20.722  0.00  0.00    +0.000 C 
ATOM     11  C   UNL     1       2.336   4.977  19.227  0.00  0.00    +0.000 C 
ENDROOT
BRANCH   1  15
ATOM     12  C   UNL     1       0.777   9.502  18.950  0.00  0.00    +0.000 A 
ATOM     13  C   UNL     1       1.634   9.399  17.852  0.00  0.00    +0.000 A 
ATOM     14  C   UNL     1       2.587   8.384  17.804  0.00  0.00    +0.000 A 
ATOM     15  C   UNL     1       2.687   7.489  18.870  0.00  0.00    +0.000 A 
ATOM     16  C   UNL     1       1.997   7.774  20.065  0.00  0.00    +0.000 A 
ATOM     17  C   UNL     1       1.024   8.766  20.100  0.00  0.00    +0.000 A 
BRANCH  12  19
ATOM     18  C   UNL     1      -0.644  10.811  20.227  0.00  0.00    +0.000 C 
ATOM     19  O   UNL     1      -0.369  10.249  18.939  0.00  0.00    +0.000 OA
ENDBRANCH  12  19
ENDBRANCH   1  15
BRANCH   3  20
ATOM     20  C   UNL     1       5.232   3.910  16.837  0.00  0.00    +0.000 C 
BRANCH  20  21
ATOM     21  C   UNL     1       5.935   4.039  15.514  0.00  0.00    +0.000 A 
ATOM     22  C   UNL     1       5.368   3.449  14.373  0.00  0.00    +0.000 A 
ATOM     23  C   UNL     1       5.848   3.756  13.101  0.00  0.00    +0.000 A 
ATOM     24  C   UNL     1       6.911   4.644  12.955  0.00  0.00    +0.000 A 
ATOM     25  C   UNL     1       7.516   5.197  14.085  0.00  0.00    +0.000 A 
ATOM     26  C   UNL     1       7.035   4.892  15.360  0.00  0.00    +0.000 A 
ENDBRANCH  20  21
ENDBRANCH   3  20
TORSDOF 4
ENDMDL
MODEL 7
REMARK VINA RESULT:      -8.2      0.808      1.259
REMARK  Name = 
REMARK  5 active torsions:
REMARK  status: ('A' for Active; 'I' for Inactive)
REMARK    1  A    between atoms: C_1  and  O_2
REMARK    2  A    between atoms: O_2  and  C_3
REMARK    3  A    between atoms: C_6  and  C_7
REMARK    4  A    between atoms: N_9  and  C_10
REMARK    5  A    between atoms: C_10  and  C_11
REMARK                            x       y       z     vdW  Elec       q    Type
REMARK                         _______ _______ _______ _____ _____    ______ ____
ROOT
ATOM      1  C   UNL     1       2.420   6.448  19.554  0.00  0.00    +0.000 C 
ATOM      2  N   UNL     1       3.138   6.596  18.474  0.00  0.00    +0.000 NA
ATOM      3  N   UNL     1       3.185   5.533  17.568  0.00  0.00    +0.000 N 
ATOM      4  C   UNL     1       2.278   4.457  17.644  0.00  0.00    +0.000 C 
ATOM      5  O   UNL     1       1.879   3.809  16.682  0.00  0.00    +0.000 OA
ATOM      6  C   UNL     1       2.190   3.962  19.061  0.00  0.00    +0.000 C 
ATOM      7  C   UNL     1       1.166   2.886  19.410  0.00  0.00    +0.000 C 
ATOM      8  C   UNL     1       1.445   2.395  20.850  0.00  0.00    +0.000 C 
ATOM      9  C   UNL     1       1.610   3.527  21.884  0.00  0.00    +0.000 C 
ATOM     10  C   UNL     1       2.525   4.647  21.380  0.00  0.00    +0.000 C 
ATOM     11  C   UNL     1       1.962   5.099  20.030  0.00  0.00    +0.000 C 
ENDROOT
BRANCH   1  15
ATOM     12  C   UNL     1      -0.205   9.519  20.592  0.00  0.00    +0.000 A 
ATOM     13  C   UNL     1       0.901   9.826  19.795  0.00  0.00    +0.000 A 
ATOM     14  C   UNL     1       1.912   8.885  19.611  0.00  0.00    +0.000 A 
ATOM     15  C   UNL     1       1.816   7.647  20.245  0.00  0.00    +0.000 A 
ATOM     16  C   UNL     1       0.836   7.464  21.240  0.00  0.00    +0.000 A 
ATOM     17  C   UNL     1      -0.190   8.390  21.399  0.00  0.00    +0.000 A 
BRANCH  12  19
ATOM     18  C   UNL     1      -1.124  11.622  20.293  0.00  0.00    +0.000 C 
ATOM     19  O   UNL     1      -1.366  10.239  20.573  0.00  0.00    +0.000 OA
ENDBRANCH  12  19
ENDBRANCH   1  15
BRANCH   3  20
ATOM     20  C   UNL     1       4.503   5.176  17.067  0.00  0.00    +0.000 C 
BRANCH  20  21
ATOM     21  C   UNL     1       5.697   5.843  17.692  0.00  0.00    +0.000 A 
ATOM     22  C   UNL     1       6.318   5.243  18.799  0.00  0.00    +0.000 A 
ATOM     23  C   UNL     1       7.562   5.688  19.244  0.00  0.00    +0.000 A 
ATOM     24  C   UNL     1       8.192   6.748  18.598  0.00  0.00    +0.000 A 
ATOM     25  C   UNL     1       7.561   7.385  17.527  0.00  0.00    +0.000 A 
ATOM     26  C   UNL     1       6.316   6.939  17.079  0.00  0.00    +0.000 A 
ENDBRANCH  20  21
ENDBRANCH   3  20
TORSDOF 4
ENDMDL
MODEL 8
REMARK VINA RESULT:      -8.2      1.029      1.743
REMARK  Name = 
REMARK  5 active torsions:
REMARK  status: ('A' for Active; 'I' for Inactive)
REMARK    1  A    between atoms: C_1  and  O_2
REMARK    2  A    between atoms: O_2  and  C_3
REMARK    3  A    between atoms: C_6  and  C_7
REMARK    4  A    between atoms: N_9  and  C_10
REMARK    5  A    between atoms: C_10  and  C_11
REMARK                            x       y       z     vdW  Elec       q    Type
REMARK                         _______ _______ _______ _____ _____    ______ ____
ROOT
ATOM      1  C   UNL     1       2.360   6.205  19.121  0.00  0.00    +0.000 C 
ATOM      2  N   UNL     1       3.124   6.321  18.069  0.00  0.00    +0.000 NA
ATOM      3  N   UNL     1       3.383   5.171  17.318  0.00  0.00    +0.000 N 
ATOM      4  C   UNL     1       2.632   3.991  17.492  0.00  0.00    +0.000 C 
ATOM      5  O   UNL     1       2.396   3.175  16.607  0.00  0.00    +0.000 OA
ATOM      6  C   UNL     1       2.516   3.671  18.957  0.00  0.00    +0.000 C 
ATOM      7  C   UNL     1       1.632   2.507  19.395  0.00  0.00    +0.000 C 
ATOM      8  C   UNL     1       1.875   2.249  20.900  0.00  0.00    +0.000 C 
ATOM      9  C   UNL     1       1.808   3.513  21.779  0.00  0.00    +0.000 C 
ATOM     10  C   UNL     1       2.589   4.684  21.176  0.00  0.00    +0.000 C 
ATOM     11  C   UNL     1       2.064   4.874  19.750  0.00  0.00    +0.000 C 
ENDROOT
BRANCH   1  15
ATOM     12  C   UNL     1       1.311   9.854  20.849  0.00  0.00    +0.000 A 
ATOM     13  C   UNL     1       1.113   8.684  21.587  0.00  0.00    +0.000 A 
ATOM     14  C   UNL     1       1.241   7.440  20.972  0.00  0.00    +0.000 A 
ATOM     15  C   UNL     1       1.548   7.379  19.613  0.00  0.00    +0.000 A 
ATOM     16  C   UNL     1       1.482   8.559  18.845  0.00  0.00    +0.000 A 
ATOM     17  C   UNL     1       1.386   9.800  19.465  0.00  0.00    +0.000 A 
BRANCH  12  19
ATOM     18  C   UNL     1       1.103  12.141  20.558  0.00  0.00    +0.000 C 
ATOM     19  O   UNL     1       1.515  11.077  21.423  0.00  0.00    +0.000 OA
ENDBRANCH  12  19
ENDBRANCH   1  15
BRANCH   3  20
ATOM     20  C   UNL     1       4.769   4.953  16.937  0.00  0.00    +0.000 C 
BRANCH  20  21
ATOM     21  C   UNL     1       5.826   5.761  17.639  0.00  0.00    +0.000 A 
ATOM     22  C   UNL     1       6.459   5.229  18.773  0.00  0.00    +0.000 A 
ATOM     23  C   UNL     1       7.604   5.826  19.295  0.00  0.00    +0.000 A 
ATOM     24  C   UNL     1       8.122   6.974  18.698  0.00  0.00    +0.000 A 
ATOM     25  C   UNL     1       7.473   7.541  17.600  0.00  0.00    +0.000 A 
ATOM     26  C   UNL     1       6.326   6.942  17.076  0.00  0.00    +0.000 A 
ENDBRANCH  20  21
ENDBRANCH   3  20
TORSDOF 4
ENDMDL
MODEL 9
REMARK VINA RESULT:      -7.9      2.314      6.288
REMARK  Name = 
REMARK  5 active torsions:
REMARK  status: ('A' for Active; 'I' for Inactive)
REMARK    1  A    between atoms: C_1  and  O_2
REMARK    2  A    between atoms: O_2  and  C_3
REMARK    3  A    between atoms: C_6  and  C_7
REMARK    4  A    between atoms: N_9  and  C_10
REMARK    5  A    between atoms: C_10  and  C_11
REMARK                            x       y       z     vdW  Elec       q    Type
REMARK                         _______ _______ _______ _____ _____    ______ ____
ROOT
ATOM      1  C   UNL     1       3.655   5.597  18.615  0.00  0.00    +0.000 C 
ATOM      2  N   UNL     1       3.137   6.503  19.399  0.00  0.00    +0.000 NA
ATOM      3  N   UNL     1       2.379   6.068  20.490  0.00  0.00    +0.000 N 
ATOM      4  C   UNL     1       2.402   4.725  20.917  0.00  0.00    +0.000 C 
ATOM      5  O   UNL     1       2.249   4.358  22.077  0.00  0.00    +0.000 OA
ATOM      6  C   UNL     1       2.232   3.811  19.737  0.00  0.00    +0.000 C 
ATOM      7  C   UNL     1       2.358   2.303  19.939  0.00  0.00    +0.000 C 
ATOM      8  C   UNL     1       1.909   1.596  18.640  0.00  0.00    +0.000 C 
ATOM      9  C   UNL     1       2.553   2.158  17.357  0.00  0.00    +0.000 C 
ATOM     10  C   UNL     1       2.529   3.689  17.317  0.00  0.00    +0.000 C 
ATOM     11  C   UNL     1       3.179   4.172  18.617  0.00  0.00    +0.000 C 
ENDROOT
BRANCH   1  15
ATOM     12  C   UNL     1       6.760   5.298  15.847  0.00  0.00    +0.000 A 
ATOM     13  C   UNL     1       6.991   4.873  17.157  0.00  0.00    +0.000 A 
ATOM     14  C   UNL     1       6.063   5.157  18.157  0.00  0.00    +0.000 A 
ATOM     15  C   UNL     1       4.917   5.885  17.838  0.00  0.00    +0.000 A 
ATOM     16  C   UNL     1       4.839   6.519  16.582  0.00  0.00    +0.000 A 
ATOM     17  C   UNL     1       5.749   6.208  15.577  0.00  0.00    +0.000 A 
BRANCH  12  19
ATOM     18  C   UNL     1       6.568   4.104  13.872  0.00  0.00    +0.000 C 
ATOM     19  O   UNL     1       7.439   4.803  14.768  0.00  0.00    +0.000 OA
ENDBRANCH  12  19
ENDBRANCH   1  15
BRANCH   3  20
ATOM     20  C   UNL     1       1.109   6.745  20.698  0.00  0.00    +0.000 C 
BRANCH  20  21
ATOM     21  C   UNL     1       1.121   8.246  20.800  0.00  0.00    +0.000 A 
ATOM     22  C   UNL     1       1.144   9.014  19.625  0.00  0.00    +0.000 A 
ATOM     23  C   UNL     1       0.902  10.386  19.668  0.00  0.00    +0.000 A 
ATOM     24  C   UNL     1       0.651  11.009  20.888  0.00  0.00    +0.000 A 
ATOM     25  C   UNL     1       0.675  10.264  22.068  0.00  0.00    +0.000 A 
ATOM     26  C   UNL     1       0.916   8.889  22.026  0.00  0.00    +0.000 A 
ENDBRANCH  20  21
ENDBRANCH   3  20
TORSDOF 4
ENDMDL
