MODEL 1
REMARK VINA RESULT:      -7.0      0.000      0.000
REMARK  Name = 
REMARK  5 active torsions:
REMARK  status: ('A' for Active; 'I' for Inactive)
REMARK    1  A    between atoms: C_1  and  O_2
REMARK    2  A    between atoms: O_2  and  C_3
REMARK    3  A    between atoms: C_6  and  N_7
REMARK    4  A    between atoms: C_19  and  O_20
REMARK    5  A    between atoms: O_20  and  C_21
REMARK                            x       y       z     vdW  Elec       q    Type
REMARK                         _______ _______ _______ _____ _____    ______ ____
ROOT
ATOM      1  N   UNL     1       2.187   7.337  19.467  0.00  0.00    +0.000 N 
ATOM      2  C   UNL     1       2.382   8.140  18.367  0.00  0.00    +0.000 C 
ATOM      3  O   UNL     1       3.037   7.860  17.364  0.00  0.00    +0.000 OA
ATOM      4  N   UNL     1       1.641   9.292  18.351  0.00  0.00    +0.000 N 
ATOM      5  C   UNL     1       0.906   9.829  19.405  0.00  0.00    +0.000 A 
ATOM      6  C   UNL     1      -0.271  10.496  19.099  0.00  0.00    +0.000 A 
ATOM      7  C   UNL     1      -1.045  10.994  20.150  0.00  0.00    +0.000 A 
ATOM      8  C   UNL     1      -0.574  10.888  21.453  0.00  0.00    +0.000 A 
ATOM      9 BR   UNL     1      -1.554  11.599  22.894  0.00  0.00    +0.000 Br
ATOM     10  C   UNL     1       0.628  10.235  21.666  0.00  0.00    +0.000 A 
ATOM     11  N   UNL     1       1.349   9.655  20.670  0.00  0.00    +0.000 NA
ATOM     12  H   UNL     1       1.695   7.790  20.230  0.00  0.00    +0.000 HD
ATOM     13  H   UNL     1       1.551   9.690  17.428  0.00  0.00    +0.000 HD
ENDROOT
BRANCH   1  17
ATOM     14  C   UNL     1       3.499   3.358  19.798  0.00  0.00    +0.000 A 
ATOM     15  C   UNL     1       2.206   3.703  20.211  0.00  0.00    +0.000 A 
ATOM     16  C   UNL     1       1.748   5.017  20.136  0.00  0.00    +0.000 A 
ATOM     17  C   UNL     1       2.592   6.016  19.664  0.00  0.00    +0.000 A 
ATOM     18  C   UNL     1       3.920   5.696  19.362  0.00  0.00    +0.000 A 
ATOM     19  C   UNL     1       4.395   4.378  19.436  0.00  0.00    +0.000 A 
BRANCH  14  21
ATOM     20  C   UNL     1       3.621   1.390  18.511  0.00  0.00    +0.000 C 
ATOM     21  O   UNL     1       3.894   2.046  19.751  0.00  0.00    +0.000 OA
ENDBRANCH  14  21
BRANCH  19  22
ATOM     22  O   UNL     1       5.719   4.286  19.103  0.00  0.00    +0.000 OA
ATOM     23  C   UNL     1       6.548   5.426  19.256  0.00  0.00    +0.000 C 
ENDBRANCH  19  22
ENDBRANCH   1  17
TORSDOF 3
ENDMDL
MODEL 2
REMARK VINA RESULT:      -6.9      2.743      3.860
REMARK  Name = 
REMARK  5 active torsions:
REMARK  status: ('A' for Active; 'I' for Inactive)
REMARK    1  A    between atoms: C_1  and  O_2
REMARK    2  A    between atoms: O_2  and  C_3
REMARK    3  A    between atoms: C_6  and  N_7
REMARK    4  A    between atoms: C_19  and  O_20
REMARK    5  A    between atoms: O_20  and  C_21
REMARK                            x       y       z     vdW  Elec       q    Type
REMARK                         _______ _______ _______ _____ _____    ______ ____
ROOT
ATOM      1  N   UNL     1       3.474   6.346  18.661  0.00  0.00    +0.000 N 
ATOM      2  C   UNL     1       2.825   5.745  19.713  0.00  0.00    +0.000 C 
ATOM      3  O   UNL     1       2.984   4.590  20.107  0.00  0.00    +0.000 OA
ATOM      4  N   UNL     1       2.045   6.580  20.468  0.00  0.00    +0.000 N 
ATOM      5  C   UNL     1       1.672   7.886  20.157  0.00  0.00    +0.000 A 
ATOM      6  C   UNL     1       1.541   8.788  21.201  0.00  0.00    +0.000 A 
ATOM      7  C   UNL     1       1.218  10.112  20.899  0.00  0.00    +0.000 A 
ATOM      8  C   UNL     1       0.952  10.465  19.582  0.00  0.00    +0.000 A 
ATOM      9 BR   UNL     1       0.454  12.225  19.135  0.00  0.00    +0.000 Br
ATOM     10  C   UNL     1       1.075   9.494  18.603  0.00  0.00    +0.000 A 
ATOM     11  N   UNL     1       1.484   8.223  18.862  0.00  0.00    +0.000 NA
ATOM     12  H   UNL     1       3.131   7.274  18.436  0.00  0.00    +0.000 HD
ATOM     13  H   UNL     1       1.847   6.212  21.386  0.00  0.00    +0.000 HD
ENDROOT
BRANCH   1  17
ATOM     14  C   UNL     1       6.571   5.055  16.130  0.00  0.00    +0.000 A 
ATOM     15  C   UNL     1       5.514   4.189  16.436  0.00  0.00    +0.000 A 
ATOM     16  C   UNL     1       4.484   4.578  17.290  0.00  0.00    +0.000 A 
ATOM     17  C   UNL     1       4.508   5.841  17.871  0.00  0.00    +0.000 A 
ATOM     18  C   UNL     1       5.621   6.663  17.661  0.00  0.00    +0.000 A 
ATOM     19  C   UNL     1       6.666   6.283  16.806  0.00  0.00    +0.000 A 
BRANCH  14  21
ATOM     20  C   UNL     1       7.004   4.638  13.853  0.00  0.00    +0.000 C 
ATOM     21  O   UNL     1       7.508   4.714  15.188  0.00  0.00    +0.000 OA
ENDBRANCH  14  21
BRANCH  19  22
ATOM     22  O   UNL     1       7.653   7.229  16.745  0.00  0.00    +0.000 OA
ATOM     23  C   UNL     1       7.881   8.060  17.870  0.00  0.00    +0.000 C 
ENDBRANCH  19  22
ENDBRANCH   1  17
TORSDOF 3
ENDMDL
MODEL 3
REMARK VINA RESULT:      -6.8      1.121      1.992
REMARK  Name = 
REMARK  5 active torsions:
REMARK  status: ('A' for Active; 'I' for Inactive)
REMARK    1  A    between atoms: C_1  and  O_2
REMARK    2  A    between atoms: O_2  and  C_3
REMARK    3  A    between atoms: C_6  and  N_7
REMARK    4  A    between atoms: C_19  and  O_20
REMARK    5  A    between atoms: O_20  and  C_21
REMARK                            x       y       z     vdW  Elec       q    Type
REMARK                         _______ _______ _______ _____ _____    ______ ____
ROOT
ATOM      1  N   UNL     1       2.057   7.789  18.940  0.00  0.00    +0.000 N 
ATOM      2  C   UNL     1       2.218   8.711  17.932  0.00  0.00    +0.000 C 
ATOM      3  O   UNL     1       2.851   8.551  16.889  0.00  0.00    +0.000 OA
ATOM      4  N   UNL     1       1.467   9.850  18.061  0.00  0.00    +0.000 N 
ATOM      5  C   UNL     1       0.753  10.258  19.185  0.00  0.00    +0.000 A 
ATOM      6  C   UNL     1      -0.436  10.941  18.983  0.00  0.00    +0.000 A 
ATOM      7  C   UNL     1      -1.188  11.311  20.100  0.00  0.00    +0.000 A 
ATOM      8  C   UNL     1      -0.685  11.067  21.372  0.00  0.00    +0.000 A 
ATOM      9 BR   UNL     1      -1.635  11.602  22.906  0.00  0.00    +0.000 Br
ATOM     10  C   UNL     1       0.527  10.407  21.484  0.00  0.00    +0.000 A 
ATOM     11  N   UNL     1       1.229   9.950  20.412  0.00  0.00    +0.000 NA
ATOM     12  H   UNL     1       1.580   8.149  19.760  0.00  0.00    +0.000 HD
ATOM     13  H   UNL     1       1.351  10.346  17.190  0.00  0.00    +0.000 HD
ENDROOT
BRANCH   1  17
ATOM     14  C   UNL     1       3.449   3.840  19.298  0.00  0.00    +0.000 A 
ATOM     15  C   UNL     1       3.618   4.532  18.092  0.00  0.00    +0.000 A 
ATOM     16  C   UNL     1       3.147   5.834  17.933  0.00  0.00    +0.000 A 
ATOM     17  C   UNL     1       2.477   6.459  18.979  0.00  0.00    +0.000 A 
ATOM     18  C   UNL     1       2.204   5.729  20.141  0.00  0.00    +0.000 A 
ATOM     19  C   UNL     1       2.669   4.417  20.314  0.00  0.00    +0.000 A 
BRANCH  14  21
ATOM     20  C   UNL     1       3.563   1.591  18.606  0.00  0.00    +0.000 C 
ATOM     21  O   UNL     1       4.030   2.613  19.490  0.00  0.00    +0.000 OA
ENDBRANCH  14  21
BRANCH  19  22
ATOM     22  O   UNL     1       2.289   3.889  21.517  0.00  0.00    +0.000 OA
ATOM     23  C   UNL     1       1.359   2.818  21.537  0.00  0.00    +0.000 C 
ENDBRANCH  19  22
ENDBRANCH   1  17
TORSDOF 3
ENDMDL
MODEL 4
REMARK VINA RESULT:      -6.8      2.243      3.180
REMARK  Name = 
REMARK  5 active torsions:
REMARK  status: ('A' for Active; 'I' for Inactive)
REMARK    1  A    between atoms: C_1  and  O_2
REMARK    2  A    between atoms: O_2  and  C_3
REMARK    3  A    between atoms: C_6  and  N_7
REMARK    4  A    between atoms: C_19  and  O_20
REMARK    5  A    between atoms: O_20  and  C_21
REMARK                            x       y       z     vdW  Elec       q    Type
REMARK                         _______ _______ _______ _____ _____    ______ ____
ROOT
ATOM      1  N   UNL     1       2.719   6.292  19.471  0.00  0.00    +0.000 N 
ATOM      2  C   UNL     1       1.984   5.837  20.540  0.00  0.00    +0.000 C 
ATOM      3  O   UNL     1       1.960   4.687  20.976  0.00  0.00    +0.000 OA
ATOM      4  N   UNL     1       1.344   6.812  21.261  0.00  0.00    +0.000 N 
ATOM      5  C   UNL     1       1.181   8.147  20.901  0.00  0.00    +0.000 A 
ATOM      6  C   UNL     1       1.193   9.096  21.912  0.00  0.00    +0.000 A 
ATOM      7  C   UNL     1       1.082  10.443  21.561  0.00  0.00    +0.000 A 
ATOM      8  C   UNL     1       0.874  10.786  20.231  0.00  0.00    +0.000 A 
ATOM      9 BR   UNL     1       0.659  12.584  19.719  0.00  0.00    +0.000 Br
ATOM     10  C   UNL     1       0.844   9.772  19.288  0.00  0.00    +0.000 A 
ATOM     11  N   UNL     1       1.048   8.463  19.594  0.00  0.00    +0.000 NA
ATOM     12  H   UNL     1       2.525   7.253  19.211  0.00  0.00    +0.000 HD
ATOM     13  H   UNL     1       1.092   6.512  22.191  0.00  0.00    +0.000 HD
ENDROOT
BRANCH   1  17
ATOM     14  C   UNL     1       5.712   4.444  17.170  0.00  0.00    +0.000 A 
ATOM     15  C   UNL     1       4.373   4.367  16.764  0.00  0.00    +0.000 A 
ATOM     16  C   UNL     1       3.355   4.949  17.517  0.00  0.00    +0.000 A 
ATOM     17  C   UNL     1       3.660   5.602  18.705  0.00  0.00    +0.000 A 
ATOM     18  C   UNL     1       4.980   5.579  19.172  0.00  0.00    +0.000 A 
ATOM     19  C   UNL     1       6.015   4.994  18.426  0.00  0.00    +0.000 A 
BRANCH  14  21
ATOM     20  C   UNL     1       6.976   4.804  15.215  0.00  0.00    +0.000 C 
ATOM     21  O   UNL     1       6.718   3.986  16.359  0.00  0.00    +0.000 OA
ENDBRANCH  14  21
BRANCH  19  22
ATOM     22  O   UNL     1       7.222   5.079  19.064  0.00  0.00    +0.000 OA
ATOM     23  C   UNL     1       7.996   6.258  18.921  0.00  0.00    +0.000 C 
ENDBRANCH  19  22
ENDBRANCH   1  17
TORSDOF 3
ENDMDL
MODEL 5
REMARK VINA RESULT:      -6.7      1.037      1.043
REMARK  Name = 
REMARK  5 active torsions:
REMARK  status: ('A' for Active; 'I' for Inactive)
REMARK    1  A    between atoms: C_1  and  O_2
REMARK    2  A    between atoms: O_2  and  C_3
REMARK    3  A    between atoms: C_6  and  N_7
REMARK    4  A    between atoms: C_19  and  O_20
REMARK    5  A    between atoms: O_20  and  C_21
REMARK                            x       y       z     vdW  Elec       q    Type
REMARK                         _______ _______ _______ _____ _____    ______ ____
ROOT
ATOM      1  N   UNL     1       2.197   7.438  18.662  0.00  0.00    +0.000 N 
ATOM      2  C   UNL     1       2.418   8.475  17.786  0.00  0.00    +0.000 C 
ATOM      3  O   UNL     1       3.048   8.419  16.731  0.00  0.00    +0.000 OA
ATOM      4  N   UNL     1       1.733   9.628  18.067  0.00  0.00    +0.000 N 
ATOM      5  C   UNL     1       1.036   9.924  19.236  0.00  0.00    +0.000 A 
ATOM      6  C   UNL     1      -0.111  10.696  19.128  0.00  0.00    +0.000 A 
ATOM      7  C   UNL     1      -0.848  10.957  20.285  0.00  0.00    +0.000 A 
ATOM      8  C   UNL     1      -0.368  10.516  21.512  0.00  0.00    +0.000 A 
ATOM      9 BR   UNL     1      -1.297  10.897  23.104  0.00  0.00    +0.000 Br
ATOM     10  C   UNL     1       0.803   9.778  21.533  0.00  0.00    +0.000 A 
ATOM     11  N   UNL     1       1.484   9.428  20.410  0.00  0.00    +0.000 NA
ATOM     12  H   UNL     1       1.736   7.712  19.523  0.00  0.00    +0.000 HD
ATOM     13  H   UNL     1       1.652  10.242  17.270  0.00  0.00    +0.000 HD
ENDROOT
BRANCH   1  17
ATOM     14  C   UNL     1       3.461   3.468  18.116  0.00  0.00    +0.000 A 
ATOM     15  C   UNL     1       2.154   3.836  17.773  0.00  0.00    +0.000 A 
ATOM     16  C   UNL     1       1.697   5.139  17.963  0.00  0.00    +0.000 A 
ATOM     17  C   UNL     1       2.540   6.093  18.523  0.00  0.00    +0.000 A 
ATOM     18  C   UNL     1       3.804   5.698  18.975  0.00  0.00    +0.000 A 
ATOM     19  C   UNL     1       4.277   4.390  18.792  0.00  0.00    +0.000 A 
BRANCH  14  21
ATOM     20  C   UNL     1       3.660   1.216  18.777  0.00  0.00    +0.000 C 
ATOM     21  O   UNL     1       3.943   2.223  17.803  0.00  0.00    +0.000 OA
ENDBRANCH  14  21
BRANCH  19  22
ATOM     22  O   UNL     1       5.532   4.218  19.308  0.00  0.00    +0.000 OA
ATOM     23  C   UNL     1       6.448   5.298  19.266  0.00  0.00    +0.000 C 
ENDBRANCH  19  22
ENDBRANCH   1  17
TORSDOF 3
ENDMDL
MODEL 6
REMARK VINA RESULT:      -6.7      3.990      7.644
REMARK  Name = 
REMARK  5 active torsions:
REMARK  status: ('A' for Active; 'I' for Inactive)
REMARK    1  A    between atoms: C_1  and  O_2
REMARK    2  A    between atoms: O_2  and  C_3
REMARK    3  A    between atoms: C_6  and  N_7
REMARK    4  A    between atoms: C_19  and  O_20
REMARK    5  A    between atoms: O_20  and  C_21
REMARK                            x       y       z     vdW  Elec       q    Type
REMARK                         _______ _______ _______ _____ _____    ______ ____
ROOT
ATOM      1  N   UNL     1       2.468   7.079  19.236  0.00  0.00    +0.000 N 
ATOM      2  C   UNL     1       2.236   5.891  19.889  0.00  0.00    +0.000 C 
ATOM      3  O   UNL     1       1.462   5.711  20.827  0.00  0.00    +0.000 OA
ATOM      4  N   UNL     1       2.824   4.792  19.320  0.00  0.00    +0.000 N 
ATOM      5  C   UNL     1       3.788   4.784  18.314  0.00  0.00    +0.000 A 
ATOM      6  C   UNL     1       3.757   3.746  17.396  0.00  0.00    +0.000 A 
ATOM      7  C   UNL     1       4.684   3.754  16.352  0.00  0.00    +0.000 A 
ATOM      8  C   UNL     1       5.659   4.743  16.314  0.00  0.00    +0.000 A 
ATOM      9 BR   UNL     1       6.966   4.760  14.960  0.00  0.00    +0.000 Br
ATOM     10  C   UNL     1       5.637   5.726  17.289  0.00  0.00    +0.000 A 
ATOM     11  N   UNL     1       4.685   5.794  18.257  0.00  0.00    +0.000 NA
ATOM     12  H   UNL     1       3.215   7.038  18.552  0.00  0.00    +0.000 HD
ATOM     13  H   UNL     1       2.396   3.924  19.605  0.00  0.00    +0.000 HD
ENDROOT
BRANCH   1  17
ATOM     14  C   UNL     1       0.360  10.649  19.924  0.00  0.00    +0.000 A 
ATOM     15  C   UNL     1       0.716  10.290  18.617  0.00  0.00    +0.000 A 
ATOM     16  C   UNL     1       1.435   9.125  18.358  0.00  0.00    +0.000 A 
ATOM     17  C   UNL     1       1.830   8.307  19.411  0.00  0.00    +0.000 A 
ATOM     18  C   UNL     1       1.578   8.723  20.723  0.00  0.00    +0.000 A 
ATOM     19  C   UNL     1       0.858   9.896  20.999  0.00  0.00    +0.000 A 
BRANCH  14  21
ATOM     20  C   UNL     1      -1.732  11.649  19.513  0.00  0.00    +0.000 C 
ATOM     21  O   UNL     1      -0.459  11.724  20.157  0.00  0.00    +0.000 OA
ENDBRANCH  14  21
BRANCH  19  22
ATOM     22  O   UNL     1       0.728  10.118  22.343  0.00  0.00    +0.000 OA
ATOM     23  C   UNL     1      -0.421   9.630  23.014  0.00  0.00    +0.000 C 
ENDBRANCH  19  22
ENDBRANCH   1  17
TORSDOF 3
ENDMDL
MODEL 7
REMARK VINA RESULT:      -6.6      1.214      2.192
REMARK  Name = 
REMARK  5 active torsions:
REMARK  status: ('A' for Active; 'I' for Inactive)
REMARK    1  A    between atoms: C_1  and  O_2
REMARK    2  A    between atoms: O_2  and  C_3
REMARK    3  A    between atoms: C_6  and  N_7
REMARK    4  A    between atoms: C_19  and  O_20
REMARK    5  A    between atoms: O_20  and  C_21
REMARK                            x       y       z     vdW  Elec       q    Type
REMARK                         _______ _______ _______ _____ _____    ______ ____
ROOT
ATOM      1  N   UNL     1       2.410   7.434  18.823  0.00  0.00    +0.000 N 
ATOM      2  C   UNL     1       2.449   8.365  17.812  0.00  0.00    +0.000 C 
ATOM      3  O   UNL     1       3.017   8.244  16.727  0.00  0.00    +0.000 OA
ATOM      4  N   UNL     1       1.644   9.458  17.998  0.00  0.00    +0.000 N 
ATOM      5  C   UNL     1       0.985   9.823  19.170  0.00  0.00    +0.000 A 
ATOM      6  C   UNL     1      -0.253  10.436  19.053  0.00  0.00    +0.000 A 
ATOM      7  C   UNL     1      -0.946  10.760  20.221  0.00  0.00    +0.000 A 
ATOM      8  C   UNL     1      -0.344  10.543  21.454  0.00  0.00    +0.000 A 
ATOM      9 BR   UNL     1      -1.217  11.020  23.052  0.00  0.00    +0.000 Br
ATOM     10  C   UNL     1       0.909   9.955  21.479  0.00  0.00    +0.000 A 
ATOM     11  N   UNL     1       1.561   9.541  20.360  0.00  0.00    +0.000 NA
ATOM     12  H   UNL     1       1.970   7.764  19.676  0.00  0.00    +0.000 HD
ATOM     13  H   UNL     1       1.440   9.948  17.140  0.00  0.00    +0.000 HD
ENDROOT
BRANCH   1  17
ATOM     14  C   UNL     1       3.686   3.432  18.978  0.00  0.00    +0.000 A 
ATOM     15  C   UNL     1       4.577   4.461  19.307  0.00  0.00    +0.000 A 
ATOM     16  C   UNL     1       4.192   5.799  19.244  0.00  0.00    +0.000 A 
ATOM     17  C   UNL     1       2.908   6.130  18.826  0.00  0.00    +0.000 A 
ATOM     18  C   UNL     1       2.055   5.112  18.385  0.00  0.00    +0.000 A 
ATOM     19  C   UNL     1       2.431   3.761  18.441  0.00  0.00    +0.000 A 
BRANCH  14  21
ATOM     20  C   UNL     1       4.643   1.845  20.432  0.00  0.00    +0.000 C 
ATOM     21  O   UNL     1       4.029   2.119  19.170  0.00  0.00    +0.000 OA
ENDBRANCH  14  21
BRANCH  19  22
ATOM     22  O   UNL     1       1.453   2.934  17.959  0.00  0.00    +0.000 OA
ATOM     23  C   UNL     1       0.564   2.313  18.872  0.00  0.00    +0.000 C 
ENDBRANCH  19  22
ENDBRANCH   1  17
TORSDOF 3
ENDMDL
MODEL 8
REMARK VINA RESULT:      -6.6      3.766      7.478
REMARK  Name = 
REMARK  5 active torsions:
REMARK  status: ('A' for Active; 'I' for Inactive)
REMARK    1  A    between atoms: C_1  and  O_2
REMARK    2  A    between atoms: O_2  and  C_3
REMARK    3  A    between atoms: C_6  and  N_7
REMARK    4  A    between atoms: C_19  and  O_20
REMARK    5  A    between atoms: O_20  and  C_21
REMARK                            x       y       z     vdW  Elec       q    Type
REMARK                         _______ _______ _______ _____ _____    ______ ____
ROOT
ATOM      1  N   UNL     1       1.811   8.148  19.212  0.00  0.00    +0.000 N 
ATOM      2  C   UNL     1       2.440   8.591  18.072  0.00  0.00    +0.000 C 
ATOM      3  O   UNL     1       2.466   9.747  17.653  0.00  0.00    +0.000 OA
ATOM      4  N   UNL     1       3.229   7.662  17.446  0.00  0.00    +0.000 N 
ATOM      5  C   UNL     1       3.280   6.295  17.707  0.00  0.00    +0.000 A 
ATOM      6  C   UNL     1       4.503   5.655  17.570  0.00  0.00    +0.000 A 
ATOM      7  C   UNL     1       4.579   4.295  17.878  0.00  0.00    +0.000 A 
ATOM      8  C   UNL     1       3.422   3.608  18.224  0.00  0.00    +0.000 A 
ATOM      9 BR   UNL     1       3.467   1.763  18.589  0.00  0.00    +0.000 Br
ATOM     10  C   UNL     1       2.236   4.318  18.307  0.00  0.00    +0.000 A 
ATOM     11  N   UNL     1       2.156   5.661  18.107  0.00  0.00    +0.000 NA
ATOM     12  H   UNL     1       1.827   7.140  19.331  0.00  0.00    +0.000 HD
ATOM     13  H   UNL     1       3.911   8.077  16.829  0.00  0.00    +0.000 HD
ENDROOT
BRANCH   1  17
ATOM     14  C   UNL     1      -0.031  10.620  22.068  0.00  0.00    +0.000 A 
ATOM     15  C   UNL     1       0.531   9.399  22.462  0.00  0.00    +0.000 A 
ATOM     16  C   UNL     1       1.129   8.546  21.536  0.00  0.00    +0.000 A 
ATOM     17  C   UNL     1       1.153   8.894  20.190  0.00  0.00    +0.000 A 
ATOM     18  C   UNL     1       0.489  10.055  19.778  0.00  0.00    +0.000 A 
ATOM     19  C   UNL     1      -0.119  10.922  20.699  0.00  0.00    +0.000 A 
BRANCH  14  21
ATOM     20  C   UNL     1      -1.910  11.461  23.213  0.00  0.00    +0.000 C 
ATOM     21  O   UNL     1      -0.497  11.511  23.000  0.00  0.00    +0.000 OA
ENDBRANCH  14  21
BRANCH  19  22
ATOM     22  O   UNL     1      -0.712  11.992  20.087  0.00  0.00    +0.000 OA
ATOM     23  C   UNL     1      -1.942  11.804  19.408  0.00  0.00    +0.000 C 
ENDBRANCH  19  22
ENDBRANCH   1  17
TORSDOF 3
ENDMDL
MODEL 9
REMARK VINA RESULT:      -6.6      2.559      3.301
REMARK  Name = 
REMARK  5 active torsions:
REMARK  status: ('A' for Active; 'I' for Inactive)
REMARK    1  A    between atoms: C_1  and  O_2
REMARK    2  A    between atoms: O_2  and  C_3
REMARK    3  A    between atoms: C_6  and  N_7
REMARK    4  A    between atoms: C_19  and  O_20
REMARK    5  A    between atoms: O_20  and  C_21
REMARK                            x       y       z     vdW  Elec       q    Type
REMARK                         _______ _______ _______ _____ _____    ______ ____
ROOT
ATOM      1  N   UNL     1       2.722   6.613  19.113  0.00  0.00    +0.000 N 
ATOM      2  C   UNL     1       2.081   6.204  20.258  0.00  0.00    +0.000 C 
ATOM      3  O   UNL     1       2.130   5.083  20.764  0.00  0.00    +0.000 OA
ATOM      4  N   UNL     1       1.457   7.200  20.963  0.00  0.00    +0.000 N 
ATOM      5  C   UNL     1       1.220   8.504  20.536  0.00  0.00    +0.000 A 
ATOM      6  C   UNL     1       1.267   9.515  21.484  0.00  0.00    +0.000 A 
ATOM      7  C   UNL     1       1.082  10.832  21.061  0.00  0.00    +0.000 A 
ATOM      8  C   UNL     1       0.770  11.084  19.731  0.00  0.00    +0.000 A 
ATOM      9 BR   UNL     1       0.453  12.838  19.128  0.00  0.00    +0.000 Br
ATOM     10  C   UNL     1       0.711  10.012  18.856  0.00  0.00    +0.000 A 
ATOM     11  N   UNL     1       0.985   8.732  19.225  0.00  0.00    +0.000 NA
ATOM     12  H   UNL     1       2.476   7.550  18.811  0.00  0.00    +0.000 HD
ATOM     13  H   UNL     1       1.281   6.951  21.925  0.00  0.00    +0.000 HD
ENDROOT
BRANCH   1  17
ATOM     14  C   UNL     1       5.427   4.680  16.543  0.00  0.00    +0.000 A 
ATOM     15  C   UNL     1       4.424   3.941  17.182  0.00  0.00    +0.000 A 
ATOM     16  C   UNL     1       3.526   4.548  18.058  0.00  0.00    +0.000 A 
ATOM     17  C   UNL     1       3.633   5.908  18.326  0.00  0.00    +0.000 A 
ATOM     18  C   UNL     1       4.705   6.624  17.781  0.00  0.00    +0.000 A 
ATOM     19  C   UNL     1       5.618   6.025  16.899  0.00  0.00    +0.000 A 
BRANCH  14  21
ATOM     20  C   UNL     1       5.740   4.260  14.246  0.00  0.00    +0.000 C 
ATOM     21  O   UNL     1       6.220   4.104  15.584  0.00  0.00    +0.000 OA
ENDBRANCH  14  21
BRANCH  19  22
ATOM     22  O   UNL     1       6.587   6.899  16.488  0.00  0.00    +0.000 OA
ATOM     23  C   UNL     1       7.461   7.463  17.450  0.00  0.00    +0.000 C 
ENDBRANCH  19  22
ENDBRANCH   1  17
TORSDOF 3
ENDMDL
