MODEL 1
REMARK VINA RESULT:      -8.5      0.000      0.000
REMARK  Name = 
REMARK  11 active torsions:
REMARK  status: ('A' for Active; 'I' for Inactive)
REMARK    1  A    between atoms: C_1  and  C_2
REMARK    2  A    between atoms: C_2  and  C_3
REMARK    3  A    between atoms: C_2  and  C_4
REMARK    4  A    between atoms: C_4  and  C_6
REMARK    5  A    between atoms: N_11  and  C_12
REMARK    6  A    between atoms: C_15  and  C_16
REMARK    7  A    between atoms: C_23  and  C_24
REMARK    8  A    between atoms: C_29  and  O_30
REMARK    9  A    between atoms: O_30  and  C_31
REMARK   10  A    between atoms: C_31  and  C_32
REMARK   11  A    between atoms: N_34  and  O_35
REMARK                            x       y       z     vdW  Elec       q    Type
REMARK                         _______ _______ _______ _____ _____    ______ ____
ROOT
ATOM      1  C   UNL     1       3.922   2.979  18.043  0.00  0.00    +0.000 C 
ATOM      2  C   UNL     1       2.550   2.916  17.471  0.00  0.00    +0.000 C 
ATOM      3  O   UNL     1       2.023   1.933  16.983  0.00  0.00    +0.000 OA
ATOM      4  C   UNL     1       1.899   4.291  17.518  0.00  0.00    +0.000 C 
ATOM      5  O   UNL     1       0.788   4.517  17.084  0.00  0.00    +0.000 OA
ATOM      6  N   UNL     1       2.798   5.125  18.163  0.00  0.00    +0.000 N 
ATOM      7  C   UNL     1       3.952   4.391  18.650  0.00  0.00    +0.000 C 
ENDROOT
BRANCH   6   8
ATOM      8  C   UNL     1       2.405   6.409  18.623  0.00  0.00    +0.000 A 
ATOM      9  C   UNL     1       2.060   6.678  19.953  0.00  0.00    +0.000 A 
ATOM     10  C   UNL     1       1.642   7.970  20.338  0.00  0.00    +0.000 A 
ATOM     11  C   UNL     1       1.611   9.028  19.415  0.00  0.00    +0.000 A 
ATOM     12  C   UNL     1       1.986   8.752  18.094  0.00  0.00    +0.000 A 
ATOM     13  C   UNL     1       2.343   7.454  17.700  0.00  0.00    +0.000 A 
BRANCH  11  14
ATOM     14  C   UNL     1       1.205  10.381  19.818  0.00  0.00    +0.000 A 
ATOM     15  C   UNL     1       1.375  11.606  19.086  0.00  0.00    +0.000 A 
ATOM     16  C   UNL     1       0.863  12.704  19.745  0.00  0.00    +0.000 A 
ATOM     17  S   UNL     1       0.181  12.284  21.252  0.00  0.00    +0.000 S 
ATOM     18  C   UNL     1       0.577  10.634  21.027  0.00  0.00    +0.000 A 
ENDBRANCH  11  14
ENDBRANCH   6   8
BRANCH   7  19
ATOM     19  C   UNL     1       5.283   5.095  18.386  0.00  0.00    +0.000 A 
ATOM     20  C   UNL     1       6.134   5.217  19.510  0.00  0.00    +0.000 A 
ATOM     21  C   UNL     1       7.358   5.875  19.441  0.00  0.00    +0.000 A 
ATOM     22  C   UNL     1       7.743   6.473  18.255  0.00  0.00    +0.000 A 
ATOM     23  C   UNL     1       6.928   6.361  17.131  0.00  0.00    +0.000 A 
ATOM     24  C   UNL     1       5.730   5.614  17.147  0.00  0.00    +0.000 A 
BRANCH  24  25
ATOM     25  O   UNL     1       5.025   5.343  15.977  0.00  0.00    +0.000 OA
BRANCH  25  26
ATOM     26  C   UNL     1       5.492   4.182  15.283  0.00  0.00    +0.000 C 
BRANCH  26  27
ATOM     27  C   UNL     1       6.373   4.266  14.021  0.00  0.00    +0.000 C 
ATOM     28  N   UNL     1       7.269   5.214  13.916  0.00  0.00    +0.000 NA
ATOM     29  N   UNL     1       6.238   3.354  13.003  0.00  0.00    +0.000 N 
ATOM     30  H   UNL     1       7.255   5.828  14.740  0.00  0.00    +0.000 HD
ATOM     31  H   UNL     1       5.308   2.982  12.820  0.00  0.00    +0.000 HD
BRANCH  29  32
ATOM     32  O   UNL     1       6.931   3.743  11.842  0.00  0.00    +0.000 OA
ATOM     33  H   UNL     1       6.579   3.118  11.163  0.00  0.00    +0.000 HD
ENDBRANCH  29  32
ENDBRANCH  26  27
ENDBRANCH  25  26
ENDBRANCH  24  25
ENDBRANCH   7  19
BRANCH   1  34
ATOM     34  C   UNL     1       4.174   1.941  19.112  0.00  0.00    +0.000 C 
ATOM     35  O   UNL     1       4.333   0.754  18.817  0.00  0.00    +0.000 OA
BRANCH  34  37
ATOM     36  C   UNL     1       2.799   2.557  21.136  0.00  0.00    +0.000 C 
ATOM     37  C   UNL     1       4.209   2.421  20.564  0.00  0.00    +0.000 C 
ATOM     38  C   UNL     1       5.047   1.475  21.414  0.00  0.00    +0.000 C 
ENDBRANCH  34  37
ENDBRANCH   1  34
TORSDOF 9
ENDMDL
MODEL 2
REMARK VINA RESULT:      -8.4      0.348      1.074
REMARK  Name = 
REMARK  11 active torsions:
REMARK  status: ('A' for Active; 'I' for Inactive)
REMARK    1  A    between atoms: C_1  and  C_2
REMARK    2  A    between atoms: C_2  and  C_3
REMARK    3  A    between atoms: C_2  and  C_4
REMARK    4  A    between atoms: C_4  and  C_6
REMARK    5  A    between atoms: N_11  and  C_12
REMARK    6  A    between atoms: C_15  and  C_16
REMARK    7  A    between atoms: C_23  and  C_24
REMARK    8  A    between atoms: C_29  and  O_30
REMARK    9  A    between atoms: O_30  and  C_31
REMARK   10  A    between atoms: C_31  and  C_32
REMARK   11  A    between atoms: N_34  and  O_35
REMARK                            x       y       z     vdW  Elec       q    Type
REMARK                         _______ _______ _______ _____ _____    ______ ____
ROOT
ATOM      1  C   UNL     1       3.958   2.987  18.073  0.00  0.00    +0.000 C 
ATOM      2  C   UNL     1       2.596   2.899  17.480  0.00  0.00    +0.000 C 
ATOM      3  O   UNL     1       2.089   1.902  16.997  0.00  0.00    +0.000 OA
ATOM      4  C   UNL     1       1.927   4.265  17.499  0.00  0.00    +0.000 C 
ATOM      5  O   UNL     1       0.820   4.471  17.045  0.00  0.00    +0.000 OA
ATOM      6  N   UNL     1       2.805   5.119  18.148  0.00  0.00    +0.000 N 
ATOM      7  C   UNL     1       3.960   4.406  18.662  0.00  0.00    +0.000 C 
ENDROOT
BRANCH   6   8
ATOM      8  C   UNL     1       2.388   6.404  18.585  0.00  0.00    +0.000 A 
ATOM      9  C   UNL     1       2.293   7.513  17.735  0.00  0.00    +0.000 A 
ATOM     10  C   UNL     1       1.906   8.772  18.241  0.00  0.00    +0.000 A 
ATOM     11  C   UNL     1       1.559   8.936  19.592  0.00  0.00    +0.000 A 
ATOM     12  C   UNL     1       1.632   7.813  20.425  0.00  0.00    +0.000 A 
ATOM     13  C   UNL     1       2.073   6.575  19.933  0.00  0.00    +0.000 A 
BRANCH  11  14
ATOM     14  C   UNL     1       1.128  10.239  20.117  0.00  0.00    +0.000 A 
ATOM     15  C   UNL     1       0.456  10.510  21.358  0.00  0.00    +0.000 A 
ATOM     16  C   UNL     1       0.208  11.852  21.556  0.00  0.00    +0.000 A 
ATOM     17  S   UNL     1       0.769  12.804  20.254  0.00  0.00    +0.000 S 
ATOM     18  C   UNL     1       1.336  11.420  19.422  0.00  0.00    +0.000 A 
ENDBRANCH  11  14
ENDBRANCH   6   8
BRANCH   7  19
ATOM     19  C   UNL     1       5.286   5.124  18.410  0.00  0.00    +0.000 A 
ATOM     20  C   UNL     1       6.145   5.216  19.531  0.00  0.00    +0.000 A 
ATOM     21  C   UNL     1       7.365   5.881  19.473  0.00  0.00    +0.000 A 
ATOM     22  C   UNL     1       7.739   6.517  18.303  0.00  0.00    +0.000 A 
ATOM     23  C   UNL     1       6.916   6.437  17.183  0.00  0.00    +0.000 A 
ATOM     24  C   UNL     1       5.722   5.683  17.185  0.00  0.00    +0.000 A 
BRANCH  24  25
ATOM     25  O   UNL     1       5.008   5.446  16.012  0.00  0.00    +0.000 OA
BRANCH  25  26
ATOM     26  C   UNL     1       5.433   4.271  15.312  0.00  0.00    +0.000 C 
BRANCH  26  27
ATOM     27  C   UNL     1       6.348   4.327  14.074  0.00  0.00    +0.000 C 
ATOM     28  N   UNL     1       7.241   5.278  13.968  0.00  0.00    +0.000 NA
ATOM     29  N   UNL     1       6.247   3.386  13.078  0.00  0.00    +0.000 N 
ATOM     30  H   UNL     1       7.200   5.914  14.774  0.00  0.00    +0.000 HD
ATOM     31  H   UNL     1       5.325   3.004  12.879  0.00  0.00    +0.000 HD
BRANCH  29  32
ATOM     32  O   UNL     1       6.970   3.749  11.927  0.00  0.00    +0.000 OA
ATOM     33  H   UNL     1       7.896   3.810  12.266  0.00  0.00    +0.000 HD
ENDBRANCH  29  32
ENDBRANCH  26  27
ENDBRANCH  25  26
ENDBRANCH  24  25
ENDBRANCH   7  19
BRANCH   1  34
ATOM     34  C   UNL     1       4.207   1.965  19.159  0.00  0.00    +0.000 C 
ATOM     35  O   UNL     1       4.387   0.778  18.882  0.00  0.00    +0.000 OA
BRANCH  34  37
ATOM     36  C   UNL     1       2.788   2.651  21.130  0.00  0.00    +0.000 C 
ATOM     37  C   UNL     1       4.210   2.464  20.605  0.00  0.00    +0.000 C 
ATOM     38  C   UNL     1       4.990   1.504  21.494  0.00  0.00    +0.000 C 
ENDBRANCH  34  37
ENDBRANCH   1  34
TORSDOF 9
ENDMDL
MODEL 3
REMARK VINA RESULT:      -7.8      0.797      1.274
REMARK  Name = 
REMARK  11 active torsions:
REMARK  status: ('A' for Active; 'I' for Inactive)
REMARK    1  A    between atoms: C_1  and  C_2
REMARK    2  A    between atoms: C_2  and  C_3
REMARK    3  A    between atoms: C_2  and  C_4
REMARK    4  A    between atoms: C_4  and  C_6
REMARK    5  A    between atoms: N_11  and  C_12
REMARK    6  A    between atoms: C_15  and  C_16
REMARK    7  A    between atoms: C_23  and  C_24
REMARK    8  A    between atoms: C_29  and  O_30
REMARK    9  A    between atoms: O_30  and  C_31
REMARK   10  A    between atoms: C_31  and  C_32
REMARK   11  A    between atoms: N_34  and  O_35
REMARK                            x       y       z     vdW  Elec       q    Type
REMARK                         _______ _______ _______ _____ _____    ______ ____
ROOT
ATOM      1  C   UNL     1       3.836   3.261  18.579  0.00  0.00    +0.000 C 
ATOM      2  C   UNL     1       2.497   3.139  17.942  0.00  0.00    +0.000 C 
ATOM      3  O   UNL     1       1.938   2.098  17.647  0.00  0.00    +0.000 OA
ATOM      4  C   UNL     1       1.931   4.519  17.645  0.00  0.00    +0.000 C 
ATOM      5  O   UNL     1       0.861   4.697  17.098  0.00  0.00    +0.000 OA
ATOM      6  N   UNL     1       2.842   5.432  18.152  0.00  0.00    +0.000 N 
ATOM      7  C   UNL     1       3.919   4.769  18.864  0.00  0.00    +0.000 C 
ENDROOT
BRANCH   6   8
ATOM      8  C   UNL     1       2.504   6.803  18.293  0.00  0.00    +0.000 A 
ATOM      9  C   UNL     1       2.660   7.744  17.268  0.00  0.00    +0.000 A 
ATOM     10  C   UNL     1       2.339   9.101  17.486  0.00  0.00    +0.000 A 
ATOM     11  C   UNL     1       1.809   9.534  18.712  0.00  0.00    +0.000 A 
ATOM     12  C   UNL     1       1.632   8.578  19.719  0.00  0.00    +0.000 A 
ATOM     13  C   UNL     1       2.008   7.240  19.521  0.00  0.00    +0.000 A 
BRANCH  11  14
ATOM     14  C   UNL     1       1.446  10.940  18.933  0.00  0.00    +0.000 A 
ATOM     15  C   UNL     1       2.081  12.110  18.390  0.00  0.00    +0.000 A 
ATOM     16  C   UNL     1       1.477  13.284  18.786  0.00  0.00    +0.000 A 
ATOM     17  S   UNL     1       0.148  13.003  19.819  0.00  0.00    +0.000 S 
ATOM     18  C   UNL     1       0.385  11.310  19.744  0.00  0.00    +0.000 A 
ENDBRANCH  11  14
ENDBRANCH   6   8
BRANCH   7  19
ATOM     19  C   UNL     1       5.304   5.332  18.544  0.00  0.00    +0.000 A 
ATOM     20  C   UNL     1       6.189   5.420  19.644  0.00  0.00    +0.000 A 
ATOM     21  C   UNL     1       7.467   5.955  19.522  0.00  0.00    +0.000 A 
ATOM     22  C   UNL     1       7.879   6.465  18.304  0.00  0.00    +0.000 A 
ATOM     23  C   UNL     1       7.031   6.384  17.203  0.00  0.00    +0.000 A 
ATOM     24  C   UNL     1       5.769   5.754  17.275  0.00  0.00    +0.000 A 
BRANCH  24  25
ATOM     25  O   UNL     1       5.014   5.503  16.131  0.00  0.00    +0.000 OA
BRANCH  25  26
ATOM     26  C   UNL     1       5.390   4.302  15.449  0.00  0.00    +0.000 C 
BRANCH  26  27
ATOM     27  C   UNL     1       6.270   4.306  14.185  0.00  0.00    +0.000 C 
ATOM     28  N   UNL     1       7.172   5.240  14.023  0.00  0.00    +0.000 NA
ATOM     29  N   UNL     1       6.129   3.335  13.223  0.00  0.00    +0.000 N 
ATOM     30  H   UNL     1       7.163   5.902  14.809  0.00  0.00    +0.000 HD
ATOM     31  H   UNL     1       5.196   2.960  13.063  0.00  0.00    +0.000 HD
BRANCH  29  32
ATOM     32  O   UNL     1       6.823   3.651  12.041  0.00  0.00    +0.000 OA
ATOM     33  H   UNL     1       7.232   2.786  11.795  0.00  0.00    +0.000 HD
ENDBRANCH  29  32
ENDBRANCH  26  27
ENDBRANCH  25  26
ENDBRANCH  24  25
ENDBRANCH   7  19
BRANCH   1  34
ATOM     34  C   UNL     1       3.964   2.474  19.863  0.00  0.00    +0.000 C 
ATOM     35  O   UNL     1       4.989   1.838  20.116  0.00  0.00    +0.000 OA
BRANCH  34  37
ATOM     36  C   UNL     1       2.935   1.454  21.929  0.00  0.00    +0.000 C 
ATOM     37  C   UNL     1       2.770   2.490  20.819  0.00  0.00    +0.000 C 
ATOM     38  C   UNL     1       2.581   3.883  21.405  0.00  0.00    +0.000 C 
ENDBRANCH  34  37
ENDBRANCH   1  34
TORSDOF 9
ENDMDL
MODEL 4
REMARK VINA RESULT:      -7.7      5.980     10.886
REMARK  Name = 
REMARK  11 active torsions:
REMARK  status: ('A' for Active; 'I' for Inactive)
REMARK    1  A    between atoms: C_1  and  C_2
REMARK    2  A    between atoms: C_2  and  C_3
REMARK    3  A    between atoms: C_2  and  C_4
REMARK    4  A    between atoms: C_4  and  C_6
REMARK    5  A    between atoms: N_11  and  C_12
REMARK    6  A    between atoms: C_15  and  C_16
REMARK    7  A    between atoms: C_23  and  C_24
REMARK    8  A    between atoms: C_29  and  O_30
REMARK    9  A    between atoms: O_30  and  C_31
REMARK   10  A    between atoms: C_31  and  C_32
REMARK   11  A    between atoms: N_34  and  O_35
REMARK                            x       y       z     vdW  Elec       q    Type
REMARK                         _______ _______ _______ _____ _____    ______ ____
ROOT
ATOM      1  C   UNL     1      -1.505  13.387  19.810  0.00  0.00    +0.000 C 
ATOM      2  C   UNL     1      -0.110  13.845  20.057  0.00  0.00    +0.000 C 
ATOM      3  O   UNL     1       0.236  14.988  20.294  0.00  0.00    +0.000 OA
ATOM      4  C   UNL     1       0.857  12.680  19.908  0.00  0.00    +0.000 C 
ATOM      5  O   UNL     1       2.060  12.793  20.029  0.00  0.00    +0.000 OA
ATOM      6  N   UNL     1       0.081  11.557  19.667  0.00  0.00    +0.000 N 
ATOM      7  C   UNL     1      -1.336  11.861  19.754  0.00  0.00    +0.000 C 
ENDROOT
BRANCH   6   8
ATOM      8  C   UNL     1       0.634  10.253  19.750  0.00  0.00    +0.000 A 
ATOM      9  C   UNL     1       0.516   9.437  20.883  0.00  0.00    +0.000 A 
ATOM     10  C   UNL     1       1.121   8.163  20.914  0.00  0.00    +0.000 A 
ATOM     11  C   UNL     1       1.810   7.659  19.799  0.00  0.00    +0.000 A 
ATOM     12  C   UNL     1       1.898   8.473  18.664  0.00  0.00    +0.000 A 
ATOM     13  C   UNL     1       1.347   9.764  18.655  0.00  0.00    +0.000 A 
BRANCH  11  14
ATOM     14  C   UNL     1       2.417   6.321  19.817  0.00  0.00    +0.000 A 
ATOM     15  C   UNL     1       1.959   5.155  20.521  0.00  0.00    +0.000 A 
ATOM     16  C   UNL     1       2.754   4.049  20.310  0.00  0.00    +0.000 A 
ATOM     17  S   UNL     1       4.065   4.394  19.272  0.00  0.00    +0.000 S 
ATOM     18  C   UNL     1       3.573   6.025  19.113  0.00  0.00    +0.000 A 
ENDBRANCH  11  14
ENDBRANCH   6   8
BRANCH   7  19
ATOM     19  C   UNL     1      -2.166  11.238  18.632  0.00  0.00    +0.000 A 
ATOM     20  C   UNL     1      -1.434  10.481  17.687  0.00  0.00    +0.000 A 
ATOM     21  C   UNL     1      -2.041   9.892  16.583  0.00  0.00    +0.000 A 
ATOM     22  C   UNL     1      -3.393  10.086  16.365  0.00  0.00    +0.000 A 
ATOM     23  C   UNL     1      -4.139  10.821  17.282  0.00  0.00    +0.000 A 
ATOM     24  C   UNL     1      -3.569  11.343  18.464  0.00  0.00    +0.000 A 
BRANCH  24  25
ATOM     25  O   UNL     1      -4.356  11.903  19.467  0.00  0.00    +0.000 OA
BRANCH  25  26
ATOM     26  C   UNL     1      -5.754  11.915  19.158  0.00  0.00    +0.000 C 
BRANCH  26  27
ATOM     27  C   UNL     1      -6.742  10.885  19.740  0.00  0.00    +0.000 C 
ATOM     28  N   UNL     1      -7.155  11.008  20.975  0.00  0.00    +0.000 NA
ATOM     29  N   UNL     1      -7.203   9.840  18.977  0.00  0.00    +0.000 N 
ATOM     30  H   UNL     1      -6.725  11.822  21.430  0.00  0.00    +0.000 HD
ATOM     31  H   UNL     1      -6.571   9.444  18.285  0.00  0.00    +0.000 HD
BRANCH  29  32
ATOM     32  O   UNL     1      -7.876   8.874  19.748  0.00  0.00    +0.000 OA
ATOM     33  H   UNL     1      -8.429   9.428  20.350  0.00  0.00    +0.000 HD
ENDBRANCH  29  32
ENDBRANCH  26  27
ENDBRANCH  25  26
ENDBRANCH  24  25
ENDBRANCH   7  19
BRANCH   1  34
ATOM     34  C   UNL     1      -2.466  13.771  20.912  0.00  0.00    +0.000 C 
ATOM     35  O   UNL     1      -3.176  14.774  20.811  0.00  0.00    +0.000 OA
BRANCH  34  37
ATOM     36  C   UNL     1      -1.495  13.333  23.199  0.00  0.00    +0.000 C 
ATOM     37  C   UNL     1      -2.508  12.876  22.151  0.00  0.00    +0.000 C 
ATOM     38  C   UNL     1      -3.914  12.848  22.736  0.00  0.00    +0.000 C 
ENDBRANCH  34  37
ENDBRANCH   1  34
TORSDOF 9
ENDMDL
MODEL 5
REMARK VINA RESULT:      -7.5      5.883     11.003
REMARK  Name = 
REMARK  11 active torsions:
REMARK  status: ('A' for Active; 'I' for Inactive)
REMARK    1  A    between atoms: C_1  and  C_2
REMARK    2  A    between atoms: C_2  and  C_3
REMARK    3  A    between atoms: C_2  and  C_4
REMARK    4  A    between atoms: C_4  and  C_6
REMARK    5  A    between atoms: N_11  and  C_12
REMARK    6  A    between atoms: C_15  and  C_16
REMARK    7  A    between atoms: C_23  and  C_24
REMARK    8  A    between atoms: C_29  and  O_30
REMARK    9  A    between atoms: O_30  and  C_31
REMARK   10  A    between atoms: C_31  and  C_32
REMARK   11  A    between atoms: N_34  and  O_35
REMARK                            x       y       z     vdW  Elec       q    Type
REMARK                         _______ _______ _______ _____ _____    ______ ____
ROOT
ATOM      1  C   UNL     1      -0.350  13.632  19.019  0.00  0.00    +0.000 C 
ATOM      2  C   UNL     1       1.082  13.875  18.699  0.00  0.00    +0.000 C 
ATOM      3  O   UNL     1       1.610  14.964  18.561  0.00  0.00    +0.000 OA
ATOM      4  C   UNL     1       1.806  12.552  18.500  0.00  0.00    +0.000 C 
ATOM      5  O   UNL     1       2.980  12.472  18.200  0.00  0.00    +0.000 OA
ATOM      6  N   UNL     1       0.879  11.557  18.769  0.00  0.00    +0.000 N 
ATOM      7  C   UNL     1      -0.376  12.112  19.241  0.00  0.00    +0.000 C 
ENDROOT
BRANCH   6   8
ATOM      8  C   UNL     1       1.284  10.208  18.948  0.00  0.00    +0.000 A 
ATOM      9  C   UNL     1       1.860   9.436  17.932  0.00  0.00    +0.000 A 
ATOM     10  C   UNL     1       2.207   8.088  18.165  0.00  0.00    +0.000 A 
ATOM     11  C   UNL     1       2.033   7.502  19.429  0.00  0.00    +0.000 A 
ATOM     12  C   UNL     1       1.481   8.293  20.444  0.00  0.00    +0.000 A 
ATOM     13  C   UNL     1       1.082   9.615  20.194  0.00  0.00    +0.000 A 
BRANCH  11  14
ATOM     14  C   UNL     1       2.419   6.108  19.684  0.00  0.00    +0.000 A 
ATOM     15  C   UNL     1       1.774   5.159  20.549  0.00  0.00    +0.000 A 
ATOM     16  C   UNL     1       2.386   3.923  20.547  0.00  0.00    +0.000 A 
ATOM     17  S   UNL     1       3.746   3.886  19.517  0.00  0.00    +0.000 S 
ATOM     18  C   UNL     1       3.521   5.525  19.079  0.00  0.00    +0.000 A 
ENDBRANCH  11  14
ENDBRANCH   6   8
BRANCH   7  19
ATOM     19  C   UNL     1      -1.609  11.466  18.608  0.00  0.00    +0.000 A 
ATOM     20  C   UNL     1      -1.350  10.645  17.485  0.00  0.00    +0.000 A 
ATOM     21  C   UNL     1      -2.373  10.026  16.772  0.00  0.00    +0.000 A 
ATOM     22  C   UNL     1      -3.688  10.253  17.133  0.00  0.00    +0.000 A 
ATOM     23  C   UNL     1      -3.971  11.051  18.238  0.00  0.00    +0.000 A 
ATOM     24  C   UNL     1      -2.950  11.608  19.040  0.00  0.00    +0.000 A 
BRANCH  24  25
ATOM     25  O   UNL     1      -3.235  12.237  20.249  0.00  0.00    +0.000 OA
BRANCH  25  26
ATOM     26  C   UNL     1      -4.458  12.981  20.233  0.00  0.00    +0.000 C 
BRANCH  26  27
ATOM     27  C   UNL     1      -5.501  12.890  21.363  0.00  0.00    +0.000 C 
ATOM     28  N   UNL     1      -5.571  13.839  22.261  0.00  0.00    +0.000 NA
ATOM     29  N   UNL     1      -6.369  11.828  21.439  0.00  0.00    +0.000 N 
ATOM     30  H   UNL     1      -4.861  14.562  22.090  0.00  0.00    +0.000 HD
ATOM     31  H   UNL     1      -6.033  10.919  21.127  0.00  0.00    +0.000 HD
BRANCH  29  32
ATOM     32  O   UNL     1      -7.056  11.788  22.666  0.00  0.00    +0.000 OA
ATOM     33  H   UNL     1      -7.229  12.744  22.845  0.00  0.00    +0.000 HD
ENDBRANCH  29  32
ENDBRANCH  26  27
ENDBRANCH  25  26
ENDBRANCH  24  25
ENDBRANCH   7  19
BRANCH   1  34
ATOM     34  C   UNL     1      -0.818  14.354  20.262  0.00  0.00    +0.000 C 
ATOM     35  O   UNL     1      -1.711  15.203  20.203  0.00  0.00    +0.000 OA
BRANCH  34  37
ATOM     36  C   UNL     1       0.670  15.181  22.124  0.00  0.00    +0.000 C 
ATOM     37  C   UNL     1      -0.131  13.999  21.581  0.00  0.00    +0.000 C 
ATOM     38  C   UNL     1      -1.158  13.529  22.603  0.00  0.00    +0.000 C 
ENDBRANCH  34  37
ENDBRANCH   1  34
TORSDOF 9
ENDMDL
MODEL 6
REMARK VINA RESULT:      -7.4      1.051      1.416
REMARK  Name = 
REMARK  11 active torsions:
REMARK  status: ('A' for Active; 'I' for Inactive)
REMARK    1  A    between atoms: C_1  and  C_2
REMARK    2  A    between atoms: C_2  and  C_3
REMARK    3  A    between atoms: C_2  and  C_4
REMARK    4  A    between atoms: C_4  and  C_6
REMARK    5  A    between atoms: N_11  and  C_12
REMARK    6  A    between atoms: C_15  and  C_16
REMARK    7  A    between atoms: C_23  and  C_24
REMARK    8  A    between atoms: C_29  and  O_30
REMARK    9  A    between atoms: O_30  and  C_31
REMARK   10  A    between atoms: C_31  and  C_32
REMARK   11  A    between atoms: N_34  and  O_35
REMARK                            x       y       z     vdW  Elec       q    Type
REMARK                         _______ _______ _______ _____ _____    ______ ____
ROOT
ATOM      1  C   UNL     1       3.835   3.208  18.576  0.00  0.00    +0.000 C 
ATOM      2  C   UNL     1       2.490   3.101  17.948  0.00  0.00    +0.000 C 
ATOM      3  O   UNL     1       1.921   2.067  17.649  0.00  0.00    +0.000 OA
ATOM      4  C   UNL     1       1.933   4.488  17.664  0.00  0.00    +0.000 C 
ATOM      5  O   UNL     1       0.862   4.679  17.125  0.00  0.00    +0.000 OA
ATOM      6  N   UNL     1       2.856   5.389  18.171  0.00  0.00    +0.000 N 
ATOM      7  C   UNL     1       3.932   4.713  18.871  0.00  0.00    +0.000 C 
ENDROOT
BRANCH   6   8
ATOM      8  C   UNL     1       2.530   6.763  18.324  0.00  0.00    +0.000 A 
ATOM      9  C   UNL     1       1.973   7.296  19.492  0.00  0.00    +0.000 A 
ATOM     10  C   UNL     1       1.638   8.665  19.567  0.00  0.00    +0.000 A 
ATOM     11  C   UNL     1       1.901   9.536  18.497  0.00  0.00    +0.000 A 
ATOM     12  C   UNL     1       2.484   8.995  17.344  0.00  0.00    +0.000 A 
ATOM     13  C   UNL     1       2.761   7.622  17.250  0.00  0.00    +0.000 A 
BRANCH  11  14
ATOM     14  C   UNL     1       1.582  10.967  18.581  0.00  0.00    +0.000 A 
ATOM     15  C   UNL     1       0.374  11.573  19.071  0.00  0.00    +0.000 A 
ATOM     16  C   UNL     1       0.405  12.951  19.027  0.00  0.00    +0.000 A 
ATOM     17  S   UNL     1       1.876  13.536  18.391  0.00  0.00    +0.000 S 
ATOM     18  C   UNL     1       2.469  11.947  18.166  0.00  0.00    +0.000 A 
ENDBRANCH  11  14
ENDBRANCH   6   8
BRANCH   7  19
ATOM     19  C   UNL     1       5.319   5.267  18.545  0.00  0.00    +0.000 A 
ATOM     20  C   UNL     1       6.166   5.469  19.661  0.00  0.00    +0.000 A 
ATOM     21  C   UNL     1       7.440   6.012  19.531  0.00  0.00    +0.000 A 
ATOM     22  C   UNL     1       7.885   6.415  18.285  0.00  0.00    +0.000 A 
ATOM     23  C   UNL     1       7.076   6.220  17.169  0.00  0.00    +0.000 A 
ATOM     24  C   UNL     1       5.821   5.579  17.258  0.00  0.00    +0.000 A 
BRANCH  24  25
ATOM     25  O   UNL     1       5.108   5.212  16.119  0.00  0.00    +0.000 OA
BRANCH  25  26
ATOM     26  C   UNL     1       5.690   4.114  15.409  0.00  0.00    +0.000 C 
BRANCH  26  27
ATOM     27  C   UNL     1       6.367   4.278  14.034  0.00  0.00    +0.000 C 
ATOM     28  N   UNL     1       6.106   3.426  13.076  0.00  0.00    +0.000 NA
ATOM     29  N   UNL     1       7.238   5.313  13.795  0.00  0.00    +0.000 N 
ATOM     30  H   UNL     1       5.451   2.701  13.394  0.00  0.00    +0.000 HD
ATOM     31  H   UNL     1       7.815   5.634  14.569  0.00  0.00    +0.000 HD
BRANCH  29  32
ATOM     32  O   UNL     1       7.945   5.147  12.591  0.00  0.00    +0.000 OA
ATOM     33  H   UNL     1       7.895   4.171  12.446  0.00  0.00    +0.000 HD
ENDBRANCH  29  32
ENDBRANCH  26  27
ENDBRANCH  25  26
ENDBRANCH  24  25
ENDBRANCH   7  19
BRANCH   1  34
ATOM     34  C   UNL     1       3.965   2.411  19.854  0.00  0.00    +0.000 C 
ATOM     35  O   UNL     1       4.998   1.787  20.108  0.00  0.00    +0.000 OA
BRANCH  34  37
ATOM     36  C   UNL     1       2.951   1.380  21.921  0.00  0.00    +0.000 C 
ATOM     37  C   UNL     1       2.764   2.402  20.801  0.00  0.00    +0.000 C 
ATOM     38  C   UNL     1       2.533   3.794  21.375  0.00  0.00    +0.000 C 
ENDBRANCH  34  37
ENDBRANCH   1  34
TORSDOF 9
ENDMDL
MODEL 7
REMARK VINA RESULT:      -7.4      5.885     11.086
REMARK  Name = 
REMARK  11 active torsions:
REMARK  status: ('A' for Active; 'I' for Inactive)
REMARK    1  A    between atoms: C_1  and  C_2
REMARK    2  A    between atoms: C_2  and  C_3
REMARK    3  A    between atoms: C_2  and  C_4
REMARK    4  A    between atoms: C_4  and  C_6
REMARK    5  A    between atoms: N_11  and  C_12
REMARK    6  A    between atoms: C_15  and  C_16
REMARK    7  A    between atoms: C_23  and  C_24
REMARK    8  A    between atoms: C_29  and  O_30
REMARK    9  A    between atoms: O_30  and  C_31
REMARK   10  A    between atoms: C_31  and  C_32
REMARK   11  A    between atoms: N_34  and  O_35
REMARK                            x       y       z     vdW  Elec       q    Type
REMARK                         _______ _______ _______ _____ _____    ______ ____
ROOT
ATOM      1  C   UNL     1      -0.323  13.860  19.039  0.00  0.00    +0.000 C 
ATOM      2  C   UNL     1       1.115  14.041  18.702  0.00  0.00    +0.000 C 
ATOM      3  O   UNL     1       1.678  15.105  18.518  0.00  0.00    +0.000 OA
ATOM      4  C   UNL     1       1.792  12.687  18.552  0.00  0.00    +0.000 C 
ATOM      5  O   UNL     1       2.961  12.556  18.249  0.00  0.00    +0.000 OA
ATOM      6  N   UNL     1       0.835  11.736  18.865  0.00  0.00    +0.000 N 
ATOM      7  C   UNL     1      -0.398  12.351  19.320  0.00  0.00    +0.000 C 
ENDROOT
BRANCH   6   8
ATOM      8  C   UNL     1       1.195  10.382  19.095  0.00  0.00    +0.000 A 
ATOM      9  C   UNL     1       0.995   9.729  20.317  0.00  0.00    +0.000 A 
ATOM     10  C   UNL     1       1.409   8.391  20.492  0.00  0.00    +0.000 A 
ATOM     11  C   UNL     1       1.982   7.666  19.435  0.00  0.00    +0.000 A 
ATOM     12  C   UNL     1       2.152   8.322  18.210  0.00  0.00    +0.000 A 
ATOM     13  C   UNL     1       1.794   9.670  18.056  0.00  0.00    +0.000 A 
BRANCH  11  14
ATOM     14  C   UNL     1       2.388   6.264  19.603  0.00  0.00    +0.000 A 
ATOM     15  C   UNL     1       3.375   5.536  18.853  0.00  0.00    +0.000 A 
ATOM     16  C   UNL     1       3.526   4.234  19.280  0.00  0.00    +0.000 A 
ATOM     17  S   UNL     1       2.483   3.863  20.580  0.00  0.00    +0.000 S 
ATOM     18  C   UNL     1       1.823   5.442  20.566  0.00  0.00    +0.000 A 
ENDBRANCH  11  14
ENDBRANCH   6   8
BRANCH   7  19
ATOM     19  C   UNL     1      -1.656  11.723  18.720  0.00  0.00    +0.000 A 
ATOM     20  C   UNL     1      -1.442  10.923  17.572  0.00  0.00    +0.000 A 
ATOM     21  C   UNL     1      -2.492  10.323  16.885  0.00  0.00    +0.000 A 
ATOM     22  C   UNL     1      -3.793  10.548  17.297  0.00  0.00    +0.000 A 
ATOM     23  C   UNL     1      -4.032  11.325  18.428  0.00  0.00    +0.000 A 
ATOM     24  C   UNL     1      -2.980  11.862  19.202  0.00  0.00    +0.000 A 
BRANCH  24  25
ATOM     25  O   UNL     1      -3.218  12.468  20.434  0.00  0.00    +0.000 OA
BRANCH  25  26
ATOM     26  C   UNL     1      -4.592  12.808  20.648  0.00  0.00    +0.000 C 
BRANCH  26  27
ATOM     27  C   UNL     1      -5.314  12.547  21.984  0.00  0.00    +0.000 C 
ATOM     28  N   UNL     1      -4.648  12.623  23.108  0.00  0.00    +0.000 NA
ATOM     29  N   UNL     1      -6.653  12.243  22.015  0.00  0.00    +0.000 N 
ATOM     30  H   UNL     1      -3.660  12.847  22.937  0.00  0.00    +0.000 HD
ATOM     31  H   UNL     1      -7.035  11.705  21.240  0.00  0.00    +0.000 HD
BRANCH  29  32
ATOM     32  O   UNL     1      -7.067  11.786  23.280  0.00  0.00    +0.000 OA
ATOM     33  H   UNL     1      -7.681  11.047  23.051  0.00  0.00    +0.000 HD
ENDBRANCH  29  32
ENDBRANCH  26  27
ENDBRANCH  25  26
ENDBRANCH  24  25
ENDBRANCH   7  19
BRANCH   1  34
ATOM     34  C   UNL     1      -0.758  14.646  20.254  0.00  0.00    +0.000 C 
ATOM     35  O   UNL     1      -1.679  15.463  20.184  0.00  0.00    +0.000 OA
BRANCH  34  37
ATOM     36  C   UNL     1       0.718  15.657  22.033  0.00  0.00    +0.000 C 
ATOM     37  C   UNL     1      -0.001  14.396  21.560  0.00  0.00    +0.000 C 
ATOM     38  C   UNL     1      -0.954  13.884  22.633  0.00  0.00    +0.000 C 
ENDBRANCH  34  37
ENDBRANCH   1  34
TORSDOF 9
ENDMDL
MODEL 8
REMARK VINA RESULT:      -7.3      5.945     11.305
REMARK  Name = 
REMARK  11 active torsions:
REMARK  status: ('A' for Active; 'I' for Inactive)
REMARK    1  A    between atoms: C_1  and  C_2
REMARK    2  A    between atoms: C_2  and  C_3
REMARK    3  A    between atoms: C_2  and  C_4
REMARK    4  A    between atoms: C_4  and  C_6
REMARK    5  A    between atoms: N_11  and  C_12
REMARK    6  A    between atoms: C_15  and  C_16
REMARK    7  A    between atoms: C_23  and  C_24
REMARK    8  A    between atoms: C_29  and  O_30
REMARK    9  A    between atoms: O_30  and  C_31
REMARK   10  A    between atoms: C_31  and  C_32
REMARK   11  A    between atoms: N_34  and  O_35
REMARK                            x       y       z     vdW  Elec       q    Type
REMARK                         _______ _______ _______ _____ _____    ______ ____
ROOT
ATOM      1  C   UNL     1      -0.350  13.912  18.984  0.00  0.00    +0.000 C 
ATOM      2  C   UNL     1       1.085  14.083  18.627  0.00  0.00    +0.000 C 
ATOM      3  O   UNL     1       1.648  15.142  18.419  0.00  0.00    +0.000 OA
ATOM      4  C   UNL     1       1.756  12.725  18.493  0.00  0.00    +0.000 C 
ATOM      5  O   UNL     1       2.921  12.586  18.178  0.00  0.00    +0.000 OA
ATOM      6  N   UNL     1       0.800  11.782  18.833  0.00  0.00    +0.000 N 
ATOM      7  C   UNL     1      -0.426  12.408  19.293  0.00  0.00    +0.000 C 
ENDROOT
BRANCH   6   8
ATOM      8  C   UNL     1       1.160  10.431  19.082  0.00  0.00    +0.000 A 
ATOM      9  C   UNL     1       0.926   9.785  20.302  0.00  0.00    +0.000 A 
ATOM     10  C   UNL     1       1.342   8.450  20.497  0.00  0.00    +0.000 A 
ATOM     11  C   UNL     1       1.949   7.721  19.463  0.00  0.00    +0.000 A 
ATOM     12  C   UNL     1       2.152   8.370  18.239  0.00  0.00    +0.000 A 
ATOM     13  C   UNL     1       1.793   9.715  18.066  0.00  0.00    +0.000 A 
BRANCH  11  14
ATOM     14  C   UNL     1       2.357   6.322  19.652  0.00  0.00    +0.000 A 
ATOM     15  C   UNL     1       1.884   5.393  20.641  0.00  0.00    +0.000 A 
ATOM     16  C   UNL     1       2.463   4.146  20.531  0.00  0.00    +0.000 A 
ATOM     17  S   UNL     1       3.585   4.074  19.247  0.00  0.00    +0.000 S 
ATOM     18  C   UNL     1       3.303   5.713  18.843  0.00  0.00    +0.000 A 
ENDBRANCH  11  14
ENDBRANCH   6   8
BRANCH   7  19
ATOM     19  C   UNL     1      -1.692  11.773  18.717  0.00  0.00    +0.000 A 
ATOM     20  C   UNL     1      -1.486  10.903  17.621  0.00  0.00    +0.000 A 
ATOM     21  C   UNL     1      -2.544  10.286  16.960  0.00  0.00    +0.000 A 
ATOM     22  C   UNL     1      -3.842  10.563  17.346  0.00  0.00    +0.000 A 
ATOM     23  C   UNL     1      -4.073  11.411  18.426  0.00  0.00    +0.000 A 
ATOM     24  C   UNL     1      -3.017  11.969  19.178  0.00  0.00    +0.000 A 
BRANCH  24  25
ATOM     25  O   UNL     1      -3.252  12.652  20.369  0.00  0.00    +0.000 OA
BRANCH  25  26
ATOM     26  C   UNL     1      -4.621  13.029  20.552  0.00  0.00    +0.000 C 
BRANCH  26  27
ATOM     27  C   UNL     1      -5.495  12.460  21.686  0.00  0.00    +0.000 C 
ATOM     28  N   UNL     1      -6.619  11.855  21.397  0.00  0.00    +0.000 NA
ATOM     29  N   UNL     1      -5.109  12.570  22.999  0.00  0.00    +0.000 N 
ATOM     30  H   UNL     1      -6.789  11.853  20.384  0.00  0.00    +0.000 HD
ATOM     31  H   UNL     1      -4.589  13.401  23.271  0.00  0.00    +0.000 HD
BRANCH  29  32
ATOM     32  O   UNL     1      -6.144  12.232  23.889  0.00  0.00    +0.000 OA
ATOM     33  H   UNL     1      -6.615  11.510  23.407  0.00  0.00    +0.000 HD
ENDBRANCH  29  32
ENDBRANCH  26  27
ENDBRANCH  25  26
ENDBRANCH  24  25
ENDBRANCH   7  19
BRANCH   1  34
ATOM     34  C   UNL     1      -0.769  14.719  20.191  0.00  0.00    +0.000 C 
ATOM     35  O   UNL     1      -0.466  14.358  21.330  0.00  0.00    +0.000 OA
BRANCH  34  37
ATOM     36  C   UNL     1      -2.652  16.181  21.018  0.00  0.00    +0.000 C 
ATOM     37  C   UNL     1      -1.590  15.985  19.938  0.00  0.00    +0.000 C 
ATOM     38  C   UNL     1      -0.675  17.200  19.856  0.00  0.00    +0.000 C 
ENDBRANCH  34  37
ENDBRANCH   1  34
TORSDOF 9
ENDMDL
MODEL 9
REMARK VINA RESULT:      -7.3      5.919     11.222
REMARK  Name = 
REMARK  11 active torsions:
REMARK  status: ('A' for Active; 'I' for Inactive)
REMARK    1  A    between atoms: C_1  and  C_2
REMARK    2  A    between atoms: C_2  and  C_3
REMARK    3  A    between atoms: C_2  and  C_4
REMARK    4  A    between atoms: C_4  and  C_6
REMARK    5  A    between atoms: N_11  and  C_12
REMARK    6  A    between atoms: C_15  and  C_16
REMARK    7  A    between atoms: C_23  and  C_24
REMARK    8  A    between atoms: C_29  and  O_30
REMARK    9  A    between atoms: O_30  and  C_31
REMARK   10  A    between atoms: C_31  and  C_32
REMARK   11  A    between atoms: N_34  and  O_35
REMARK                            x       y       z     vdW  Elec       q    Type
REMARK                         _______ _______ _______ _____ _____    ______ ____
ROOT
ATOM      1  C   UNL     1      -0.263  14.209  19.060  0.00  0.00    +0.000 C 
ATOM      2  C   UNL     1       1.167  14.394  18.694  0.00  0.00    +0.000 C 
ATOM      3  O   UNL     1       1.733  15.461  18.538  0.00  0.00    +0.000 OA
ATOM      4  C   UNL     1       1.829  13.042  18.474  0.00  0.00    +0.000 C 
ATOM      5  O   UNL     1       2.989  12.916  18.136  0.00  0.00    +0.000 OA
ATOM      6  N   UNL     1       0.873  12.086  18.773  0.00  0.00    +0.000 N 
ATOM      7  C   UNL     1      -0.344  12.691  19.284  0.00  0.00    +0.000 C 
ENDROOT
BRANCH   6   8
ATOM      8  C   UNL     1       1.228  10.722  18.940  0.00  0.00    +0.000 A 
ATOM      9  C   UNL     1       1.838   9.957  17.938  0.00  0.00    +0.000 A 
ATOM     10  C   UNL     1       2.132   8.594  18.156  0.00  0.00    +0.000 A 
ATOM     11  C   UNL     1       1.871   7.984  19.394  0.00  0.00    +0.000 A 
ATOM     12  C   UNL     1       1.285   8.767  20.396  0.00  0.00    +0.000 A 
ATOM     13  C   UNL     1       0.938  10.106  20.158  0.00  0.00    +0.000 A 
BRANCH  11  14
ATOM     14  C   UNL     1       2.202   6.573  19.635  0.00  0.00    +0.000 A 
ATOM     15  C   UNL     1       3.099   5.738  18.884  0.00  0.00    +0.000 A 
ATOM     16  C   UNL     1       3.197   4.459  19.390  0.00  0.00    +0.000 A 
ATOM     17  S   UNL     1       2.210   4.239  20.765  0.00  0.00    +0.000 S 
ATOM     18  C   UNL     1       1.646   5.852  20.679  0.00  0.00    +0.000 A 
ENDBRANCH  11  14
ENDBRANCH   6   8
BRANCH   7  19
ATOM     19  C   UNL     1      -1.621  12.096  18.691  0.00  0.00    +0.000 A 
ATOM     20  C   UNL     1      -1.487  11.553  17.391  0.00  0.00    +0.000 A 
ATOM     21  C   UNL     1      -2.570  11.018  16.700  0.00  0.00    +0.000 A 
ATOM     22  C   UNL     1      -3.828  11.058  17.270  0.00  0.00    +0.000 A 
ATOM     23  C   UNL     1      -3.988  11.579  18.552  0.00  0.00    +0.000 A 
ATOM     24  C   UNL     1      -2.890  12.035  19.315  0.00  0.00    +0.000 A 
BRANCH  24  25
ATOM     25  O   UNL     1      -3.028  12.370  20.660  0.00  0.00    +0.000 OA
BRANCH  25  26
ATOM     26  C   UNL     1      -4.264  13.027  20.962  0.00  0.00    +0.000 C 
BRANCH  26  27
ATOM     27  C   UNL     1      -5.217  12.535  22.069  0.00  0.00    +0.000 C 
ATOM     28  N   UNL     1      -6.426  12.142  21.757  0.00  0.00    +0.000 NA
ATOM     29  N   UNL     1      -4.815  12.494  23.381  0.00  0.00    +0.000 N 
ATOM     30  H   UNL     1      -6.596  12.234  20.748  0.00  0.00    +0.000 HD
ATOM     31  H   UNL     1      -4.165  13.209  23.699  0.00  0.00    +0.000 HD
BRANCH  29  32
ATOM     32  O   UNL     1      -5.889  12.272  24.262  0.00  0.00    +0.000 OA
ATOM     33  H   UNL     1      -6.667  12.570  23.730  0.00  0.00    +0.000 HD
ENDBRANCH  29  32
ENDBRANCH  26  27
ENDBRANCH  25  26
ENDBRANCH  24  25
ENDBRANCH   7  19
BRANCH   1  34
ATOM     34  C   UNL     1      -0.662  14.950  20.316  0.00  0.00    +0.000 C 
ATOM     35  O   UNL     1      -1.427  15.915  20.266  0.00  0.00    +0.000 OA
BRANCH  34  37
ATOM     36  C   UNL     1       1.109  15.333  22.073  0.00  0.00    +0.000 C 
ATOM     37  C   UNL     1      -0.067  14.460  21.638  0.00  0.00    +0.000 C 
ATOM     38  C   UNL     1      -1.139  14.423  22.719  0.00  0.00    +0.000 C 
ENDBRANCH  34  37
ENDBRANCH   1  34
TORSDOF 9
ENDMDL
