MODEL 1
REMARK VINA RESULT:      -6.4      0.000      0.000
REMARK  Name = 
REMARK  9 active torsions:
REMARK  status: ('A' for Active; 'I' for Inactive)
REMARK    1  A    between atoms: C_1  and  C_2
REMARK    2  A    between atoms: C_2  and  N_3
REMARK    3  A    between atoms: C_7  and  C_8
REMARK    4  A    between atoms: C_8  and  N_9
REMARK    5  A    between atoms: N_9  and  C_10
REMARK    6  A    between atoms: N_9  and  C_11
REMARK    7  A    between atoms: C_11  and  C_12
REMARK    8  A    between atoms: C_14  and  C_15
REMARK    9  A    between atoms: C_17  and  C_18
REMARK                            x       y       z     vdW  Elec       q    Type
REMARK                         _______ _______ _______ _____ _____    ______ ____
ROOT
ATOM      1  N   UNL     1       4.877   5.287  16.721  0.00  0.00    +0.000 NA
ATOM      2  C   UNL     1       4.944   6.733  16.470  0.00  0.00    +0.000 C 
ENDROOT
BRANCH   1   3
ATOM      3  C   UNL     1       4.507   5.015  18.130  0.00  0.00    +0.000 C 
BRANCH   3   8
ATOM      4  N   UNL     1       2.708   3.704  19.397  0.00  0.00    +0.000 N 
ATOM      5  C   UNL     1       1.971   2.565  19.179  0.00  0.00    +0.000 A 
ATOM      6  C   UNL     1       2.318   2.151  17.912  0.00  0.00    +0.000 A 
ATOM      7  N   UNL     1       3.254   2.985  17.373  0.00  0.00    +0.000 NA
ATOM      8  C   UNL     1       3.498   3.910  18.288  0.00  0.00    +0.000 A 
BRANCH   4  10
ATOM      9  C   UNL     1       1.741   5.667  20.564  0.00  0.00    +0.000 C 
ATOM     10  C   UNL     1       2.671   4.466  20.630  0.00  0.00    +0.000 C 
ENDBRANCH   4  10
ENDBRANCH   3   8
ENDBRANCH   1   3
BRANCH   1  11
ATOM     11  C   UNL     1       6.208   4.699  16.435  0.00  0.00    +0.000 C 
BRANCH  11  12
ATOM     12  C   UNL     1       6.543   4.547  14.960  0.00  0.00    +0.000 A 
ATOM     13  C   UNL     1       5.789   3.700  14.152  0.00  0.00    +0.000 A 
ATOM     14  C   UNL     1       6.049   3.660  12.782  0.00  0.00    +0.000 A 
ATOM     15  C   UNL     1       5.207   2.830  11.861  0.00  0.00    +0.000 C 
ATOM     16  C   UNL     1       7.092   4.440  12.277  0.00  0.00    +0.000 A 
ATOM     17  C   UNL     1       7.831   5.233  13.149  0.00  0.00    +0.000 A 
ATOM     18  C   UNL     1       8.975   6.066  12.654  0.00  0.00    +0.000 C 
ATOM     19  N   UNL     1       7.563   5.299  14.475  0.00  0.00    +0.000 NA
ENDBRANCH  11  12
ENDBRANCH   1  11
TORSDOF 5
ENDMDL
MODEL 2
REMARK VINA RESULT:      -6.3      2.137      3.748
REMARK  Name = 
REMARK  9 active torsions:
REMARK  status: ('A' for Active; 'I' for Inactive)
REMARK    1  A    between atoms: C_1  and  C_2
REMARK    2  A    between atoms: C_2  and  N_3
REMARK    3  A    between atoms: C_7  and  C_8
REMARK    4  A    between atoms: C_8  and  N_9
REMARK    5  A    between atoms: N_9  and  C_10
REMARK    6  A    between atoms: N_9  and  C_11
REMARK    7  A    between atoms: C_11  and  C_12
REMARK    8  A    between atoms: C_14  and  C_15
REMARK    9  A    between atoms: C_17  and  C_18
REMARK                            x       y       z     vdW  Elec       q    Type
REMARK                         _______ _______ _______ _____ _____    ______ ____
ROOT
ATOM      1  N   UNL     1       2.688   6.285  18.851  0.00  0.00    +0.000 NA
ATOM      2  C   UNL     1       2.157   7.372  19.686  0.00  0.00    +0.000 C 
ENDROOT
BRANCH   1   3
ATOM      3  C   UNL     1       3.445   5.312  19.672  0.00  0.00    +0.000 C 
BRANCH   3   8
ATOM      4  N   UNL     1       2.122   3.130  19.459  0.00  0.00    +0.000 N 
ATOM      5  C   UNL     1       1.349   2.353  20.288  0.00  0.00    +0.000 A 
ATOM      6  C   UNL     1       1.434   2.953  21.524  0.00  0.00    +0.000 A 
ATOM      7  N   UNL     1       2.209   4.075  21.461  0.00  0.00    +0.000 NA
ATOM      8  C   UNL     1       2.603   4.184  20.203  0.00  0.00    +0.000 A 
BRANCH   4  10
ATOM      9  C   UNL     1       3.568   2.103  17.727  0.00  0.00    +0.000 C 
ATOM     10  C   UNL     1       2.297   2.873  18.043  0.00  0.00    +0.000 C 
ENDBRANCH   4  10
ENDBRANCH   3   8
ENDBRANCH   1   3
BRANCH   1  11
ATOM     11  C   UNL     1       3.584   6.876  17.827  0.00  0.00    +0.000 C 
BRANCH  11  12
ATOM     12  C   UNL     1       4.817   6.053  17.496  0.00  0.00    +0.000 A 
ATOM     13  C   UNL     1       4.862   5.291  16.331  0.00  0.00    +0.000 A 
ATOM     14  C   UNL     1       6.045   4.630  15.997  0.00  0.00    +0.000 A 
ATOM     15  C   UNL     1       6.167   3.870  14.712  0.00  0.00    +0.000 C 
ATOM     16  C   UNL     1       7.130   4.720  16.872  0.00  0.00    +0.000 A 
ATOM     17  C   UNL     1       7.002   5.467  18.038  0.00  0.00    +0.000 A 
ATOM     18  C   UNL     1       8.133   5.570  19.018  0.00  0.00    +0.000 C 
ATOM     19  N   UNL     1       5.867   6.136  18.353  0.00  0.00    +0.000 NA
ENDBRANCH  11  12
ENDBRANCH   1  11
TORSDOF 5
ENDMDL
MODEL 3
REMARK VINA RESULT:      -6.2      2.402      6.318
REMARK  Name = 
REMARK  9 active torsions:
REMARK  status: ('A' for Active; 'I' for Inactive)
REMARK    1  A    between atoms: C_1  and  C_2
REMARK    2  A    between atoms: C_2  and  N_3
REMARK    3  A    between atoms: C_7  and  C_8
REMARK    4  A    between atoms: C_8  and  N_9
REMARK    5  A    between atoms: N_9  and  C_10
REMARK    6  A    between atoms: N_9  and  C_11
REMARK    7  A    between atoms: C_11  and  C_12
REMARK    8  A    between atoms: C_14  and  C_15
REMARK    9  A    between atoms: C_17  and  C_18
REMARK                            x       y       z     vdW  Elec       q    Type
REMARK                         _______ _______ _______ _____ _____    ______ ____
ROOT
ATOM      1  N   UNL     1       5.686   4.942  15.783  0.00  0.00    +0.000 NA
ATOM      2  C   UNL     1       5.365   4.349  14.477  0.00  0.00    +0.000 C 
ENDROOT
BRANCH   1   3
ATOM      3  C   UNL     1       7.138   4.845  16.061  0.00  0.00    +0.000 C 
BRANCH   3   8
ATOM      4  N   UNL     1       7.580   6.538  17.932  0.00  0.00    +0.000 N 
ATOM      5  C   UNL     1       8.018   6.486  19.233  0.00  0.00    +0.000 A 
ATOM      6  C   UNL     1       8.156   5.145  19.513  0.00  0.00    +0.000 A 
ATOM      7  N   UNL     1       7.841   4.391  18.419  0.00  0.00    +0.000 NA
ATOM      8  C   UNL     1       7.514   5.244  17.462  0.00  0.00    +0.000 A 
BRANCH   4  10
ATOM      9  C   UNL     1       8.054   8.968  17.799  0.00  0.00    +0.000 C 
ATOM     10  C   UNL     1       7.324   7.771  17.213  0.00  0.00    +0.000 C 
ENDBRANCH   4  10
ENDBRANCH   3   8
ENDBRANCH   1   3
BRANCH   1  11
ATOM     11  C   UNL     1       4.930   4.210  16.828  0.00  0.00    +0.000 C 
BRANCH  11  12
ATOM     12  C   UNL     1       4.069   5.079  17.730  0.00  0.00    +0.000 A 
ATOM     13  C   UNL     1       3.788   6.396  17.378  0.00  0.00    +0.000 A 
ATOM     14  C   UNL     1       2.909   7.138  18.167  0.00  0.00    +0.000 A 
ATOM     15  C   UNL     1       2.511   8.530  17.780  0.00  0.00    +0.000 C 
ATOM     16  C   UNL     1       2.377   6.543  19.314  0.00  0.00    +0.000 A 
ATOM     17  C   UNL     1       2.733   5.235  19.627  0.00  0.00    +0.000 A 
ATOM     18  C   UNL     1       2.205   4.566  20.862  0.00  0.00    +0.000 C 
ATOM     19  N   UNL     1       3.561   4.500  18.848  0.00  0.00    +0.000 NA
ENDBRANCH  11  12
ENDBRANCH   1  11
TORSDOF 5
ENDMDL
MODEL 4
REMARK VINA RESULT:      -6.2      2.619      7.403
REMARK  Name = 
REMARK  9 active torsions:
REMARK  status: ('A' for Active; 'I' for Inactive)
REMARK    1  A    between atoms: C_1  and  C_2
REMARK    2  A    between atoms: C_2  and  N_3
REMARK    3  A    between atoms: C_7  and  C_8
REMARK    4  A    between atoms: C_8  and  N_9
REMARK    5  A    between atoms: N_9  and  C_10
REMARK    6  A    between atoms: N_9  and  C_11
REMARK    7  A    between atoms: C_11  and  C_12
REMARK    8  A    between atoms: C_14  and  C_15
REMARK    9  A    between atoms: C_17  and  C_18
REMARK                            x       y       z     vdW  Elec       q    Type
REMARK                         _______ _______ _______ _____ _____    ______ ____
ROOT
ATOM      1  N   UNL     1       3.071   4.943  18.770  0.00  0.00    +0.000 NA
ATOM      2  C   UNL     1       1.890   4.169  18.362  0.00  0.00    +0.000 C 
ENDROOT
BRANCH   1   3
ATOM      3  C   UNL     1       4.267   4.073  18.853  0.00  0.00    +0.000 C 
BRANCH   3   8
ATOM      4  N   UNL     1       6.052   5.201  17.402  0.00  0.00    +0.000 N 
ATOM      5  C   UNL     1       7.282   5.776  17.611  0.00  0.00    +0.000 A 
ATOM      6  C   UNL     1       7.467   5.743  18.975  0.00  0.00    +0.000 A 
ATOM      7  N   UNL     1       6.404   5.146  19.590  0.00  0.00    +0.000 NA
ATOM      8  C   UNL     1       5.563   4.804  18.628  0.00  0.00    +0.000 A 
BRANCH   4  10
ATOM      9  C   UNL     1       6.382   4.286  15.122  0.00  0.00    +0.000 C 
ATOM     10  C   UNL     1       5.462   5.007  16.092  0.00  0.00    +0.000 C 
ENDBRANCH   4  10
ENDBRANCH   3   8
ENDBRANCH   1   3
BRANCH   1  11
ATOM     11  C   UNL     1       2.800   5.544  20.099  0.00  0.00    +0.000 C 
BRANCH  11  12
ATOM     12  C   UNL     1       2.074   6.879  20.069  0.00  0.00    +0.000 A 
ATOM     13  C   UNL     1       1.279   7.271  21.142  0.00  0.00    +0.000 A 
ATOM     14  C   UNL     1       0.710   8.545  21.136  0.00  0.00    +0.000 A 
ATOM     15  C   UNL     1      -0.082   9.041  22.307  0.00  0.00    +0.000 C 
ATOM     16  C   UNL     1       0.922   9.366  20.026  0.00  0.00    +0.000 A 
ATOM     17  C   UNL     1       1.695   8.894  18.970  0.00  0.00    +0.000 A 
ATOM     18  C   UNL     1       1.928   9.731  17.748  0.00  0.00    +0.000 C 
ATOM     19  N   UNL     1       2.275   7.670  18.984  0.00  0.00    +0.000 NA
ENDBRANCH  11  12
ENDBRANCH   1  11
TORSDOF 5
ENDMDL
MODEL 5
REMARK VINA RESULT:      -6.2      1.840      3.090
REMARK  Name = 
REMARK  9 active torsions:
REMARK  status: ('A' for Active; 'I' for Inactive)
REMARK    1  A    between atoms: C_1  and  C_2
REMARK    2  A    between atoms: C_2  and  N_3
REMARK    3  A    between atoms: C_7  and  C_8
REMARK    4  A    between atoms: C_8  and  N_9
REMARK    5  A    between atoms: N_9  and  C_10
REMARK    6  A    between atoms: N_9  and  C_11
REMARK    7  A    between atoms: C_11  and  C_12
REMARK    8  A    between atoms: C_14  and  C_15
REMARK    9  A    between atoms: C_17  and  C_18
REMARK                            x       y       z     vdW  Elec       q    Type
REMARK                         _______ _______ _______ _____ _____    ______ ____
ROOT
ATOM      1  N   UNL     1       2.900   6.581  18.270  0.00  0.00    +0.000 NA
ATOM      2  C   UNL     1       2.256   7.597  19.113  0.00  0.00    +0.000 C 
ENDROOT
BRANCH   1   3
ATOM      3  C   UNL     1       3.380   5.443  19.089  0.00  0.00    +0.000 C 
BRANCH   3   8
ATOM      4  N   UNL     1       1.830   3.428  19.402  0.00  0.00    +0.000 N 
ATOM      5  C   UNL     1       1.600   2.243  18.747  0.00  0.00    +0.000 A 
ATOM      6  C   UNL     1       2.404   2.288  17.631  0.00  0.00    +0.000 A 
ATOM      7  N   UNL     1       3.127   3.445  17.605  0.00  0.00    +0.000 NA
ATOM      8  C   UNL     1       2.787   4.119  18.692  0.00  0.00    +0.000 A 
BRANCH   4  10
ATOM      9  C   UNL     1       1.494   2.818  21.782  0.00  0.00    +0.000 C 
ATOM     10  C   UNL     1       1.200   3.795  20.656  0.00  0.00    +0.000 C 
ENDBRANCH   4  10
ENDBRANCH   3   8
ENDBRANCH   1   3
BRANCH   1  11
ATOM     11  C   UNL     1       4.049   7.210  17.573  0.00  0.00    +0.000 C 
BRANCH  11  12
ATOM     12  C   UNL     1       5.162   6.257  17.171  0.00  0.00    +0.000 A 
ATOM     13  C   UNL     1       5.193   5.713  15.890  0.00  0.00    +0.000 A 
ATOM     14  C   UNL     1       6.283   4.927  15.512  0.00  0.00    +0.000 A 
ATOM     15  C   UNL     1       6.401   4.392  14.118  0.00  0.00    +0.000 C 
ATOM     16  C   UNL     1       7.283   4.676  16.455  0.00  0.00    +0.000 A 
ATOM     17  C   UNL     1       7.167   5.219  17.730  0.00  0.00    +0.000 A 
ATOM     18  C   UNL     1       8.205   4.954  18.779  0.00  0.00    +0.000 C 
ATOM     19  N   UNL     1       6.128   6.008  18.092  0.00  0.00    +0.000 NA
ENDBRANCH  11  12
ENDBRANCH   1  11
TORSDOF 5
ENDMDL
MODEL 6
REMARK VINA RESULT:      -6.2      1.027      1.261
REMARK  Name = 
REMARK  9 active torsions:
REMARK  status: ('A' for Active; 'I' for Inactive)
REMARK    1  A    between atoms: C_1  and  C_2
REMARK    2  A    between atoms: C_2  and  N_3
REMARK    3  A    between atoms: C_7  and  C_8
REMARK    4  A    between atoms: C_8  and  N_9
REMARK    5  A    between atoms: N_9  and  C_10
REMARK    6  A    between atoms: N_9  and  C_11
REMARK    7  A    between atoms: C_11  and  C_12
REMARK    8  A    between atoms: C_14  and  C_15
REMARK    9  A    between atoms: C_17  and  C_18
REMARK                            x       y       z     vdW  Elec       q    Type
REMARK                         _______ _______ _______ _____ _____    ______ ____
ROOT
ATOM      1  N   UNL     1       5.115   5.224  16.838  0.00  0.00    +0.000 NA
ATOM      2  C   UNL     1       5.146   6.594  16.308  0.00  0.00    +0.000 C 
ENDROOT
BRANCH   1   3
ATOM      3  C   UNL     1       4.976   5.233  18.313  0.00  0.00    +0.000 C 
BRANCH   3   8
ATOM      4  N   UNL     1       2.628   5.399  19.323  0.00  0.00    +0.000 N 
ATOM      5  C   UNL     1       1.650   4.514  19.710  0.00  0.00    +0.000 A 
ATOM      6  C   UNL     1       2.131   3.272  19.360  0.00  0.00    +0.000 A 
ATOM      7  N   UNL     1       3.372   3.377  18.801  0.00  0.00    +0.000 NA
ATOM      8  C   UNL     1       3.672   4.665  18.802  0.00  0.00    +0.000 A 
BRANCH   4  10
ATOM      9  C   UNL     1       2.221   7.598  18.254  0.00  0.00    +0.000 C 
ATOM     10  C   UNL     1       2.548   6.832  19.525  0.00  0.00    +0.000 C 
ENDBRANCH   4  10
ENDBRANCH   3   8
ENDBRANCH   1   3
BRANCH   1  11
ATOM     11  C   UNL     1       6.380   4.547  16.462  0.00  0.00    +0.000 C 
BRANCH  11  12
ATOM     12  C   UNL     1       6.646   4.460  14.968  0.00  0.00    +0.000 A 
ATOM     13  C   UNL     1       5.854   3.650  14.159  0.00  0.00    +0.000 A 
ATOM     14  C   UNL     1       6.050   3.670  12.778  0.00  0.00    +0.000 A 
ATOM     15  C   UNL     1       5.165   2.882  11.862  0.00  0.00    +0.000 C 
ATOM     16  C   UNL     1       7.071   4.471  12.260  0.00  0.00    +0.000 A 
ATOM     17  C   UNL     1       7.851   5.224  13.132  0.00  0.00    +0.000 A 
ATOM     18  C   UNL     1       8.974   6.077  12.621  0.00  0.00    +0.000 C 
ATOM     19  N   UNL     1       7.645   5.232  14.470  0.00  0.00    +0.000 NA
ENDBRANCH  11  12
ENDBRANCH   1  11
TORSDOF 5
ENDMDL
MODEL 7
REMARK VINA RESULT:      -6.2      2.430      3.769
REMARK  Name = 
REMARK  9 active torsions:
REMARK  status: ('A' for Active; 'I' for Inactive)
REMARK    1  A    between atoms: C_1  and  C_2
REMARK    2  A    between atoms: C_2  and  N_3
REMARK    3  A    between atoms: C_7  and  C_8
REMARK    4  A    between atoms: C_8  and  N_9
REMARK    5  A    between atoms: N_9  and  C_10
REMARK    6  A    between atoms: N_9  and  C_11
REMARK    7  A    between atoms: C_11  and  C_12
REMARK    8  A    between atoms: C_14  and  C_15
REMARK    9  A    between atoms: C_17  and  C_18
REMARK                            x       y       z     vdW  Elec       q    Type
REMARK                         _______ _______ _______ _____ _____    ______ ____
ROOT
ATOM      1  N   UNL     1       2.771   6.316  17.948  0.00  0.00    +0.000 NA
ATOM      2  C   UNL     1       2.463   7.749  18.062  0.00  0.00    +0.000 C 
ENDROOT
BRANCH   1   3
ATOM      3  C   UNL     1       1.540   5.502  18.073  0.00  0.00    +0.000 C 
BRANCH   3   8
ATOM      4  N   UNL     1       1.602   3.249  19.290  0.00  0.00    +0.000 N 
ATOM      5  C   UNL     1       2.014   1.972  18.994  0.00  0.00    +0.000 A 
ATOM      6  C   UNL     1       2.407   2.019  17.675  0.00  0.00    +0.000 A 
ATOM      7  N   UNL     1       2.269   3.282  17.177  0.00  0.00    +0.000 NA
ATOM      8  C   UNL     1       1.801   4.023  18.168  0.00  0.00    +0.000 A 
BRANCH   4  10
ATOM      9  C   UNL     1       1.929   3.076  21.742  0.00  0.00    +0.000 C 
ATOM     10  C   UNL     1       1.123   3.662  20.595  0.00  0.00    +0.000 C 
ENDBRANCH   4  10
ENDBRANCH   3   8
ENDBRANCH   1   3
BRANCH   1  11
ATOM     11  C   UNL     1       3.719   5.954  19.031  0.00  0.00    +0.000 C 
BRANCH  11  12
ATOM     12  C   UNL     1       5.101   5.529  18.563  0.00  0.00    +0.000 A 
ATOM     13  C   UNL     1       5.307   5.134  17.244  0.00  0.00    +0.000 A 
ATOM     14  C   UNL     1       6.604   4.852  16.814  0.00  0.00    +0.000 A 
ATOM     15  C   UNL     1       6.884   4.507  15.383  0.00  0.00    +0.000 C 
ATOM     16  C   UNL     1       7.647   4.931  17.741  0.00  0.00    +0.000 A 
ATOM     17  C   UNL     1       7.363   5.293  19.053  0.00  0.00    +0.000 A 
ATOM     18  C   UNL     1       8.448   5.366  20.086  0.00  0.00    +0.000 C 
ATOM     19  N   UNL     1       6.110   5.598  19.469  0.00  0.00    +0.000 NA
ENDBRANCH  11  12
ENDBRANCH   1  11
TORSDOF 5
ENDMDL
MODEL 8
REMARK VINA RESULT:      -6.1      2.333      6.170
REMARK  Name = 
REMARK  9 active torsions:
REMARK  status: ('A' for Active; 'I' for Inactive)
REMARK    1  A    between atoms: C_1  and  C_2
REMARK    2  A    between atoms: C_2  and  N_3
REMARK    3  A    between atoms: C_7  and  C_8
REMARK    4  A    between atoms: C_8  and  N_9
REMARK    5  A    between atoms: N_9  and  C_10
REMARK    6  A    between atoms: N_9  and  C_11
REMARK    7  A    between atoms: C_11  and  C_12
REMARK    8  A    between atoms: C_14  and  C_15
REMARK    9  A    between atoms: C_17  and  C_18
REMARK                            x       y       z     vdW  Elec       q    Type
REMARK                         _______ _______ _______ _____ _____    ______ ____
ROOT
ATOM      1  N   UNL     1       5.656   4.882  15.831  0.00  0.00    +0.000 NA
ATOM      2  C   UNL     1       5.339   4.413  14.474  0.00  0.00    +0.000 C 
ENDROOT
BRANCH   1   3
ATOM      3  C   UNL     1       7.110   4.775  16.098  0.00  0.00    +0.000 C 
BRANCH   3   8
ATOM      4  N   UNL     1       7.527   6.521  17.924  0.00  0.00    +0.000 N 
ATOM      5  C   UNL     1       8.001   6.514  19.214  0.00  0.00    +0.000 A 
ATOM      6  C   UNL     1       8.205   5.186  19.514  0.00  0.00    +0.000 A 
ATOM      7  N   UNL     1       7.894   4.398  18.443  0.00  0.00    +0.000 NA
ATOM      8  C   UNL     1       7.505   5.217  17.480  0.00  0.00    +0.000 A 
BRANCH   4  10
ATOM      9  C   UNL     1       7.943   8.954  17.690  0.00  0.00    +0.000 C 
ATOM     10  C   UNL     1       7.199   7.728  17.191  0.00  0.00    +0.000 C 
ENDBRANCH   4  10
ENDBRANCH   3   8
ENDBRANCH   1   3
BRANCH   1  11
ATOM     11  C   UNL     1       4.910   4.045  16.802  0.00  0.00    +0.000 C 
BRANCH  11  12
ATOM     12  C   UNL     1       3.977   4.807  17.728  0.00  0.00    +0.000 A 
ATOM     13  C   UNL     1       3.441   4.186  18.852  0.00  0.00    +0.000 A 
ATOM     14  C   UNL     1       2.674   4.938  19.743  0.00  0.00    +0.000 A 
ATOM     15  C   UNL     1       2.149   4.333  21.009  0.00  0.00    +0.000 C 
ATOM     16  C   UNL     1       2.433   6.282  19.447  0.00  0.00    +0.000 A 
ATOM     17  C   UNL     1       2.968   6.827  18.285  0.00  0.00    +0.000 A 
ATOM     18  C   UNL     1       2.714   8.258  17.916  0.00  0.00    +0.000 C 
ATOM     19  N   UNL     1       3.738   6.110  17.433  0.00  0.00    +0.000 NA
ENDBRANCH  11  12
ENDBRANCH   1  11
TORSDOF 5
ENDMDL
MODEL 9
REMARK VINA RESULT:      -6.1      2.458      4.430
REMARK  Name = 
REMARK  9 active torsions:
REMARK  status: ('A' for Active; 'I' for Inactive)
REMARK    1  A    between atoms: C_1  and  C_2
REMARK    2  A    between atoms: C_2  and  N_3
REMARK    3  A    between atoms: C_7  and  C_8
REMARK    4  A    between atoms: C_8  and  N_9
REMARK    5  A    between atoms: N_9  and  C_10
REMARK    6  A    between atoms: N_9  and  C_11
REMARK    7  A    between atoms: C_11  and  C_12
REMARK    8  A    between atoms: C_14  and  C_15
REMARK    9  A    between atoms: C_17  and  C_18
REMARK                            x       y       z     vdW  Elec       q    Type
REMARK                         _______ _______ _______ _____ _____    ______ ____
ROOT
ATOM      1  N   UNL     1       3.058   4.159  20.162  0.00  0.00    +0.000 NA
ATOM      2  C   UNL     1       2.579   3.428  21.343  0.00  0.00    +0.000 C 
ENDROOT
BRANCH   1   3
ATOM      3  C   UNL     1       1.930   4.804  19.449  0.00  0.00    +0.000 C 
BRANCH   3   8
ATOM      4  N   UNL     1       1.944   7.350  19.724  0.00  0.00    +0.000 N 
ATOM      5  C   UNL     1       2.300   8.429  18.952  0.00  0.00    +0.000 A 
ATOM      6  C   UNL     1       2.828   7.888  17.801  0.00  0.00    +0.000 A 
ATOM      7  N   UNL     1       2.778   6.525  17.844  0.00  0.00    +0.000 NA
ATOM      8  C   UNL     1       2.223   6.210  19.002  0.00  0.00    +0.000 A 
BRANCH   4  10
ATOM      9  C   UNL     1       0.712   8.828  21.288  0.00  0.00    +0.000 C 
ATOM     10  C   UNL     1       1.319   7.460  21.028  0.00  0.00    +0.000 C 
ENDBRANCH   4  10
ENDBRANCH   3   8
ENDBRANCH   1   3
BRANCH   1  11
ATOM     11  C   UNL     1       3.733   3.196  19.257  0.00  0.00    +0.000 C 
BRANCH  11  12
ATOM     12  C   UNL     1       4.863   3.775  18.424  0.00  0.00    +0.000 A 
ATOM     13  C   UNL     1       4.863   3.629  17.039  0.00  0.00    +0.000 A 
ATOM     14  C   UNL     1       5.855   4.262  16.289  0.00  0.00    +0.000 A 
ATOM     15  C   UNL     1       5.845   4.203  14.792  0.00  0.00    +0.000 C 
ATOM     16  C   UNL     1       6.843   4.984  16.963  0.00  0.00    +0.000 A 
ATOM     17  C   UNL     1       6.804   5.055  18.351  0.00  0.00    +0.000 A 
ATOM     18  C   UNL     1       7.859   5.798  19.116  0.00  0.00    +0.000 C 
ATOM     19  N   UNL     1       5.827   4.469  19.083  0.00  0.00    +0.000 NA
ENDBRANCH  11  12
ENDBRANCH   1  11
TORSDOF 5
ENDMDL
