MODEL 1
REMARK VINA RESULT:      -6.4      0.000      0.000
REMARK  Name = 
REMARK  7 active torsions:
REMARK  status: ('A' for Active; 'I' for Inactive)
REMARK    1  A    between atoms: C_1  and  O_2
REMARK    2  A    between atoms: O_2  and  C_3
REMARK    3  A    between atoms: C_7  and  N_8
REMARK    4  A    between atoms: N_11  and  C_12
REMARK    5  A    between atoms: C_14  and  C_15
REMARK    6  A    between atoms: C_17  and  C_18
REMARK    7  A    between atoms: C_19  and  C_20
REMARK                            x       y       z     vdW  Elec       q    Type
REMARK                         _______ _______ _______ _____ _____    ______ ____
ROOT
ATOM      1  N   UNL     1       1.371   9.028  19.460  0.00  0.00    +0.000 N 
ATOM      2  C   UNL     1       1.728   8.145  20.588  0.00  0.00    +0.000 C 
ATOM      3  C   UNL     1       1.543   6.661  20.201  0.00  0.00    +0.000 C 
ATOM      4  N   UNL     1       2.185   6.320  18.917  0.00  0.00    +0.000 N 
ATOM      5  C   UNL     1       1.934   7.257  17.807  0.00  0.00    +0.000 C 
ATOM      6  C   UNL     1       2.111   8.731  18.227  0.00  0.00    +0.000 C 
ENDROOT
BRANCH   4   7
ATOM      7  C   UNL     1       3.194   5.375  18.887  0.00  0.00    +0.000 A 
ATOM      8  N   UNL     1       4.458   5.822  19.110  0.00  0.00    +0.000 NA
ATOM      9  C   UNL     1       5.493   4.945  19.110  0.00  0.00    +0.000 A 
ATOM     10  C   UNL     1       6.871   5.489  19.356  0.00  0.00    +0.000 C 
ATOM     11  C   UNL     1       5.324   3.585  18.904  0.00  0.00    +0.000 A 
ATOM     12  C   UNL     1       4.038   3.093  18.690  0.00  0.00    +0.000 A 
ATOM     13  C   UNL     1       3.827   1.618  18.483  0.00  0.00    +0.000 C 
ATOM     14  C   UNL     1       2.960   4.002  18.684  0.00  0.00    +0.000 A 
BRANCH  14  15
ATOM     15  C   UNL     1       1.629   3.485  18.532  0.00  0.00    +0.000 C 
ATOM     16  N   UNL     1       0.568   3.025  18.419  0.00  0.00    +0.000 NA
ENDBRANCH  14  15
ENDBRANCH   4   7
BRANCH   1  21
ATOM     17  C   UNL     1      -1.423  11.249  18.420  0.00  0.00    +0.000 A 
ATOM     18  C   UNL     1      -1.740  11.868  19.628  0.00  0.00    +0.000 A 
ATOM     19  C   UNL     1      -1.029  11.547  20.778  0.00  0.00    +0.000 A 
ATOM     20  C   UNL     1       0.007  10.607  20.722  0.00  0.00    +0.000 A 
ATOM     21  C   UNL     1       0.358   9.963  19.526  0.00  0.00    +0.000 A 
ATOM     22  C   UNL     1      -0.389  10.306  18.385  0.00  0.00    +0.000 A 
BRANCH  17  24
ATOM     23  C   UNL     1      -2.532  10.623  16.417  0.00  0.00    +0.000 C 
ATOM     24  O   UNL     1      -2.190  11.636  17.355  0.00  0.00    +0.000 OA
ENDBRANCH  17  24
ENDBRANCH   1  21
TORSDOF 4
ENDMDL
MODEL 2
REMARK VINA RESULT:      -6.3      2.246      3.656
REMARK  Name = 
REMARK  7 active torsions:
REMARK  status: ('A' for Active; 'I' for Inactive)
REMARK    1  A    between atoms: C_1  and  O_2
REMARK    2  A    between atoms: O_2  and  C_3
REMARK    3  A    between atoms: C_7  and  N_8
REMARK    4  A    between atoms: N_11  and  C_12
REMARK    5  A    between atoms: C_14  and  C_15
REMARK    6  A    between atoms: C_17  and  C_18
REMARK    7  A    between atoms: C_19  and  C_20
REMARK                            x       y       z     vdW  Elec       q    Type
REMARK                         _______ _______ _______ _____ _____    ______ ____
ROOT
ATOM      1  N   UNL     1       1.036   9.331  19.441  0.00  0.00    +0.000 N 
ATOM      2  C   UNL     1       1.273   9.009  18.020  0.00  0.00    +0.000 C 
ATOM      3  C   UNL     1       2.631   8.293  17.841  0.00  0.00    +0.000 C 
ATOM      4  N   UNL     1       2.809   7.163  18.772  0.00  0.00    +0.000 N 
ATOM      5  C   UNL     1       2.464   7.434  20.180  0.00  0.00    +0.000 C 
ATOM      6  C   UNL     1       1.112   8.162  20.326  0.00  0.00    +0.000 C 
ENDROOT
BRANCH   4   7
ATOM      7  C   UNL     1       2.974   5.884  18.273  0.00  0.00    +0.000 A 
ATOM      8  N   UNL     1       1.996   4.985  18.560  0.00  0.00    +0.000 NA
ATOM      9  C   UNL     1       2.087   3.717  18.089  0.00  0.00    +0.000 A 
ATOM     10  C   UNL     1       0.984   2.759  18.439  0.00  0.00    +0.000 C 
ATOM     11  C   UNL     1       3.140   3.284  17.299  0.00  0.00    +0.000 A 
ATOM     12  C   UNL     1       4.149   4.187  16.972  0.00  0.00    +0.000 A 
ATOM     13  C   UNL     1       5.293   3.745  16.100  0.00  0.00    +0.000 C 
ATOM     14  C   UNL     1       4.062   5.505  17.465  0.00  0.00    +0.000 A 
BRANCH  14  15
ATOM     15  C   UNL     1       5.066   6.452  17.071  0.00  0.00    +0.000 C 
ATOM     16  N   UNL     1       5.902   7.184  16.731  0.00  0.00    +0.000 NA
ENDBRANCH  14  15
ENDBRANCH   4   7
BRANCH   1  21
ATOM     17  C   UNL     1       0.070  12.172  21.635  0.00  0.00    +0.000 A 
ATOM     18  C   UNL     1       0.538  13.257  20.895  0.00  0.00    +0.000 A 
ATOM     19  C   UNL     1       1.171  13.042  19.677  0.00  0.00    +0.000 A 
ATOM     20  C   UNL     1       1.332  11.739  19.191  0.00  0.00    +0.000 A 
ATOM     21  C   UNL     1       0.874  10.621  19.905  0.00  0.00    +0.000 A 
ATOM     22  C   UNL     1       0.247  10.876  21.137  0.00  0.00    +0.000 A 
BRANCH  17  24
ATOM     23  C   UNL     1      -1.717  11.784  23.149  0.00  0.00    +0.000 C 
ATOM     24  O   UNL     1      -0.532  12.499  22.820  0.00  0.00    +0.000 OA
ENDBRANCH  17  24
ENDBRANCH   1  21
TORSDOF 4
ENDMDL
MODEL 3
REMARK VINA RESULT:      -6.3      4.592      8.007
REMARK  Name = 
REMARK  7 active torsions:
REMARK  status: ('A' for Active; 'I' for Inactive)
REMARK    1  A    between atoms: C_1  and  O_2
REMARK    2  A    between atoms: O_2  and  C_3
REMARK    3  A    between atoms: C_7  and  N_8
REMARK    4  A    between atoms: N_11  and  C_12
REMARK    5  A    between atoms: C_14  and  C_15
REMARK    6  A    between atoms: C_17  and  C_18
REMARK    7  A    between atoms: C_19  and  C_20
REMARK                            x       y       z     vdW  Elec       q    Type
REMARK                         _______ _______ _______ _____ _____    ______ ____
ROOT
ATOM      1  N   UNL     1       5.581   4.694  15.902  0.00  0.00    +0.000 N 
ATOM      2  C   UNL     1       5.680   5.949  16.674  0.00  0.00    +0.000 C 
ATOM      3  C   UNL     1       4.278   6.540  16.938  0.00  0.00    +0.000 C 
ATOM      4  N   UNL     1       3.332   5.548  17.485  0.00  0.00    +0.000 N 
ATOM      5  C   UNL     1       3.304   4.244  16.796  0.00  0.00    +0.000 C 
ATOM      6  C   UNL     1       4.718   3.687  16.531  0.00  0.00    +0.000 C 
ENDROOT
BRANCH   4   7
ATOM      7  C   UNL     1       2.777   5.747  18.735  0.00  0.00    +0.000 A 
ATOM      8  N   UNL     1       2.790   4.688  19.586  0.00  0.00    +0.000 NA
ATOM      9  C   UNL     1       2.276   4.819  20.834  0.00  0.00    +0.000 A 
ATOM     10  C   UNL     1       2.309   3.617  21.734  0.00  0.00    +0.000 C 
ATOM     11  C   UNL     1       1.740   6.008  21.303  0.00  0.00    +0.000 A 
ATOM     12  C   UNL     1       1.728   7.117  20.461  0.00  0.00    +0.000 A 
ATOM     13  C   UNL     1       1.168   8.424  20.954  0.00  0.00    +0.000 C 
ATOM     14  C   UNL     1       2.256   6.984  19.160  0.00  0.00    +0.000 A 
BRANCH  14  15
ATOM     15  C   UNL     1       2.306   8.145  18.318  0.00  0.00    +0.000 C 
ATOM     16  N   UNL     1       2.332   9.111  17.672  0.00  0.00    +0.000 NA
ENDBRANCH  14  15
ENDBRANCH   4   7
BRANCH   1  21
ATOM     17  C   UNL     1       6.119   3.493  12.425  0.00  0.00    +0.000 A 
ATOM     18  C   UNL     1       7.282   4.179  12.079  0.00  0.00    +0.000 A 
ATOM     19  C   UNL     1       7.880   5.034  12.996  0.00  0.00    +0.000 A 
ATOM     20  C   UNL     1       7.318   5.202  14.267  0.00  0.00    +0.000 A 
ATOM     21  C   UNL     1       6.150   4.529  14.655  0.00  0.00    +0.000 A 
ATOM     22  C   UNL     1       5.568   3.680  13.698  0.00  0.00    +0.000 A 
BRANCH  17  24
ATOM     23  C   UNL     1       4.240   2.858  11.121  0.00  0.00    +0.000 C 
ATOM     24  O   UNL     1       5.614   2.682  11.445  0.00  0.00    +0.000 OA
ENDBRANCH  17  24
ENDBRANCH   1  21
TORSDOF 4
ENDMDL
MODEL 4
REMARK VINA RESULT:      -6.2      1.253      2.030
REMARK  Name = 
REMARK  7 active torsions:
REMARK  status: ('A' for Active; 'I' for Inactive)
REMARK    1  A    between atoms: C_1  and  O_2
REMARK    2  A    between atoms: O_2  and  C_3
REMARK    3  A    between atoms: C_7  and  N_8
REMARK    4  A    between atoms: N_11  and  C_12
REMARK    5  A    between atoms: C_14  and  C_15
REMARK    6  A    between atoms: C_17  and  C_18
REMARK    7  A    between atoms: C_19  and  C_20
REMARK                            x       y       z     vdW  Elec       q    Type
REMARK                         _______ _______ _______ _____ _____    ______ ____
ROOT
ATOM      1  N   UNL     1       1.368   9.020  19.735  0.00  0.00    +0.000 N 
ATOM      2  C   UNL     1       1.764   8.078  20.801  0.00  0.00    +0.000 C 
ATOM      3  C   UNL     1       1.561   6.617  20.341  0.00  0.00    +0.000 C 
ATOM      4  N   UNL     1       2.157   6.345  19.019  0.00  0.00    +0.000 N 
ATOM      5  C   UNL     1       1.867   7.340  17.970  0.00  0.00    +0.000 C 
ATOM      6  C   UNL     1       2.063   8.789  18.463  0.00  0.00    +0.000 C 
ENDROOT
BRANCH   4   7
ATOM      7  C   UNL     1       3.162   5.403  18.902  0.00  0.00    +0.000 A 
ATOM      8  N   UNL     1       4.431   5.832  19.127  0.00  0.00    +0.000 NA
ATOM      9  C   UNL     1       5.464   4.956  19.044  0.00  0.00    +0.000 A 
ATOM     10  C   UNL     1       6.848   5.480  19.295  0.00  0.00    +0.000 C 
ATOM     11  C   UNL     1       5.286   3.613  18.750  0.00  0.00    +0.000 A 
ATOM     12  C   UNL     1       3.995   3.139  18.531  0.00  0.00    +0.000 A 
ATOM     13  C   UNL     1       3.775   1.681  18.228  0.00  0.00    +0.000 C 
ATOM     14  C   UNL     1       2.919   4.047  18.611  0.00  0.00    +0.000 A 
BRANCH  14  15
ATOM     15  C   UNL     1       1.584   3.544  18.454  0.00  0.00    +0.000 C 
ATOM     16  N   UNL     1       0.506   3.117  18.368  0.00  0.00    +0.000 NA
ENDBRANCH  14  15
ENDBRANCH   4   7
BRANCH   1  21
ATOM     17  C   UNL     1      -0.849  11.563  21.297  0.00  0.00    +0.000 A 
ATOM     18  C   UNL     1      -1.691  11.878  20.232  0.00  0.00    +0.000 A 
ATOM     19  C   UNL     1      -1.521  11.249  19.005  0.00  0.00    +0.000 A 
ATOM     20  C   UNL     1      -0.508  10.297  18.840  0.00  0.00    +0.000 A 
ATOM     21  C   UNL     1       0.360   9.950  19.887  0.00  0.00    +0.000 A 
ATOM     22  C   UNL     1       0.163  10.614  21.111  0.00  0.00    +0.000 A 
BRANCH  17  24
ATOM     23  C   UNL     1      -2.344  11.969  23.095  0.00  0.00    +0.000 C 
ATOM     24  O   UNL     1      -1.104  12.245  22.455  0.00  0.00    +0.000 OA
ENDBRANCH  17  24
ENDBRANCH   1  21
TORSDOF 4
ENDMDL
MODEL 5
REMARK VINA RESULT:      -6.2      3.292      8.825
REMARK  Name = 
REMARK  7 active torsions:
REMARK  status: ('A' for Active; 'I' for Inactive)
REMARK    1  A    between atoms: C_1  and  O_2
REMARK    2  A    between atoms: O_2  and  C_3
REMARK    3  A    between atoms: C_7  and  N_8
REMARK    4  A    between atoms: N_11  and  C_12
REMARK    5  A    between atoms: C_14  and  C_15
REMARK    6  A    between atoms: C_17  and  C_18
REMARK    7  A    between atoms: C_19  and  C_20
REMARK                            x       y       z     vdW  Elec       q    Type
REMARK                         _______ _______ _______ _____ _____    ______ ____
ROOT
ATOM      1  N   UNL     1       1.394   8.848  20.585  0.00  0.00    +0.000 N 
ATOM      2  C   UNL     1       0.702   9.881  19.789  0.00  0.00    +0.000 C 
ATOM      3  C   UNL     1      -0.705  10.161  20.362  0.00  0.00    +0.000 C 
ATOM      4  N   UNL     1      -0.693  10.403  21.817  0.00  0.00    +0.000 N 
ATOM      5  C   UNL     1       0.093   9.446  22.618  0.00  0.00    +0.000 C 
ATOM      6  C   UNL     1       1.486   9.174  22.013  0.00  0.00    +0.000 C 
ENDROOT
BRANCH   4   7
ATOM      7  C   UNL     1      -1.121  11.621  22.312  0.00  0.00    +0.000 A 
ATOM      8  N   UNL     1      -2.270  11.616  23.038  0.00  0.00    +0.000 NA
ATOM      9  C   UNL     1      -2.739  12.774  23.567  0.00  0.00    +0.000 A 
ATOM     10  C   UNL     1      -4.016  12.717  24.355  0.00  0.00    +0.000 C 
ATOM     11  C   UNL     1      -2.085  13.986  23.415  0.00  0.00    +0.000 A 
ATOM     12  C   UNL     1      -0.895  14.021  22.691  0.00  0.00    +0.000 A 
ATOM     13  C   UNL     1      -0.157  15.322  22.528  0.00  0.00    +0.000 C 
ATOM     14  C   UNL     1      -0.407  12.821  22.135  0.00  0.00    +0.000 A 
BRANCH  14  15
ATOM     15  C   UNL     1       0.853  12.846  21.449  0.00  0.00    +0.000 C 
ATOM     16  N   UNL     1       1.881  12.908  20.910  0.00  0.00    +0.000 NA
ENDBRANCH  14  15
ENDBRANCH   4   7
BRANCH   1  21
ATOM     17  C   UNL     1       2.084   5.209  20.274  0.00  0.00    +0.000 A 
ATOM     18  C   UNL     1       2.640   5.147  18.997  0.00  0.00    +0.000 A 
ATOM     19  C   UNL     1       2.783   6.308  18.247  0.00  0.00    +0.000 A 
ATOM     20  C   UNL     1       2.373   7.538  18.776  0.00  0.00    +0.000 A 
ATOM     21  C   UNL     1       1.811   7.643  20.057  0.00  0.00    +0.000 A 
ATOM     22  C   UNL     1       1.674   6.446  20.783  0.00  0.00    +0.000 A 
BRANCH  17  24
ATOM     23  C   UNL     1       1.094   3.053  20.357  0.00  0.00    +0.000 C 
ATOM     24  O   UNL     1       1.987   4.006  20.920  0.00  0.00    +0.000 OA
ENDBRANCH  17  24
ENDBRANCH   1  21
TORSDOF 4
ENDMDL
MODEL 6
REMARK VINA RESULT:      -6.1      3.623      9.182
REMARK  Name = 
REMARK  7 active torsions:
REMARK  status: ('A' for Active; 'I' for Inactive)
REMARK    1  A    between atoms: C_1  and  O_2
REMARK    2  A    between atoms: O_2  and  C_3
REMARK    3  A    between atoms: C_7  and  N_8
REMARK    4  A    between atoms: N_11  and  C_12
REMARK    5  A    between atoms: C_14  and  C_15
REMARK    6  A    between atoms: C_17  and  C_18
REMARK    7  A    between atoms: C_19  and  C_20
REMARK                            x       y       z     vdW  Elec       q    Type
REMARK                         _______ _______ _______ _____ _____    ______ ____
ROOT
ATOM      1  N   UNL     1       0.936  10.033  20.510  0.00  0.00    +0.000 N 
ATOM      2  C   UNL     1       0.126  11.126  19.936  0.00  0.00    +0.000 C 
ATOM      3  C   UNL     1      -1.301  11.119  20.529  0.00  0.00    +0.000 C 
ATOM      4  N   UNL     1      -1.308  11.050  22.003  0.00  0.00    +0.000 N 
ATOM      5  C   UNL     1      -0.413  10.040  22.600  0.00  0.00    +0.000 C 
ATOM      6  C   UNL     1       0.998  10.060  21.977  0.00  0.00    +0.000 C 
ENDROOT
BRANCH   4   7
ATOM      7  C   UNL     1      -1.869  12.080  22.734  0.00  0.00    +0.000 A 
ATOM      8  N   UNL     1      -3.022  11.803  23.396  0.00  0.00    +0.000 NA
ATOM      9  C   UNL     1      -3.618  12.764  24.146  0.00  0.00    +0.000 A 
ATOM     10  C   UNL     1      -4.894  12.409  24.853  0.00  0.00    +0.000 C 
ATOM     11  C   UNL     1      -3.092  14.038  24.286  0.00  0.00    +0.000 A 
ATOM     12  C   UNL     1      -1.901  14.349  23.633  0.00  0.00    +0.000 A 
ATOM     13  C   UNL     1      -1.301  15.720  23.785  0.00  0.00    +0.000 C 
ATOM     14  C   UNL     1      -1.281  13.354  22.849  0.00  0.00    +0.000 A 
BRANCH  14  15
ATOM     15  C   UNL     1      -0.020  13.654  22.233  0.00  0.00    +0.000 C 
ATOM     16  N   UNL     1       1.023  13.872  21.768  0.00  0.00    +0.000 NA
ENDBRANCH  14  15
ENDBRANCH   4   7
BRANCH   1  21
ATOM     17  C   UNL     1       2.364   6.731  19.576  0.00  0.00    +0.000 A 
ATOM     18  C   UNL     1       2.594   6.911  18.213  0.00  0.00    +0.000 A 
ATOM     19  C   UNL     1       2.276   8.123  17.612  0.00  0.00    +0.000 A 
ATOM     20  C   UNL     1       1.729   9.161  18.375  0.00  0.00    +0.000 A 
ATOM     21  C   UNL     1       1.483   9.020  19.749  0.00  0.00    +0.000 A 
ATOM     22  C   UNL     1       1.809   7.778  20.321  0.00  0.00    +0.000 A 
BRANCH  17  24
ATOM     23  C   UNL     1       1.691   4.774  20.739  0.00  0.00    +0.000 C 
ATOM     24  O   UNL     1       2.710   5.498  20.061  0.00  0.00    +0.000 OA
ENDBRANCH  17  24
ENDBRANCH   1  21
TORSDOF 4
ENDMDL
MODEL 7
REMARK VINA RESULT:      -6.1      3.153      7.901
REMARK  Name = 
REMARK  7 active torsions:
REMARK  status: ('A' for Active; 'I' for Inactive)
REMARK    1  A    between atoms: C_1  and  O_2
REMARK    2  A    between atoms: O_2  and  C_3
REMARK    3  A    between atoms: C_7  and  N_8
REMARK    4  A    between atoms: N_11  and  C_12
REMARK    5  A    between atoms: C_14  and  C_15
REMARK    6  A    between atoms: C_17  and  C_18
REMARK    7  A    between atoms: C_19  and  C_20
REMARK                            x       y       z     vdW  Elec       q    Type
REMARK                         _______ _______ _______ _____ _____    ______ ____
ROOT
ATOM      1  N   UNL     1       2.084   7.813  19.450  0.00  0.00    +0.000 N 
ATOM      2  C   UNL     1       2.478   8.559  18.238  0.00  0.00    +0.000 C 
ATOM      3  C   UNL     1       1.382   9.573  17.840  0.00  0.00    +0.000 C 
ATOM      4  N   UNL     1       0.941  10.413  18.970  0.00  0.00    +0.000 N 
ATOM      5  C   UNL     1       0.655   9.695  20.226  0.00  0.00    +0.000 C 
ATOM      6  C   UNL     1       1.758   8.679  20.589  0.00  0.00    +0.000 C 
ENDROOT
BRANCH   4   7
ATOM      7  C   UNL     1       1.110  11.783  18.911  0.00  0.00    +0.000 A 
ATOM      8  N   UNL     1       2.353  12.233  18.594  0.00  0.00    +0.000 NA
ATOM      9  C   UNL     1       2.585  13.566  18.503  0.00  0.00    +0.000 A 
ATOM     10  C   UNL     1       3.976  14.013  18.156  0.00  0.00    +0.000 C 
ATOM     11  C   UNL     1       1.595  14.515  18.707  0.00  0.00    +0.000 A 
ATOM     12  C   UNL     1       0.307  14.085  19.017  0.00  0.00    +0.000 A 
ATOM     13  C   UNL     1      -0.789  15.096  19.225  0.00  0.00    +0.000 C 
ATOM     14  C   UNL     1       0.062  12.700  19.117  0.00  0.00    +0.000 A 
BRANCH  14  15
ATOM     15  C   UNL     1      -1.279  12.257  19.368  0.00  0.00    +0.000 C 
ATOM     16  N   UNL     1      -2.350  11.856  19.579  0.00  0.00    +0.000 NA
ENDBRANCH  14  15
ENDBRANCH   4   7
BRANCH   1  21
ATOM     17  C   UNL     1       1.982   4.277  18.310  0.00  0.00    +0.000 A 
ATOM     18  C   UNL     1       1.625   3.623  19.488  0.00  0.00    +0.000 A 
ATOM     19  C   UNL     1       1.421   4.355  20.651  0.00  0.00    +0.000 A 
ATOM     20  C   UNL     1       1.569   5.746  20.638  0.00  0.00    +0.000 A 
ATOM     21  C   UNL     1       1.926   6.442  19.473  0.00  0.00    +0.000 A 
ATOM     22  C   UNL     1       2.133   5.668  18.318  0.00  0.00    +0.000 A 
BRANCH  17  24
ATOM     23  C   UNL     1       2.666   2.155  17.494  0.00  0.00    +0.000 C 
ATOM     24  O   UNL     1       2.161   3.458  17.227  0.00  0.00    +0.000 OA
ENDBRANCH  17  24
ENDBRANCH   1  21
TORSDOF 4
ENDMDL
MODEL 8
REMARK VINA RESULT:      -6.1      2.174      3.494
REMARK  Name = 
REMARK  7 active torsions:
REMARK  status: ('A' for Active; 'I' for Inactive)
REMARK    1  A    between atoms: C_1  and  O_2
REMARK    2  A    between atoms: O_2  and  C_3
REMARK    3  A    between atoms: C_7  and  N_8
REMARK    4  A    between atoms: N_11  and  C_12
REMARK    5  A    between atoms: C_14  and  C_15
REMARK    6  A    between atoms: C_17  and  C_18
REMARK    7  A    between atoms: C_19  and  C_20
REMARK                            x       y       z     vdW  Elec       q    Type
REMARK                         _______ _______ _______ _____ _____    ______ ____
ROOT
ATOM      1  N   UNL     1       1.016   9.406  19.358  0.00  0.00    +0.000 N 
ATOM      2  C   UNL     1       1.271   9.053  17.947  0.00  0.00    +0.000 C 
ATOM      3  C   UNL     1       2.622   8.318  17.804  0.00  0.00    +0.000 C 
ATOM      4  N   UNL     1       2.773   7.204  18.760  0.00  0.00    +0.000 N 
ATOM      5  C   UNL     1       2.409   7.507  20.157  0.00  0.00    +0.000 C 
ATOM      6  C   UNL     1       1.064   8.255  20.267  0.00  0.00    +0.000 C 
ENDROOT
BRANCH   4   7
ATOM      7  C   UNL     1       2.929   5.914  18.289  0.00  0.00    +0.000 A 
ATOM      8  N   UNL     1       1.944   5.029  18.592  0.00  0.00    +0.000 NA
ATOM      9  C   UNL     1       2.026   3.749  18.148  0.00  0.00    +0.000 A 
ATOM     10  C   UNL     1       0.916   2.808  18.516  0.00  0.00    +0.000 C 
ATOM     11  C   UNL     1       3.079   3.293  17.371  0.00  0.00    +0.000 A 
ATOM     12  C   UNL     1       4.096   4.181  17.028  0.00  0.00    +0.000 A 
ATOM     13  C   UNL     1       5.239   3.712  16.169  0.00  0.00    +0.000 C 
ATOM     14  C   UNL     1       4.017   5.510  17.492  0.00  0.00    +0.000 A 
BRANCH  14  15
ATOM     15  C   UNL     1       5.028   6.441  17.081  0.00  0.00    +0.000 C 
ATOM     16  N   UNL     1       5.824   7.201  16.708  0.00  0.00    +0.000 NA
ENDBRANCH  14  15
ENDBRANCH   4   7
BRANCH   1  21
ATOM     17  C   UNL     1       1.209  13.117  19.452  0.00  0.00    +0.000 A 
ATOM     18  C   UNL     1       0.552  13.392  20.649  0.00  0.00    +0.000 A 
ATOM     19  C   UNL     1       0.048  12.350  21.418  0.00  0.00    +0.000 A 
ATOM     20  C   UNL     1       0.206  11.026  20.991  0.00  0.00    +0.000 A 
ATOM     21  C   UNL     1       0.862  10.707  19.793  0.00  0.00    +0.000 A 
ATOM     22  C   UNL     1       1.351  11.788  19.038  0.00  0.00    +0.000 A 
BRANCH  17  24
ATOM     23  C   UNL     1       2.969  14.135  18.226  0.00  0.00    +0.000 C 
ATOM     24  O   UNL     1       1.660  14.219  18.775  0.00  0.00    +0.000 OA
ENDBRANCH  17  24
ENDBRANCH   1  21
TORSDOF 4
ENDMDL
MODEL 9
REMARK VINA RESULT:      -6.0      3.255      8.027
REMARK  Name = 
REMARK  7 active torsions:
REMARK  status: ('A' for Active; 'I' for Inactive)
REMARK    1  A    between atoms: C_1  and  O_2
REMARK    2  A    between atoms: O_2  and  C_3
REMARK    3  A    between atoms: C_7  and  N_8
REMARK    4  A    between atoms: N_11  and  C_12
REMARK    5  A    between atoms: C_14  and  C_15
REMARK    6  A    between atoms: C_17  and  C_18
REMARK    7  A    between atoms: C_19  and  C_20
REMARK                            x       y       z     vdW  Elec       q    Type
REMARK                         _______ _______ _______ _____ _____    ______ ____
ROOT
ATOM      1  N   UNL     1       2.157   7.776  19.258  0.00  0.00    +0.000 N 
ATOM      2  C   UNL     1       2.571   8.585  18.095  0.00  0.00    +0.000 C 
ATOM      3  C   UNL     1       1.468   9.598  17.714  0.00  0.00    +0.000 C 
ATOM      4  N   UNL     1       0.981  10.375  18.870  0.00  0.00    +0.000 N 
ATOM      5  C   UNL     1       0.674   9.594  20.082  0.00  0.00    +0.000 C 
ATOM      6  C   UNL     1       1.785   8.580  20.428  0.00  0.00    +0.000 C 
ENDROOT
BRANCH   4   7
ATOM      7  C   UNL     1       1.127  11.750  18.881  0.00  0.00    +0.000 A 
ATOM      8  N   UNL     1       2.364  12.236  18.597  0.00  0.00    +0.000 NA
ATOM      9  C   UNL     1       2.574  13.576  18.576  0.00  0.00    +0.000 A 
ATOM     10  C   UNL     1       3.959  14.063  18.263  0.00  0.00    +0.000 C 
ATOM     11  C   UNL     1       1.566  14.496  18.818  0.00  0.00    +0.000 A 
ATOM     12  C   UNL     1       0.283  14.030  19.095  0.00  0.00    +0.000 A 
ATOM     13  C   UNL     1      -0.831  15.010  19.344  0.00  0.00    +0.000 C 
ATOM     14  C   UNL     1       0.062  12.637  19.124  0.00  0.00    +0.000 A 
BRANCH  14  15
ATOM     15  C   UNL     1      -1.274  12.160  19.341  0.00  0.00    +0.000 C 
ATOM     16  N   UNL     1      -2.338  11.735  19.537  0.00  0.00    +0.000 NA
ENDBRANCH  14  15
ENDBRANCH   4   7
BRANCH   1  21
ATOM     17  C   UNL     1       1.610   4.268  20.359  0.00  0.00    +0.000 A 
ATOM     18  C   UNL     1       1.727   3.583  19.151  0.00  0.00    +0.000 A 
ATOM     19  C   UNL     1       1.985   4.286  17.980  0.00  0.00    +0.000 A 
ATOM     20  C   UNL     1       2.133   5.677  18.016  0.00  0.00    +0.000 A 
ATOM     21  C   UNL     1       2.024   6.403  19.212  0.00  0.00    +0.000 A 
ATOM     22  C   UNL     1       1.753   5.660  20.374  0.00  0.00    +0.000 A 
BRANCH  17  24
ATOM     23  C   UNL     1       2.235   2.386  21.664  0.00  0.00    +0.000 C 
ATOM     24  O   UNL     1       1.350   3.478  21.447  0.00  0.00    +0.000 OA
ENDBRANCH  17  24
ENDBRANCH   1  21
TORSDOF 4
ENDMDL
