MODEL 1
REMARK VINA RESULT:      -6.9      0.000      0.000
REMARK  Name = 
REMARK  4 active torsions:
REMARK  status: ('A' for Active; 'I' for Inactive)
REMARK    1  A    between atoms: C_1  and  C_2
REMARK    2  A    between atoms: C_2  and  C_3
REMARK    3  A    between atoms: C_16  and  C_17
REMARK    4  A    between atoms: C_20  and  C_21
REMARK                            x       y       z     vdW  Elec       q    Type
REMARK                         _______ _______ _______ _____ _____    ______ ____
ROOT
ATOM      1  C   UNL     1       5.157   3.734  18.842  0.00  0.00    +0.000 C 
ATOM      2  C   UNL     1       3.744   4.118  18.315  0.00  0.00    +0.000 C 
ATOM      3  O   UNL     1       3.365   3.434  17.121  0.00  0.00    +0.000 OA
ATOM      4  C   UNL     1       4.342   3.291  16.127  0.00  0.00    +0.000 C 
ATOM      5  C   UNL     1       5.086   4.476  15.516  0.00  0.00    +0.000 C 
ATOM      6  O   UNL     1       5.515   4.425  14.359  0.00  0.00    +0.000 OA
ATOM      7  N   UNL     1       5.403   5.577  16.261  0.00  0.00    +0.000 N 
ATOM      8  C   UNL     1       4.522   6.241  17.135  0.00  0.00    +0.000 A 
ATOM      9  C   UNL     1       4.537   7.638  16.990  0.00  0.00    +0.000 A 
ATOM     10  C   UNL     1       3.566   8.427  17.590  0.00  0.00    +0.000 A 
ATOM     11  C   UNL     1       2.560   7.837  18.350  0.00  0.00    +0.000 A 
ATOM     12  C   UNL     1       2.588   6.438  18.537  0.00  0.00    +0.000 A 
ATOM     13  C   UNL     1       3.608   5.613  18.005  0.00  0.00    +0.000 A 
ATOM     14  H   UNL     1       5.992   6.186  15.702  0.00  0.00    +0.000 HD
ENDROOT
BRANCH  11  15
ATOM     15  C   UNL     1       1.531   8.679  18.962  0.00  0.00    +0.000 A 
ATOM     16  C   UNL     1       0.587   9.523  18.389  0.00  0.00    +0.000 A 
ATOM     17  C   UNL     1      -0.119  10.175  19.428  0.00  0.00    +0.000 A 
ATOM     18  C   UNL     1       0.400   9.713  20.621  0.00  0.00    +0.000 A 
ATOM     19  N   UNL     1       1.382   8.809  20.324  0.00  0.00    +0.000 N 
ATOM     20  H   UNL     1       1.946   8.329  21.017  0.00  0.00    +0.000 HD
BRANCH  18  21
ATOM     21  C   UNL     1       0.040  10.082  21.942  0.00  0.00    +0.000 C 
ATOM     22  N   UNL     1      -0.231  10.416  23.018  0.00  0.00    +0.000 NA
ENDBRANCH  18  21
ENDBRANCH  11  15
BRANCH   2  23
ATOM     23  C   UNL     1       2.748   3.700  19.423  0.00  0.00    +0.000 A 
ATOM     24  C   UNL     1       1.363   3.366  19.177  0.00  0.00    +0.000 A 
ATOM     25  C   UNL     1       0.701   2.905  20.293  0.00  0.00    +0.000 A 
ATOM     26  S   UNL     1       1.710   2.891  21.666  0.00  0.00    +0.000 S 
ATOM     27  C   UNL     1       3.046   3.458  20.760  0.00  0.00    +0.000 A 
ENDBRANCH   2  23
TORSDOF 3
ENDMDL
MODEL 2
REMARK VINA RESULT:      -6.8      1.330      1.676
REMARK  Name = 
REMARK  4 active torsions:
REMARK  status: ('A' for Active; 'I' for Inactive)
REMARK    1  A    between atoms: C_1  and  C_2
REMARK    2  A    between atoms: C_2  and  C_3
REMARK    3  A    between atoms: C_16  and  C_17
REMARK    4  A    between atoms: C_20  and  C_21
REMARK                            x       y       z     vdW  Elec       q    Type
REMARK                         _______ _______ _______ _____ _____    ______ ____
ROOT
ATOM      1  C   UNL     1       5.138   3.969  18.876  0.00  0.00    +0.000 C 
ATOM      2  C   UNL     1       3.772   4.335  18.228  0.00  0.00    +0.000 C 
ATOM      3  O   UNL     1       3.512   3.651  17.001  0.00  0.00    +0.000 OA
ATOM      4  C   UNL     1       4.575   3.529  16.098  0.00  0.00    +0.000 C 
ATOM      5  C   UNL     1       5.351   4.730  15.560  0.00  0.00    +0.000 C 
ATOM      6  O   UNL     1       5.882   4.692  14.446  0.00  0.00    +0.000 OA
ATOM      7  N   UNL     1       5.583   5.831  16.336  0.00  0.00    +0.000 N 
ATOM      8  C   UNL     1       4.617   6.476  17.131  0.00  0.00    +0.000 A 
ATOM      9  C   UNL     1       4.622   7.874  16.994  0.00  0.00    +0.000 A 
ATOM     10  C   UNL     1       3.589   8.645  17.509  0.00  0.00    +0.000 A 
ATOM     11  C   UNL     1       2.530   8.034  18.174  0.00  0.00    +0.000 A 
ATOM     12  C   UNL     1       2.563   6.635  18.356  0.00  0.00    +0.000 A 
ATOM     13  C   UNL     1       3.640   5.829  17.913  0.00  0.00    +0.000 A 
ATOM     14  H   UNL     1       6.209   6.452  15.834  0.00  0.00    +0.000 HD
ENDROOT
BRANCH  11  15
ATOM     15  C   UNL     1       1.437   8.857  18.695  0.00  0.00    +0.000 A 
ATOM     16  C   UNL     1       0.962   9.023  19.990  0.00  0.00    +0.000 A 
ATOM     17  C   UNL     1      -0.173   9.868  19.945  0.00  0.00    +0.000 A 
ATOM     18  C   UNL     1      -0.369  10.211  18.623  0.00  0.00    +0.000 A 
ATOM     19  N   UNL     1       0.611   9.604  17.887  0.00  0.00    +0.000 N 
ATOM     20  H   UNL     1       0.692   9.670  16.878  0.00  0.00    +0.000 HD
BRANCH  18  21
ATOM     21  C   UNL     1      -1.390  11.021  18.063  0.00  0.00    +0.000 C 
ATOM     22  N   UNL     1      -2.237  11.651  17.587  0.00  0.00    +0.000 NA
ENDBRANCH  18  21
ENDBRANCH  11  15
BRANCH   2  23
ATOM     23  C   UNL     1       2.688   3.895  19.241  0.00  0.00    +0.000 A 
ATOM     24  C   UNL     1       1.380   3.410  18.862  0.00  0.00    +0.000 A 
ATOM     25  C   UNL     1       0.630   2.961  19.925  0.00  0.00    +0.000 A 
ATOM     26  S   UNL     1       1.458   3.137  21.404  0.00  0.00    +0.000 S 
ATOM     27  C   UNL     1       2.840   3.772  20.618  0.00  0.00    +0.000 A 
ENDBRANCH   2  23
TORSDOF 3
ENDMDL
MODEL 3
REMARK VINA RESULT:      -6.7      2.813      4.410
REMARK  Name = 
REMARK  4 active torsions:
REMARK  status: ('A' for Active; 'I' for Inactive)
REMARK    1  A    between atoms: C_1  and  C_2
REMARK    2  A    between atoms: C_2  and  C_3
REMARK    3  A    between atoms: C_16  and  C_17
REMARK    4  A    between atoms: C_20  and  C_21
REMARK                            x       y       z     vdW  Elec       q    Type
REMARK                         _______ _______ _______ _____ _____    ______ ____
ROOT
ATOM      1  C   UNL     1       3.597   2.249  17.749  0.00  0.00    +0.000 C 
ATOM      2  C   UNL     1       4.233   3.496  18.426  0.00  0.00    +0.000 C 
ATOM      3  O   UNL     1       5.160   3.180  19.466  0.00  0.00    +0.000 OA
ATOM      4  C   UNL     1       4.808   2.151  20.347  0.00  0.00    +0.000 C 
ATOM      5  C   UNL     1       3.512   2.154  21.155  0.00  0.00    +0.000 C 
ATOM      6  O   UNL     1       3.445   1.581  22.246  0.00  0.00    +0.000 OA
ATOM      7  N   UNL     1       2.359   2.684  20.646  0.00  0.00    +0.000 N 
ATOM      8  C   UNL     1       2.263   3.924  19.988  0.00  0.00    +0.000 A 
ATOM      9  C   UNL     1       1.185   4.710  20.429  0.00  0.00    +0.000 A 
ATOM     10  C   UNL     1       1.083   6.046  20.070  0.00  0.00    +0.000 A 
ATOM     11  C   UNL     1       2.056   6.626  19.260  0.00  0.00    +0.000 A 
ATOM     12  C   UNL     1       3.103   5.814  18.776  0.00  0.00    +0.000 A 
ATOM     13  C   UNL     1       3.194   4.429  19.058  0.00  0.00    +0.000 A 
ATOM     14  H   UNL     1       1.600   2.479  21.288  0.00  0.00    +0.000 HD
ENDROOT
BRANCH  11  15
ATOM     15  C   UNL     1       1.947   8.042  18.904  0.00  0.00    +0.000 A 
ATOM     16  C   UNL     1       2.441   8.746  17.814  0.00  0.00    +0.000 A 
ATOM     17  C   UNL     1       2.129  10.116  17.986  0.00  0.00    +0.000 A 
ATOM     18  C   UNL     1       1.441  10.226  19.178  0.00  0.00    +0.000 A 
ATOM     19  N   UNL     1       1.332   8.972  19.712  0.00  0.00    +0.000 N 
ATOM     20  H   UNL     1       0.888   8.764  20.601  0.00  0.00    +0.000 HD
BRANCH  18  21
ATOM     21  C   UNL     1       0.933  11.395  19.799  0.00  0.00    +0.000 C 
ATOM     22  N   UNL     1       0.550  12.371  20.293  0.00  0.00    +0.000 NA
ENDBRANCH  18  21
ENDBRANCH  11  15
BRANCH   2  23
ATOM     23  C   UNL     1       5.018   4.232  17.314  0.00  0.00    +0.000 A 
ATOM     24  C   UNL     1       6.299   4.871  17.520  0.00  0.00    +0.000 A 
ATOM     25  C   UNL     1       6.866   5.353  16.363  0.00  0.00    +0.000 A 
ATOM     26  S   UNL     1       5.868   5.081  15.008  0.00  0.00    +0.000 S 
ATOM     27  C   UNL     1       4.697   4.276  15.962  0.00  0.00    +0.000 A 
ENDBRANCH   2  23
TORSDOF 3
ENDMDL
MODEL 4
REMARK VINA RESULT:      -6.5      4.870      9.099
REMARK  Name = 
REMARK  4 active torsions:
REMARK  status: ('A' for Active; 'I' for Inactive)
REMARK    1  A    between atoms: C_1  and  C_2
REMARK    2  A    between atoms: C_2  and  C_3
REMARK    3  A    between atoms: C_16  and  C_17
REMARK    4  A    between atoms: C_20  and  C_21
REMARK                            x       y       z     vdW  Elec       q    Type
REMARK                         _______ _______ _______ _____ _____    ______ ____
ROOT
ATOM      1  C   UNL     1       0.293  13.815  22.286  0.00  0.00    +0.000 C 
ATOM      2  C   UNL     1      -0.079  12.979  21.028  0.00  0.00    +0.000 C 
ATOM      3  O   UNL     1      -1.373  13.273  20.500  0.00  0.00    +0.000 OA
ATOM      4  C   UNL     1      -2.416  13.444  21.419  0.00  0.00    +0.000 C 
ATOM      5  C   UNL     1      -2.797  12.386  22.451  0.00  0.00    +0.000 C 
ATOM      6  O   UNL     1      -3.956  12.296  22.867  0.00  0.00    +0.000 OA
ATOM      7  N   UNL     1      -1.852  11.588  23.033  0.00  0.00    +0.000 N 
ATOM      8  C   UNL     1      -0.821  10.924  22.342  0.00  0.00    +0.000 A 
ATOM      9  C   UNL     1      -0.670   9.579  22.720  0.00  0.00    +0.000 A 
ATOM     10  C   UNL     1       0.124   8.716  21.978  0.00  0.00    +0.000 A 
ATOM     11  C   UNL     1       0.786   9.178  20.845  0.00  0.00    +0.000 A 
ATOM     12  C   UNL     1       0.674  10.544  20.508  0.00  0.00    +0.000 A 
ATOM     13  C   UNL     1      -0.063  11.469  21.287  0.00  0.00    +0.000 A 
ATOM     14  H   UNL     1      -2.296  11.044  23.766  0.00  0.00    +0.000 HD
ENDROOT
BRANCH  11  15
ATOM     15  C   UNL     1       1.606   8.252  20.060  0.00  0.00    +0.000 A 
ATOM     16  C   UNL     1       2.077   8.337  18.757  0.00  0.00    +0.000 A 
ATOM     17  C   UNL     1       2.756   7.133  18.448  0.00  0.00    +0.000 A 
ATOM     18  C   UNL     1       2.694   6.335  19.572  0.00  0.00    +0.000 A 
ATOM     19  N   UNL     1       2.009   7.025  20.534  0.00  0.00    +0.000 N 
ATOM     20  H   UNL     1       1.798   6.661  21.458  0.00  0.00    +0.000 HD
BRANCH  18  21
ATOM     21  C   UNL     1       3.206   5.025  19.754  0.00  0.00    +0.000 C 
ATOM     22  N   UNL     1       3.658   3.971  19.917  0.00  0.00    +0.000 NA
ENDBRANCH  18  21
ENDBRANCH  11  15
BRANCH   2  23
ATOM     23  C   UNL     1       0.959  13.356  19.943  0.00  0.00    +0.000 A 
ATOM     24  C   UNL     1       0.644  13.491  18.539  0.00  0.00    +0.000 A 
ATOM     25  C   UNL     1       1.695  13.953  17.781  0.00  0.00    +0.000 A 
ATOM     26  S   UNL     1       3.092  14.207  18.724  0.00  0.00    +0.000 S 
ATOM     27  C   UNL     1       2.277  13.743  20.155  0.00  0.00    +0.000 A 
ENDBRANCH   2  23
TORSDOF 3
ENDMDL
MODEL 5
REMARK VINA RESULT:      -6.4      5.563      8.633
REMARK  Name = 
REMARK  4 active torsions:
REMARK  status: ('A' for Active; 'I' for Inactive)
REMARK    1  A    between atoms: C_1  and  C_2
REMARK    2  A    between atoms: C_2  and  C_3
REMARK    3  A    between atoms: C_16  and  C_17
REMARK    4  A    between atoms: C_20  and  C_21
REMARK                            x       y       z     vdW  Elec       q    Type
REMARK                         _______ _______ _______ _____ _____    ______ ____
ROOT
ATOM      1  C   UNL     1       1.112  12.397  20.393  0.00  0.00    +0.000 C 
ATOM      2  C   UNL     1      -0.192  11.690  20.860  0.00  0.00    +0.000 C 
ATOM      3  O   UNL     1       0.031  10.574  21.723  0.00  0.00    +0.000 OA
ATOM      4  C   UNL     1       1.081   9.709  21.392  0.00  0.00    +0.000 C 
ATOM      5  C   UNL     1       1.187   9.008  20.039  0.00  0.00    +0.000 C 
ATOM      6  O   UNL     1       1.754   7.917  19.934  0.00  0.00    +0.000 OA
ATOM      7  N   UNL     1       0.765   9.616  18.889  0.00  0.00    +0.000 N 
ATOM      8  C   UNL     1      -0.457  10.298  18.739  0.00  0.00    +0.000 A 
ATOM      9  C   UNL     1      -1.147   9.958  17.564  0.00  0.00    +0.000 A 
ATOM     10  C   UNL     1      -2.466  10.344  17.375  0.00  0.00    +0.000 A 
ATOM     11  C   UNL     1      -3.123  11.081  18.356  0.00  0.00    +0.000 A 
ATOM     12  C   UNL     1      -2.403  11.467  19.506  0.00  0.00    +0.000 A 
ATOM     13  C   UNL     1      -1.034  11.158  19.694  0.00  0.00    +0.000 A 
ATOM     14  H   UNL     1       1.031   9.034  18.101  0.00  0.00    +0.000 HD
ENDROOT
BRANCH  11  15
ATOM     15  C   UNL     1      -4.521  11.466  18.153  0.00  0.00    +0.000 A 
ATOM     16  C   UNL     1      -5.702  10.826  18.509  0.00  0.00    +0.000 A 
ATOM     17  C   UNL     1      -6.789  11.580  18.005  0.00  0.00    +0.000 A 
ATOM     18  C   UNL     1      -6.255  12.673  17.353  0.00  0.00    +0.000 A 
ATOM     19  N   UNL     1      -4.894  12.596  17.460  0.00  0.00    +0.000 N 
ATOM     20  H   UNL     1      -4.249  13.263  17.050  0.00  0.00    +0.000 HD
BRANCH  18  21
ATOM     21  C   UNL     1      -6.935  13.709  16.664  0.00  0.00    +0.000 C 
ATOM     22  N   UNL     1      -7.526  14.538  16.111  0.00  0.00    +0.000 NA
ENDBRANCH  18  21
ENDBRANCH  11  15
BRANCH   2  23
ATOM     23  C   UNL     1      -0.986  12.746  21.666  0.00  0.00    +0.000 A 
ATOM     24  C   UNL     1      -1.731  12.449  22.868  0.00  0.00    +0.000 A 
ATOM     25  C   UNL     1      -2.254  13.564  23.482  0.00  0.00    +0.000 A 
ATOM     26  S   UNL     1      -1.892  14.989  22.619  0.00  0.00    +0.000 S 
ATOM     27  C   UNL     1      -0.996  14.119  21.449  0.00  0.00    +0.000 A 
ENDBRANCH   2  23
TORSDOF 3
ENDMDL
MODEL 6
REMARK VINA RESULT:      -6.3      5.544      8.462
REMARK  Name = 
REMARK  4 active torsions:
REMARK  status: ('A' for Active; 'I' for Inactive)
REMARK    1  A    between atoms: C_1  and  C_2
REMARK    2  A    between atoms: C_2  and  C_3
REMARK    3  A    between atoms: C_16  and  C_17
REMARK    4  A    between atoms: C_20  and  C_21
REMARK                            x       y       z     vdW  Elec       q    Type
REMARK                         _______ _______ _______ _____ _____    ______ ____
ROOT
ATOM      1  C   UNL     1       1.464  12.229  20.805  0.00  0.00    +0.000 C 
ATOM      2  C   UNL     1       0.060  11.681  21.190  0.00  0.00    +0.000 C 
ATOM      3  O   UNL     1       0.098  10.585  22.106  0.00  0.00    +0.000 OA
ATOM      4  C   UNL     1       1.071   9.602  21.888  0.00  0.00    +0.000 C 
ATOM      5  C   UNL     1       1.203   8.838  20.573  0.00  0.00    +0.000 C 
ATOM      6  O   UNL     1       1.657   7.690  20.550  0.00  0.00    +0.000 OA
ATOM      7  N   UNL     1       0.936   9.438  19.373  0.00  0.00    +0.000 N 
ATOM      8  C   UNL     1      -0.191  10.236  19.103  0.00  0.00    +0.000 A 
ATOM      9  C   UNL     1      -0.823   9.920  17.890  0.00  0.00    +0.000 A 
ATOM     10  C   UNL     1      -2.075  10.434  17.583  0.00  0.00    +0.000 A 
ATOM     11  C   UNL     1      -2.722  11.276  18.483  0.00  0.00    +0.000 A 
ATOM     12  C   UNL     1      -2.053  11.633  19.674  0.00  0.00    +0.000 A 
ATOM     13  C   UNL     1      -0.744  11.191  19.980  0.00  0.00    +0.000 A 
ATOM     14  H   UNL     1       1.197   8.799  18.629  0.00  0.00    +0.000 HD
ENDROOT
BRANCH  11  15
ATOM     15  C   UNL     1      -4.051  11.795  18.157  0.00  0.00    +0.000 A 
ATOM     16  C   UNL     1      -4.827  11.654  17.013  0.00  0.00    +0.000 A 
ATOM     17  C   UNL     1      -6.003  12.426  17.172  0.00  0.00    +0.000 A 
ATOM     18  C   UNL     1      -5.930  13.021  18.415  0.00  0.00    +0.000 A 
ATOM     19  N   UNL     1      -4.758  12.625  18.997  0.00  0.00    +0.000 N 
ATOM     20  H   UNL     1      -4.440  12.932  19.911  0.00  0.00    +0.000 HD
BRANCH  18  21
ATOM     21  C   UNL     1      -6.855  13.906  19.026  0.00  0.00    +0.000 C 
ATOM     22  N   UNL     1      -7.597  14.617  19.560  0.00  0.00    +0.000 NA
ENDBRANCH  18  21
ENDBRANCH  11  15
BRANCH   2  23
ATOM     23  C   UNL     1      -0.674  12.847  21.895  0.00  0.00    +0.000 A 
ATOM     24  C   UNL     1      -1.606  12.670  22.986  0.00  0.00    +0.000 A 
ATOM     25  C   UNL     1      -2.041  13.854  23.535  0.00  0.00    +0.000 A 
ATOM     26  S   UNL     1      -1.371  15.205  22.741  0.00  0.00    +0.000 S 
ATOM     27  C   UNL     1      -0.461  14.206  21.690  0.00  0.00    +0.000 A 
ENDBRANCH   2  23
TORSDOF 3
ENDMDL
MODEL 7
REMARK VINA RESULT:      -6.3      6.760     10.714
REMARK  Name = 
REMARK  4 active torsions:
REMARK  status: ('A' for Active; 'I' for Inactive)
REMARK    1  A    between atoms: C_1  and  C_2
REMARK    2  A    between atoms: C_2  and  C_3
REMARK    3  A    between atoms: C_16  and  C_17
REMARK    4  A    between atoms: C_20  and  C_21
REMARK                            x       y       z     vdW  Elec       q    Type
REMARK                         _______ _______ _______ _____ _____    ______ ____
ROOT
ATOM      1  C   UNL     1      -6.726  12.273  20.439  0.00  0.00    +0.000 C 
ATOM      2  C   UNL     1      -5.469  13.090  20.024  0.00  0.00    +0.000 C 
ATOM      3  O   UNL     1      -5.769  14.356  19.436  0.00  0.00    +0.000 OA
ATOM      4  C   UNL     1      -6.827  14.402  18.520  0.00  0.00    +0.000 C 
ATOM      5  C   UNL     1      -6.885  13.524  17.272  0.00  0.00    +0.000 C 
ATOM      6  O   UNL     1      -7.480  13.903  16.259  0.00  0.00    +0.000 OA
ATOM      7  N   UNL     1      -6.388  12.251  17.276  0.00  0.00    +0.000 N 
ATOM      8  C   UNL     1      -5.140  11.873  17.806  0.00  0.00    +0.000 A 
ATOM      9  C   UNL     1      -4.402  11.032  16.957  0.00  0.00    +0.000 A 
ATOM     10  C   UNL     1      -3.064  10.763  17.208  0.00  0.00    +0.000 A 
ATOM     11  C   UNL     1      -2.435  11.328  18.313  0.00  0.00    +0.000 A 
ATOM     12  C   UNL     1      -3.200  12.125  19.191  0.00  0.00    +0.000 A 
ATOM     13  C   UNL     1      -4.586  12.355  19.009  0.00  0.00    +0.000 A 
ATOM     14  H   UNL     1      -6.631  11.807  16.396  0.00  0.00    +0.000 HD
ENDROOT
BRANCH  11  15
ATOM     15  C   UNL     1      -1.018  11.053  18.555  0.00  0.00    +0.000 A 
ATOM     16  C   UNL     1      -0.077  11.730  19.321  0.00  0.00    +0.000 A 
ATOM     17  C   UNL     1       1.177  11.096  19.152  0.00  0.00    +0.000 A 
ATOM     18  C   UNL     1       0.981  10.036  18.291  0.00  0.00    +0.000 A 
ATOM     19  N   UNL     1      -0.342  10.017  17.950  0.00  0.00    +0.000 N 
ATOM     20  H   UNL     1      -0.759   9.351  17.308  0.00  0.00    +0.000 HD
BRANCH  18  21
ATOM     21  C   UNL     1       1.937   9.112  17.796  0.00  0.00    +0.000 C 
ATOM     22  N   UNL     1       2.743   8.369  17.421  0.00  0.00    +0.000 NA
ENDBRANCH  18  21
ENDBRANCH  11  15
BRANCH   2  23
ATOM     23  C   UNL     1      -4.685  13.360  21.331  0.00  0.00    +0.000 A 
ATOM     24  C   UNL     1      -3.945  14.575  21.589  0.00  0.00    +0.000 A 
ATOM     25  C   UNL     1      -3.432  14.646  22.864  0.00  0.00    +0.000 A 
ATOM     26  S   UNL     1      -3.796  13.250  23.772  0.00  0.00    +0.000 S 
ATOM     27  C   UNL     1      -4.680  12.569  22.474  0.00  0.00    +0.000 A 
ENDBRANCH   2  23
TORSDOF 3
ENDMDL
MODEL 8
REMARK VINA RESULT:      -6.3      2.698      4.012
REMARK  Name = 
REMARK  4 active torsions:
REMARK  status: ('A' for Active; 'I' for Inactive)
REMARK    1  A    between atoms: C_1  and  C_2
REMARK    2  A    between atoms: C_2  and  C_3
REMARK    3  A    between atoms: C_16  and  C_17
REMARK    4  A    between atoms: C_20  and  C_21
REMARK                            x       y       z     vdW  Elec       q    Type
REMARK                         _______ _______ _______ _____ _____    ______ ____
ROOT
ATOM      1  C   UNL     1       5.606   4.004  16.543  0.00  0.00    +0.000 C 
ATOM      2  C   UNL     1       5.292   4.702  17.897  0.00  0.00    +0.000 C 
ATOM      3  O   UNL     1       5.475   3.863  19.038  0.00  0.00    +0.000 OA
ATOM      4  C   UNL     1       5.021   2.542  18.941  0.00  0.00    +0.000 C 
ATOM      5  C   UNL     1       3.580   2.182  18.590  0.00  0.00    +0.000 C 
ATOM      6  O   UNL     1       3.072   1.134  19.001  0.00  0.00    +0.000 OA
ATOM      7  N   UNL     1       2.849   2.942  17.721  0.00  0.00    +0.000 N 
ATOM      8  C   UNL     1       2.771   4.347  17.746  0.00  0.00    +0.000 A 
ATOM      9  C   UNL     1       1.460   4.837  17.626  0.00  0.00    +0.000 A 
ATOM     10  C   UNL     1       1.173   6.172  17.874  0.00  0.00    +0.000 A 
ATOM     11  C   UNL     1       2.190   7.046  18.246  0.00  0.00    +0.000 A 
ATOM     12  C   UNL     1       3.512   6.556  18.307  0.00  0.00    +0.000 A 
ATOM     13  C   UNL     1       3.851   5.220  17.983  0.00  0.00    +0.000 A 
ATOM     14  H   UNL     1       1.970   2.467  17.538  0.00  0.00    +0.000 HD
ENDROOT
BRANCH  11  15
ATOM     15  C   UNL     1       1.871   8.447  18.524  0.00  0.00    +0.000 A 
ATOM     16  C   UNL     1       2.038   9.589  17.750  0.00  0.00    +0.000 A 
ATOM     17  C   UNL     1       1.644  10.711  18.517  0.00  0.00    +0.000 A 
ATOM     18  C   UNL     1       1.235  10.236  19.747  0.00  0.00    +0.000 A 
ATOM     19  N   UNL     1       1.368   8.875  19.731  0.00  0.00    +0.000 N 
ATOM     20  H   UNL     1       1.158   8.270  20.519  0.00  0.00    +0.000 HD
BRANCH  18  21
ATOM     21  C   UNL     1       0.772  10.971  20.868  0.00  0.00    +0.000 C 
ATOM     22  N   UNL     1       0.388  11.603  21.760  0.00  0.00    +0.000 NA
ENDBRANCH  18  21
ENDBRANCH  11  15
BRANCH   2  23
ATOM     23  C   UNL     1       6.297   5.873  18.017  0.00  0.00    +0.000 A 
ATOM     24  C   UNL     1       7.387   5.904  18.967  0.00  0.00    +0.000 A 
ATOM     25  C   UNL     1       8.224   6.985  18.808  0.00  0.00    +0.000 A 
ATOM     26  S   UNL     1       7.711   8.003  17.541  0.00  0.00    +0.000 S 
ATOM     27  C   UNL     1       6.394   6.974  17.174  0.00  0.00    +0.000 A 
ENDBRANCH   2  23
TORSDOF 3
ENDMDL
MODEL 9
REMARK VINA RESULT:      -6.3      8.617     11.788
REMARK  Name = 
REMARK  4 active torsions:
REMARK  status: ('A' for Active; 'I' for Inactive)
REMARK    1  A    between atoms: C_1  and  C_2
REMARK    2  A    between atoms: C_2  and  C_3
REMARK    3  A    between atoms: C_16  and  C_17
REMARK    4  A    between atoms: C_20  and  C_21
REMARK                            x       y       z     vdW  Elec       q    Type
REMARK                         _______ _______ _______ _____ _____    ______ ____
ROOT
ATOM      1  C   UNL     1      -5.083  13.007  23.478  0.00  0.00    +0.000 C 
ATOM      2  C   UNL     1      -4.406  13.572  22.196  0.00  0.00    +0.000 C 
ATOM      3  O   UNL     1      -4.469  14.995  22.088  0.00  0.00    +0.000 OA
ATOM      4  C   UNL     1      -5.678  15.611  22.433  0.00  0.00    +0.000 C 
ATOM      5  C   UNL     1      -7.011  15.248  21.783  0.00  0.00    +0.000 C 
ATOM      6  O   UNL     1      -7.916  16.082  21.687  0.00  0.00    +0.000 OA
ATOM      7  N   UNL     1      -7.288  13.966  21.396  0.00  0.00    +0.000 N 
ATOM      8  C   UNL     1      -6.409  13.132  20.680  0.00  0.00    +0.000 A 
ATOM      9  C   UNL     1      -7.020  12.469  19.603  0.00  0.00    +0.000 A 
ATOM     10  C   UNL     1      -6.259  11.805  18.651  0.00  0.00    +0.000 A 
ATOM     11  C   UNL     1      -4.872  11.788  18.757  0.00  0.00    +0.000 A 
ATOM     12  C   UNL     1      -4.272  12.407  19.874  0.00  0.00    +0.000 A 
ATOM     13  C   UNL     1      -5.022  13.025  20.904  0.00  0.00    +0.000 A 
ATOM     14  H   UNL     1      -8.258  13.921  21.101  0.00  0.00    +0.000 HD
ENDROOT
BRANCH  11  15
ATOM     15  C   UNL     1      -4.079  11.100  17.735  0.00  0.00    +0.000 A 
ATOM     16  C   UNL     1      -2.818  10.522  17.799  0.00  0.00    +0.000 A 
ATOM     17  C   UNL     1      -2.471  10.061  16.506  0.00  0.00    +0.000 A 
ATOM     18  C   UNL     1      -3.531  10.358  15.674  0.00  0.00    +0.000 A 
ATOM     19  N   UNL     1      -4.492  10.972  16.429  0.00  0.00    +0.000 N 
ATOM     20  H   UNL     1      -5.373  11.318  16.062  0.00  0.00    +0.000 HD
BRANCH  18  21
ATOM     21  C   UNL     1      -3.655  10.117  14.282  0.00  0.00    +0.000 C 
ATOM     22  N   UNL     1      -3.751   9.959  13.138  0.00  0.00    +0.000 NA
ENDBRANCH  18  21
ENDBRANCH  11  15
BRANCH   2  23
ATOM     23  C   UNL     1      -2.912  13.181  22.294  0.00  0.00    +0.000 A 
ATOM     24  C   UNL     1      -2.432  11.997  22.969  0.00  0.00    +0.000 A 
ATOM     25  C   UNL     1      -1.079  11.789  22.822  0.00  0.00    +0.000 A 
ATOM     26  S   UNL     1      -0.346  13.021  21.900  0.00  0.00    +0.000 S 
ATOM     27  C   UNL     1      -1.846  13.809  21.658  0.00  0.00    +0.000 A 
ENDBRANCH   2  23
TORSDOF 3
ENDMDL
