MODEL 1
REMARK VINA RESULT:      -6.8      0.000      0.000
REMARK  Name = 
REMARK  5 active torsions:
REMARK  status: ('A' for Active; 'I' for Inactive)
REMARK    1  A    between atoms: C_1  and  S_2
REMARK    2  A    between atoms: S_2  and  C_3
REMARK    3  A    between atoms: C_12  and  O_13
REMARK    4  A    between atoms: C_16  and  C_17
REMARK    5  A    between atoms: C_21  and  C_22
REMARK                            x       y       z     vdW  Elec       q    Type
REMARK                         _______ _______ _______ _____ _____    ______ ____
ROOT
ATOM      1  C   UNL     1       8.096  13.201  24.798  0.00  0.00    +0.000 C 
ATOM      2  C   UNL     1       7.469  11.845  24.485  0.00  0.00    +0.000 C 
ATOM      3  C   UNL     1       8.142  11.508  23.166  0.00  0.00    +0.000 C 
ATOM      4  C   UNL     1       8.339  12.862  22.411  0.00  0.00    +0.000 C 
ATOM      5  C   UNL     1       9.752  12.918  21.739  0.00  0.00    +0.000 C 
ATOM      6  C   UNL     1       9.732  11.814  20.704  0.00  0.00    +0.000 C 
ATOM      7  C   UNL     1      11.052  11.788  20.003  0.00  0.00    +0.000 C 
ATOM      8  C   UNL     1      11.146  13.020  19.094  0.00  0.00    +0.000 C 
ATOM      9  C   UNL     1      10.945  12.658  17.661  0.00  0.00    +0.000 C 
ATOM     10  C   UNL     1      11.509  13.734  16.747  0.00  0.00    +0.000 C 
ATOM     11  C   UNL     1      12.331  14.821  17.471  0.00  0.00    +0.000 C 
ATOM     12  C   UNL     1      11.849  15.304  18.922  0.00  0.00    +0.000 C 
ATOM     13  C   UNL     1      10.656  14.435  19.584  0.00  0.00    +0.000 C 
ATOM     14  C   UNL     1       9.501  15.329  19.056  0.00  0.00    +0.000 C 
ATOM     15  C   UNL     1      10.337  14.327  21.229  0.00  0.00    +0.000 C 
ATOM     16  C   UNL     1       9.458  15.432  21.907  0.00  0.00    +0.000 C 
ATOM     17  C   UNL     1       9.031  15.117  23.357  0.00  0.00    +0.000 C 
ATOM     18  C   UNL     1       8.013  13.960  23.440  0.00  0.00    +0.000 C 
ATOM     19  C   UNL     1       6.575  14.467  23.140  0.00  0.00    +0.000 C 
ENDROOT
BRANCH   1  21
ATOM     20  C   UNL     1       6.345  12.541  26.815  0.00  0.00    +0.000 C 
ATOM     21  S   UNL     1       7.324  13.963  26.259  0.00  0.00    +0.000 S 
ENDBRANCH   1  21
BRANCH  10  22
ATOM     22  O   UNL     1      12.331  13.112  15.740  0.00  0.00    +0.000 OA
ATOM     23  H   UNL     1      12.863  13.798  15.300  0.00  0.00    +0.000 HD
ENDBRANCH  10  22
TORSDOF 2
ENDMDL
MODEL 2
REMARK VINA RESULT:      -6.6      9.589     11.190
REMARK  Name = 
REMARK  5 active torsions:
REMARK  status: ('A' for Active; 'I' for Inactive)
REMARK    1  A    between atoms: C_1  and  S_2
REMARK    2  A    between atoms: S_2  and  C_3
REMARK    3  A    between atoms: C_12  and  O_13
REMARK    4  A    between atoms: C_16  and  C_17
REMARK    5  A    between atoms: C_21  and  C_22
REMARK                            x       y       z     vdW  Elec       q    Type
REMARK                         _______ _______ _______ _____ _____    ______ ____
ROOT
ATOM      1  C   UNL     1       1.099  10.843  20.643  0.00  0.00    +0.000 C 
ATOM      2  C   UNL     1       0.197  10.425  21.801  0.00  0.00    +0.000 C 
ATOM      3  C   UNL     1       0.439   8.926  21.835  0.00  0.00    +0.000 C 
ATOM      4  C   UNL     1       0.654   8.479  20.353  0.00  0.00    +0.000 C 
ATOM      5  C   UNL     1       1.833   7.453  20.252  0.00  0.00    +0.000 C 
ATOM      6  C   UNL     1       1.362   6.246  21.033  0.00  0.00    +0.000 C 
ATOM      7  C   UNL     1       2.432   5.202  20.994  0.00  0.00    +0.000 C 
ATOM      8  C   UNL     1       2.488   4.614  19.578  0.00  0.00    +0.000 C 
ATOM      9  C   UNL     1       1.864   3.259  19.523  0.00  0.00    +0.000 C 
ATOM     10  C   UNL     1       2.341   2.494  18.300  0.00  0.00    +0.000 C 
ATOM     11  C   UNL     1       3.491   3.174  17.528  0.00  0.00    +0.000 C 
ATOM     12  C   UNL     1       3.489   4.772  17.407  0.00  0.00    +0.000 C 
ATOM     13  C   UNL     1       2.384   5.538  18.306  0.00  0.00    +0.000 C 
ATOM     14  C   UNL     1       1.295   5.592  17.199  0.00  0.00    +0.000 C 
ATOM     15  C   UNL     1       2.490   7.132  18.819  0.00  0.00    +0.000 C 
ATOM     16  C   UNL     1       2.012   8.273  17.858  0.00  0.00    +0.000 C 
ATOM     17  C   UNL     1       1.930   9.672  18.508  0.00  0.00    +0.000 C 
ATOM     18  C   UNL     1       0.793   9.782  19.544  0.00  0.00    +0.000 C 
ATOM     19  C   UNL     1      -0.570  10.042  18.844  0.00  0.00    +0.000 C 
ENDROOT
BRANCH   1  21
ATOM     20  C   UNL     1      -0.138  13.081  21.659  0.00  0.00    +0.000 C 
ATOM     21  S   UNL     1       0.871  12.601  20.231  0.00  0.00    +0.000 S 
ENDBRANCH   1  21
BRANCH  10  22
ATOM     22  O   UNL     1       2.759   1.175  18.704  0.00  0.00    +0.000 OA
ATOM     23  H   UNL     1       3.623   1.240  19.149  0.00  0.00    +0.000 HD
ENDBRANCH  10  22
TORSDOF 2
ENDMDL
MODEL 3
REMARK VINA RESULT:      -6.5      9.753     11.675
REMARK  Name = 
REMARK  5 active torsions:
REMARK  status: ('A' for Active; 'I' for Inactive)
REMARK    1  A    between atoms: C_1  and  S_2
REMARK    2  A    between atoms: S_2  and  C_3
REMARK    3  A    between atoms: C_12  and  O_13
REMARK    4  A    between atoms: C_16  and  C_17
REMARK    5  A    between atoms: C_21  and  C_22
REMARK                            x       y       z     vdW  Elec       q    Type
REMARK                         _______ _______ _______ _____ _____    ______ ____
ROOT
ATOM      1  C   UNL     1       3.679   4.019  19.122  0.00  0.00    +0.000 C 
ATOM      2  C   UNL     1       3.525   3.982  17.603  0.00  0.00    +0.000 C 
ATOM      3  C   UNL     1       3.015   5.385  17.326  0.00  0.00    +0.000 C 
ATOM      4  C   UNL     1       2.117   5.778  18.542  0.00  0.00    +0.000 C 
ATOM      5  C   UNL     1       2.390   7.259  18.973  0.00  0.00    +0.000 C 
ATOM      6  C   UNL     1       1.951   8.093  17.789  0.00  0.00    +0.000 C 
ATOM      7  C   UNL     1       2.176   9.536  18.108  0.00  0.00    +0.000 C 
ATOM      8  C   UNL     1       1.141   9.971  19.154  0.00  0.00    +0.000 C 
ATOM      9  C   UNL     1       0.058  10.794  18.541  0.00  0.00    +0.000 C 
ATOM     10  C   UNL     1      -0.663  11.612  19.599  0.00  0.00    +0.000 C 
ATOM     11  C   UNL     1      -0.000  11.582  20.993  0.00  0.00    +0.000 C 
ATOM     12  C   UNL     1       0.670  10.213  21.490  0.00  0.00    +0.000 C 
ATOM     13  C   UNL     1       0.778   9.045  20.376  0.00  0.00    +0.000 C 
ATOM     14  C   UNL     1      -0.566   8.357  20.742  0.00  0.00    +0.000 C 
ATOM     15  C   UNL     1       1.879   7.779  20.407  0.00  0.00    +0.000 C 
ATOM     16  C   UNL     1       1.537   6.495  21.237  0.00  0.00    +0.000 C 
ATOM     17  C   UNL     1       2.497   5.306  21.010  0.00  0.00    +0.000 C 
ATOM     18  C   UNL     1       2.357   4.688  19.603  0.00  0.00    +0.000 C 
ATOM     19  C   UNL     1       1.151   3.709  19.546  0.00  0.00    +0.000 C 
ENDROOT
BRANCH   1  21
ATOM     20  C   UNL     1       3.638   1.381  18.340  0.00  0.00    +0.000 C 
ATOM     21  S   UNL     1       4.104   2.377  19.782  0.00  0.00    +0.000 S 
ENDBRANCH   1  21
BRANCH  10  22
ATOM     22  O   UNL     1      -0.760  12.979  19.152  0.00  0.00    +0.000 OA
ATOM     23  H   UNL     1      -0.259  13.547  19.764  0.00  0.00    +0.000 HD
ENDBRANCH  10  22
TORSDOF 2
ENDMDL
MODEL 4
REMARK VINA RESULT:      -5.9      1.548      2.808
REMARK  Name = 
REMARK  5 active torsions:
REMARK  status: ('A' for Active; 'I' for Inactive)
REMARK    1  A    between atoms: C_1  and  S_2
REMARK    2  A    between atoms: S_2  and  C_3
REMARK    3  A    between atoms: C_12  and  O_13
REMARK    4  A    between atoms: C_16  and  C_17
REMARK    5  A    between atoms: C_21  and  C_22
REMARK                            x       y       z     vdW  Elec       q    Type
REMARK                         _______ _______ _______ _____ _____    ______ ____
ROOT
ATOM      1  C   UNL     1       6.179  12.787  24.194  0.00  0.00    +0.000 C 
ATOM      2  C   UNL     1       5.539  14.168  24.322  0.00  0.00    +0.000 C 
ATOM      3  C   UNL     1       5.965  14.811  23.014  0.00  0.00    +0.000 C 
ATOM      4  C   UNL     1       7.387  14.251  22.688  0.00  0.00    +0.000 C 
ATOM      5  C   UNL     1       7.508  13.903  21.166  0.00  0.00    +0.000 C 
ATOM      6  C   UNL     1       7.362  15.231  20.454  0.00  0.00    +0.000 C 
ATOM      7  C   UNL     1       7.464  14.999  18.980  0.00  0.00    +0.000 C 
ATOM      8  C   UNL     1       8.920  14.658  18.639  0.00  0.00    +0.000 C 
ATOM      9  C   UNL     1       9.616  15.812  17.998  0.00  0.00    +0.000 C 
ATOM     10  C   UNL     1      10.845  15.346  17.235  0.00  0.00    +0.000 C 
ATOM     11  C   UNL     1      10.978  13.814  17.112  0.00  0.00    +0.000 C 
ATOM     12  C   UNL     1      10.529  12.906  18.354  0.00  0.00    +0.000 C 
ATOM     13  C   UNL     1       9.765  13.686  19.547  0.00  0.00    +0.000 C 
ATOM     14  C   UNL     1      11.039  13.964  20.391  0.00  0.00    +0.000 C 
ATOM     15  C   UNL     1       8.719  12.978  20.653  0.00  0.00    +0.000 C 
ATOM     16  C   UNL     1       9.314  12.294  21.931  0.00  0.00    +0.000 C 
ATOM     17  C   UNL     1       8.266  11.886  22.990  0.00  0.00    +0.000 C 
ATOM     18  C   UNL     1       7.617  13.101  23.685  0.00  0.00    +0.000 C 
ATOM     19  C   UNL     1       8.533  13.643  24.818  0.00  0.00    +0.000 C 
ENDROOT
BRANCH   1  21
ATOM     20  C   UNL     1       5.215  13.112  26.751  0.00  0.00    +0.000 C 
ATOM     21  S   UNL     1       5.997  11.831  25.732  0.00  0.00    +0.000 S 
ENDBRANCH   1  21
BRANCH  10  22
ATOM     22  O   UNL     1      10.828  15.926  15.916  0.00  0.00    +0.000 OA
ATOM     23  H   UNL     1      10.840  16.896  15.998  0.00  0.00    +0.000 HD
ENDBRANCH  10  22
TORSDOF 2
ENDMDL
MODEL 5
REMARK VINA RESULT:      -5.8      1.526      2.903
REMARK  Name = 
REMARK  5 active torsions:
REMARK  status: ('A' for Active; 'I' for Inactive)
REMARK    1  A    between atoms: C_1  and  S_2
REMARK    2  A    between atoms: S_2  and  C_3
REMARK    3  A    between atoms: C_12  and  O_13
REMARK    4  A    between atoms: C_16  and  C_17
REMARK    5  A    between atoms: C_21  and  C_22
REMARK                            x       y       z     vdW  Elec       q    Type
REMARK                         _______ _______ _______ _____ _____    ______ ____
ROOT
ATOM      1  C   UNL     1       6.109  13.795  24.365  0.00  0.00    +0.000 C 
ATOM      2  C   UNL     1       6.064  15.315  24.236  0.00  0.00    +0.000 C 
ATOM      3  C   UNL     1       6.688  15.511  22.866  0.00  0.00    +0.000 C 
ATOM      4  C   UNL     1       7.771  14.396  22.708  0.00  0.00    +0.000 C 
ATOM      5  C   UNL     1       7.722  13.778  21.270  0.00  0.00    +0.000 C 
ATOM      6  C   UNL     1       8.097  14.917  20.347  0.00  0.00    +0.000 C 
ATOM      7  C   UNL     1       8.077  14.420  18.938  0.00  0.00    +0.000 C 
ATOM      8  C   UNL     1       9.277  13.488  18.732  0.00  0.00    +0.000 C 
ATOM      9  C   UNL     1      10.359  14.154  17.950  0.00  0.00    +0.000 C 
ATOM     10  C   UNL     1      11.295  13.125  17.337  0.00  0.00    +0.000 C 
ATOM     11  C   UNL     1      10.814  11.665  17.469  0.00  0.00    +0.000 C 
ATOM     12  C   UNL     1      10.064  11.226  18.816  0.00  0.00    +0.000 C 
ATOM     13  C   UNL     1       9.687  12.431  19.827  0.00  0.00    +0.000 C 
ATOM     14  C   UNL     1      10.980  12.329  20.680  0.00  0.00    +0.000 C 
ATOM     15  C   UNL     1       8.464  12.382  20.976  0.00  0.00    +0.000 C 
ATOM     16  C   UNL     1       8.763  11.747  22.377  0.00  0.00    +0.000 C 
ATOM     17  C   UNL     1       7.656  11.963  23.432  0.00  0.00    +0.000 C 
ATOM     18  C   UNL     1       7.547  13.433  23.888  0.00  0.00    +0.000 C 
ATOM     19  C   UNL     1       8.619  13.758  24.965  0.00  0.00    +0.000 C 
ENDROOT
BRANCH   1  21
ATOM     20  C   UNL     1       5.298  14.893  26.755  0.00  0.00    +0.000 C 
ATOM     21  S   UNL     1       5.590  13.258  26.025  0.00  0.00    +0.000 S 
ENDBRANCH   1  21
BRANCH  10  22
ATOM     22  O   UNL     1      11.486  13.435  15.942  0.00  0.00    +0.000 OA
ATOM     23  H   UNL     1      11.229  12.662  15.409  0.00  0.00    +0.000 HD
ENDBRANCH  10  22
TORSDOF 2
ENDMDL
MODEL 6
REMARK VINA RESULT:      -5.7     11.552     13.227
REMARK  Name = 
REMARK  5 active torsions:
REMARK  status: ('A' for Active; 'I' for Inactive)
REMARK    1  A    between atoms: C_1  and  S_2
REMARK    2  A    between atoms: S_2  and  C_3
REMARK    3  A    between atoms: C_12  and  O_13
REMARK    4  A    between atoms: C_16  and  C_17
REMARK    5  A    between atoms: C_21  and  C_22
REMARK                            x       y       z     vdW  Elec       q    Type
REMARK                         _______ _______ _______ _____ _____    ______ ____
ROOT
ATOM      1  C   UNL     1      -3.532  14.303  23.577  0.00  0.00    +0.000 C 
ATOM      2  C   UNL     1      -4.763  15.117  23.186  0.00  0.00    +0.000 C 
ATOM      3  C   UNL     1      -5.126  14.480  21.856  0.00  0.00    +0.000 C 
ATOM      4  C   UNL     1      -3.778  14.075  21.177  0.00  0.00    +0.000 C 
ATOM      5  C   UNL     1      -3.896  12.658  20.520  0.00  0.00    +0.000 C 
ATOM      6  C   UNL     1      -4.930  12.824  19.427  0.00  0.00    +0.000 C 
ATOM      7  C   UNL     1      -5.114  11.512  18.736  0.00  0.00    +0.000 C 
ATOM      8  C   UNL     1      -3.863  11.224  17.896  0.00  0.00    +0.000 C 
ATOM      9  C   UNL     1      -4.116  11.453  16.443  0.00  0.00    +0.000 C 
ATOM     10  C   UNL     1      -3.089  10.724  15.594  0.00  0.00    +0.000 C 
ATOM     11  C   UNL     1      -2.175   9.762  16.381  0.00  0.00    +0.000 C 
ATOM     12  C   UNL     1      -1.702  10.190  17.852  0.00  0.00    +0.000 C 
ATOM     13  C   UNL     1      -2.419  11.508  18.458  0.00  0.00    +0.000 C 
ATOM     14  C   UNL     1      -1.338  12.511  17.970  0.00  0.00    +0.000 C 
ATOM     15  C   UNL     1      -2.564  11.865  20.091  0.00  0.00    +0.000 C 
ATOM     16  C   UNL     1      -1.378  12.583  20.821  0.00  0.00    +0.000 C 
ATOM     17  C   UNL     1      -1.703  13.075  22.249  0.00  0.00    +0.000 C 
ATOM     18  C   UNL     1      -2.699  14.252  22.261  0.00  0.00    +0.000 C 
ATOM     19  C   UNL     1      -1.971  15.596  21.978  0.00  0.00    +0.000 C 
ENDROOT
BRANCH   1  21
ATOM     20  C   UNL     1      -3.615  16.566  25.141  0.00  0.00    +0.000 C 
ATOM     21  S   UNL     1      -2.742  14.977  25.071  0.00  0.00    +0.000 S 
ENDBRANCH   1  21
BRANCH  10  22
ATOM     22  O   UNL     1      -3.772   9.986  14.561  0.00  0.00    +0.000 OA
ATOM     23  H   UNL     1      -4.588  10.460  14.321  0.00  0.00    +0.000 HD
ENDBRANCH  10  22
TORSDOF 2
ENDMDL
MODEL 7
REMARK VINA RESULT:      -5.6      1.367      1.569
REMARK  Name = 
REMARK  5 active torsions:
REMARK  status: ('A' for Active; 'I' for Inactive)
REMARK    1  A    between atoms: C_1  and  S_2
REMARK    2  A    between atoms: S_2  and  C_3
REMARK    3  A    between atoms: C_12  and  O_13
REMARK    4  A    between atoms: C_16  and  C_17
REMARK    5  A    between atoms: C_21  and  C_22
REMARK                            x       y       z     vdW  Elec       q    Type
REMARK                         _______ _______ _______ _____ _____    ______ ____
ROOT
ATOM      1  C   UNL     1       8.196  12.823  25.127  0.00  0.00    +0.000 C 
ATOM      2  C   UNL     1       7.575  11.581  24.492  0.00  0.00    +0.000 C 
ATOM      3  C   UNL     1       8.054  11.715  23.058  0.00  0.00    +0.000 C 
ATOM      4  C   UNL     1       8.091  13.245  22.744  0.00  0.00    +0.000 C 
ATOM      5  C   UNL     1       9.386  13.613  21.943  0.00  0.00    +0.000 C 
ATOM      6  C   UNL     1       9.248  12.877  20.627  0.00  0.00    +0.000 C 
ATOM      7  C   UNL     1      10.449  13.168  19.786  0.00  0.00    +0.000 C 
ATOM      8  C   UNL     1      10.365  14.622  19.303  0.00  0.00    +0.000 C 
ATOM      9  C   UNL     1       9.964  14.698  17.867  0.00  0.00    +0.000 C 
ATOM     10  C   UNL     1      10.349  16.040  17.269  0.00  0.00    +0.000 C 
ATOM     11  C   UNL     1      11.234  16.917  18.181  0.00  0.00    +0.000 C 
ATOM     12  C   UNL     1      10.957  16.897  19.760  0.00  0.00    +0.000 C 
ATOM     13  C   UNL     1       9.907  15.778  20.270  0.00  0.00    +0.000 C 
ATOM     14  C   UNL     1       8.656  16.697  20.204  0.00  0.00    +0.000 C 
ATOM     15  C   UNL     1       9.841  15.151  21.825  0.00  0.00    +0.000 C 
ATOM     16  C   UNL     1       9.036  15.926  22.924  0.00  0.00    +0.000 C 
ATOM     17  C   UNL     1       8.841  15.152  24.246  0.00  0.00    +0.000 C 
ATOM     18  C   UNL     1       7.886  13.950  24.097  0.00  0.00    +0.000 C 
ATOM     19  C   UNL     1       6.403  14.410  24.162  0.00  0.00    +0.000 C 
ENDROOT
BRANCH   1  21
ATOM     20  C   UNL     1       6.772  11.454  27.044  0.00  0.00    +0.000 C 
ATOM     21  S   UNL     1       7.626  13.041  26.842  0.00  0.00    +0.000 S 
ENDBRANCH   1  21
BRANCH  10  22
ATOM     22  O   UNL     1      11.032  15.820  16.019  0.00  0.00    +0.000 OA
ATOM     23  H   UNL     1      10.893  16.593  15.444  0.00  0.00    +0.000 HD
ENDBRANCH  10  22
TORSDOF 2
ENDMDL
MODEL 8
REMARK VINA RESULT:      -5.6      1.603      3.040
REMARK  Name = 
REMARK  5 active torsions:
REMARK  status: ('A' for Active; 'I' for Inactive)
REMARK    1  A    between atoms: C_1  and  S_2
REMARK    2  A    between atoms: S_2  and  C_3
REMARK    3  A    between atoms: C_12  and  O_13
REMARK    4  A    between atoms: C_16  and  C_17
REMARK    5  A    between atoms: C_21  and  C_22
REMARK                            x       y       z     vdW  Elec       q    Type
REMARK                         _______ _______ _______ _____ _____    ______ ____
ROOT
ATOM      1  C   UNL     1       6.343  15.050  23.528  0.00  0.00    +0.000 C 
ATOM      2  C   UNL     1       6.482  16.542  23.237  0.00  0.00    +0.000 C 
ATOM      3  C   UNL     1       7.231  16.515  21.916  0.00  0.00    +0.000 C 
ATOM      4  C   UNL     1       8.189  15.283  21.976  0.00  0.00    +0.000 C 
ATOM      5  C   UNL     1       8.185  14.513  20.612  0.00  0.00    +0.000 C 
ATOM      6  C   UNL     1       8.759  15.494  19.613  0.00  0.00    +0.000 C 
ATOM      7  C   UNL     1       8.795  14.844  18.267  0.00  0.00    +0.000 C 
ATOM      8  C   UNL     1       9.894  13.774  18.271  0.00  0.00    +0.000 C 
ATOM      9  C   UNL     1      11.103  14.231  17.526  0.00  0.00    +0.000 C 
ATOM     10  C   UNL     1      11.962  13.047  17.113  0.00  0.00    +0.000 C 
ATOM     11  C   UNL     1      11.309  11.669  17.352  0.00  0.00    +0.000 C 
ATOM     12  C   UNL     1      10.410  11.468  18.664  0.00  0.00    +0.000 C 
ATOM     13  C   UNL     1      10.092  12.813  19.504  0.00  0.00    +0.000 C 
ATOM     14  C   UNL     1      11.295  12.674  20.478  0.00  0.00    +0.000 C 
ATOM     15  C   UNL     1       8.785  13.023  20.535  0.00  0.00    +0.000 C 
ATOM     16  C   UNL     1       8.897  12.524  22.016  0.00  0.00    +0.000 C 
ATOM     17  C   UNL     1       7.742  12.973  22.937  0.00  0.00    +0.000 C 
ATOM     18  C   UNL     1       7.764  14.489  23.225  0.00  0.00    +0.000 C 
ATOM     19  C   UNL     1       8.778  14.822  24.355  0.00  0.00    +0.000 C 
ENDROOT
BRANCH   1  21
ATOM     20  C   UNL     1       5.613  16.482  25.762  0.00  0.00    +0.000 C 
ATOM     21  S   UNL     1       5.637  14.764  25.181  0.00  0.00    +0.000 S 
ENDBRANCH   1  21
BRANCH  10  22
ATOM     22  O   UNL     1      12.297  13.174  15.717  0.00  0.00    +0.000 OA
ATOM     23  H   UNL     1      12.742  12.359  15.424  0.00  0.00    +0.000 HD
ENDBRANCH  10  22
TORSDOF 2
ENDMDL
MODEL 9
REMARK VINA RESULT:      -5.5      9.415     10.961
REMARK  Name = 
REMARK  5 active torsions:
REMARK  status: ('A' for Active; 'I' for Inactive)
REMARK    1  A    between atoms: C_1  and  S_2
REMARK    2  A    between atoms: S_2  and  C_3
REMARK    3  A    between atoms: C_12  and  O_13
REMARK    4  A    between atoms: C_16  and  C_17
REMARK    5  A    between atoms: C_21  and  C_22
REMARK                            x       y       z     vdW  Elec       q    Type
REMARK                         _______ _______ _______ _____ _____    ______ ____
ROOT
ATOM      1  C   UNL     1      -2.504  14.061  22.331  0.00  0.00    +0.000 C 
ATOM      2  C   UNL     1      -2.987  13.164  23.469  0.00  0.00    +0.000 C 
ATOM      3  C   UNL     1      -2.109  11.942  23.271  0.00  0.00    +0.000 C 
ATOM      4  C   UNL     1      -1.896  11.794  21.730  0.00  0.00    +0.000 C 
ATOM      5  C   UNL     1      -0.407  11.428  21.411  0.00  0.00    +0.000 C 
ATOM      6  C   UNL     1      -0.203  10.064  22.036  0.00  0.00    +0.000 C 
ATOM      7  C   UNL     1       1.204   9.626  21.783  0.00  0.00    +0.000 C 
ATOM      8  C   UNL     1       1.346   9.275  20.297  0.00  0.00    +0.000 C 
ATOM      9  C   UNL     1       1.379   7.798  20.085  0.00  0.00    +0.000 C 
ATOM     10  C   UNL     1       1.996   7.460  18.738  0.00  0.00    +0.000 C 
ATOM     11  C   UNL     1       2.630   8.661  18.005  0.00  0.00    +0.000 C 
ATOM     12  C   UNL     1       1.911  10.090  18.116  0.00  0.00    +0.000 C 
ATOM     13  C   UNL     1       0.696  10.177  19.180  0.00  0.00    +0.000 C 
ATOM     14  C   UNL     1      -0.428   9.848  18.160  0.00  0.00    +0.000 C 
ATOM     15  C   UNL     1       0.150  11.586  19.911  0.00  0.00    +0.000 C 
ATOM     16  C   UNL     1      -0.891  12.480  19.155  0.00  0.00    +0.000 C 
ATOM     17  C   UNL     1      -1.502  13.617  20.004  0.00  0.00    +0.000 C 
ATOM     18  C   UNL     1      -2.440  13.095  21.111  0.00  0.00    +0.000 C 
ATOM     19  C   UNL     1      -3.851  12.782  20.538  0.00  0.00    +0.000 C 
ENDROOT
BRANCH   1  21
ATOM     20  C   UNL     1      -4.747  15.169  23.477  0.00  0.00    +0.000 C 
ATOM     21  S   UNL     1      -3.529  15.559  22.192  0.00  0.00    +0.000 S 
ENDBRANCH   1  21
BRANCH  10  22
ATOM     22  O   UNL     1       2.995   6.438  18.921  0.00  0.00    +0.000 OA
ATOM     23  H   UNL     1       2.551   5.592  19.109  0.00  0.00    +0.000 HD
ENDBRANCH  10  22
TORSDOF 2
ENDMDL
