MODEL 1
REMARK VINA RESULT:      -9.4      0.000      0.000
REMARK  Name = 
REMARK  8 active torsions:
REMARK  status: ('A' for Active; 'I' for Inactive)
REMARK    1  A    between atoms: C_2  and  O_3
REMARK    2  A    between atoms: C_2  and  C_4
REMARK    3  A    between atoms: C_7  and  C_8
REMARK    4  A    between atoms: C_8  and  N_9
REMARK    5  A    between atoms: C_12  and  C_13
REMARK    6  A    between atoms: C_13  and  N_14
REMARK    7  A    between atoms: C_15  and  C_17
REMARK    8  A    between atoms: C_23  and  C_24
REMARK                            x       y       z     vdW  Elec       q    Type
REMARK                         _______ _______ _______ _____ _____    ______ ____
ROOT
ATOM      1  N   UNK     1       1.824   6.782  21.209  0.00  0.00    +0.000 N 
ATOM      2  C   UNK     1       1.704   7.928  20.445  0.00  0.00    +0.000 C 
ATOM      3  O   UNK     1       2.149   8.027  19.306  0.00  0.00    +0.000 OA
ATOM      4  H   UNK     1       1.371   6.814  22.121  0.00  0.00    +0.000 HD
ENDROOT
BRANCH   2   5
ATOM      5  C   UNK     1       0.996   9.028  21.126  0.00  0.00    +0.000 A 
ATOM      6  N   UNK     1       1.330   9.422  22.375  0.00  0.00    +0.000 NA
ATOM      7  N   UNK     1       0.486  10.442  22.623  0.00  0.00    +0.000 N 
ATOM      8  C   UNK     1      -0.369  10.733  21.598  0.00  0.00    +0.000 A 
ATOM      9  C   UNK     1      -1.356  11.707  21.462  0.00  0.00    +0.000 A 
ATOM     10  C   UNK     1      -2.058  11.743  20.246  0.00  0.00    +0.000 A 
ATOM     11  C   UNK     1      -1.824  10.830  19.200  0.00  0.00    +0.000 A 
ATOM     12  C   UNK     1      -0.821   9.854  19.404  0.00  0.00    +0.000 A 
ATOM     13  C   UNK     1      -0.077   9.813  20.604  0.00  0.00    +0.000 A 
ATOM     14  H   UNK     1       0.549  10.912  23.519  0.00  0.00    +0.000 HD
BRANCH  11  15
ATOM     15  C   UNK     1      -2.586  10.895  17.923  0.00  0.00    +0.000 A 
ATOM     16  C   UNK     1      -2.054  10.355  16.731  0.00  0.00    +0.000 A 
ATOM     17  C   UNK     1      -2.755  10.396  15.518  0.00  0.00    +0.000 A 
ATOM     18  C   UNK     1      -4.007  10.997  15.458  0.00  0.00    +0.000 A 
ATOM     19  C   UNK     1      -4.547  11.545  16.613  0.00  0.00    +0.000 A 
ATOM     20  F   UNK     1      -5.752  12.131  16.554  0.00  0.00    +0.000 F 
ATOM     21  C   UNK     1      -3.857  11.492  17.824  0.00  0.00    +0.000 A 
ATOM     22  F   UNK     1      -4.453  12.020  18.906  0.00  0.00    +0.000 F 
ENDBRANCH  11  15
ENDBRANCH   2   5
BRANCH   1  23
ATOM     23  C   UNK     1       2.389   5.554  20.698  0.00  0.00    +0.000 C 
BRANCH  23  27
ATOM     24  N   UNK     1       2.500   2.289  18.982  0.00  0.00    +0.000 NA
ATOM     25  C   UNK     1       3.161   2.549  20.274  0.00  0.00    +0.000 C 
ATOM     26  C   UNK     1       2.202   3.075  21.340  0.00  0.00    +0.000 C 
ATOM     27  C   UNK     1       1.465   4.334  20.879  0.00  0.00    +0.000 C 
ATOM     28  C   UNK     1       0.743   3.989  19.568  0.00  0.00    +0.000 C 
ATOM     29  C   UNK     1       1.699   3.429  18.507  0.00  0.00    +0.000 C 
BRANCH  24  30
ATOM     30  C   UNK     1       3.509   1.937  17.944  0.00  0.00    +0.000 C 
BRANCH  30  34
ATOM     31  C   UNK     1       5.378   4.711  16.586  0.00  0.00    +0.000 A 
ATOM     32  C   UNK     1       5.871   4.617  17.862  0.00  0.00    +0.000 A 
ATOM     33  O   UNK     1       5.251   3.574  18.482  0.00  0.00    +0.000 OA
ATOM     34  C   UNK     1       4.391   3.082  17.535  0.00  0.00    +0.000 A 
ATOM     35  N   UNK     1       4.443   3.709  16.371  0.00  0.00    +0.000 NA
BRANCH  31  37
ATOM     36  O   UNK     1       5.108   6.719  15.360  0.00  0.00    +0.000 OA
ATOM     37  C   UNK     1       5.721   5.686  15.572  0.00  0.00    +0.000 C 
BRANCH  37  38
ATOM     38  O   UNK     1       6.826   5.317  14.861  0.00  0.00    +0.000 OA
ATOM     39  H   UNK     1       7.332   6.134  14.651  0.00  0.00    +0.000 HD
ENDBRANCH  37  38
ENDBRANCH  31  37
ENDBRANCH  30  34
ENDBRANCH  24  30
ENDBRANCH  23  27
ENDBRANCH   1  23
TORSDOF 8
ENDMDL
MODEL 2
REMARK VINA RESULT:      -9.4      2.920      4.221
REMARK  Name = 
REMARK  8 active torsions:
REMARK  status: ('A' for Active; 'I' for Inactive)
REMARK    1  A    between atoms: C_2  and  O_3
REMARK    2  A    between atoms: C_2  and  C_4
REMARK    3  A    between atoms: C_7  and  C_8
REMARK    4  A    between atoms: C_8  and  N_9
REMARK    5  A    between atoms: C_12  and  C_13
REMARK    6  A    between atoms: C_13  and  N_14
REMARK    7  A    between atoms: C_15  and  C_17
REMARK    8  A    between atoms: C_23  and  C_24
REMARK                            x       y       z     vdW  Elec       q    Type
REMARK                         _______ _______ _______ _____ _____    ______ ____
ROOT
ATOM      1  N   UNK     1       1.883   6.970  20.142  0.00  0.00    +0.000 N 
ATOM      2  C   UNK     1       1.464   8.148  20.734  0.00  0.00    +0.000 C 
ATOM      3  O   UNK     1       1.355   8.288  21.948  0.00  0.00    +0.000 OA
ATOM      4  H   UNK     1       1.975   6.998  19.128  0.00  0.00    +0.000 HD
ENDROOT
BRANCH   2   5
ATOM      5  C   UNK     1       1.153   9.221  19.772  0.00  0.00    +0.000 A 
ATOM      6  N   UNK     1       1.565   9.165  18.486  0.00  0.00    +0.000 NA
ATOM      7  N   UNK     1       1.070  10.293  17.944  0.00  0.00    +0.000 N 
ATOM      8  C   UNK     1       0.354  11.072  18.808  0.00  0.00    +0.000 A 
ATOM      9  C   UNK     1      -0.319  12.279  18.629  0.00  0.00    +0.000 A 
ATOM     10  C   UNK     1      -0.981  12.815  19.746  0.00  0.00    +0.000 A 
ATOM     11  C   UNK     1      -0.961  12.204  21.014  0.00  0.00    +0.000 A 
ATOM     12  C   UNK     1      -0.248  10.989  21.136  0.00  0.00    +0.000 A 
ATOM     13  C   UNK     1       0.401  10.409  20.024  0.00  0.00    +0.000 A 
ATOM     14  H   UNK     1       1.250  10.475  16.963  0.00  0.00    +0.000 HD
BRANCH  11  15
ATOM     15  C   UNK     1      -1.675  12.798  22.177  0.00  0.00    +0.000 A 
ATOM     16  C   UNK     1      -2.972  12.366  22.533  0.00  0.00    +0.000 A 
ATOM     17  C   UNK     1      -3.661  12.904  23.629  0.00  0.00    +0.000 A 
ATOM     18  C   UNK     1      -3.076  13.906  24.394  0.00  0.00    +0.000 A 
ATOM     19  C   UNK     1      -1.807  14.355  24.060  0.00  0.00    +0.000 A 
ATOM     20  F   UNK     1      -1.245  15.327  24.793  0.00  0.00    +0.000 F 
ATOM     21  C   UNK     1      -1.114  13.811  22.978  0.00  0.00    +0.000 A 
ATOM     22  F   UNK     1       0.121  14.277  22.729  0.00  0.00    +0.000 F 
ENDBRANCH  11  15
ENDBRANCH   2   5
BRANCH   1  23
ATOM     23  C   UNK     1       2.337   5.828  20.903  0.00  0.00    +0.000 C 
BRANCH  23  27
ATOM     24  N   UNK     1       2.913   2.671  19.081  0.00  0.00    +0.000 NA
ATOM     25  C   UNK     1       3.227   2.852  20.510  0.00  0.00    +0.000 C 
ATOM     26  C   UNK     1       2.026   3.315  21.331  0.00  0.00    +0.000 C 
ATOM     27  C   UNK     1       1.412   4.602  20.775  0.00  0.00    +0.000 C 
ATOM     28  C   UNK     1       1.045   4.338  19.308  0.00  0.00    +0.000 C 
ATOM     29  C   UNK     1       2.242   3.840  18.488  0.00  0.00    +0.000 C 
BRANCH  24  30
ATOM     30  C   UNK     1       4.153   2.379  18.310  0.00  0.00    +0.000 C 
BRANCH  30  34
ATOM     31  C   UNK     1       6.557   5.067  18.468  0.00  0.00    +0.000 A 
ATOM     32  C   UNK     1       6.160   5.101  17.156  0.00  0.00    +0.000 A 
ATOM     33  O   UNK     1       5.220   4.133  16.972  0.00  0.00    +0.000 OA
ATOM     34  C   UNK     1       5.096   3.544  18.202  0.00  0.00    +0.000 A 
ATOM     35  N   UNK     1       5.856   4.080  19.144  0.00  0.00    +0.000 NA
BRANCH  31  37
ATOM     36  O   UNK     1       8.079   6.876  18.615  0.00  0.00    +0.000 OA
ATOM     37  C   UNK     1       7.558   5.891  19.113  0.00  0.00    +0.000 C 
BRANCH  37  38
ATOM     38  O   UNK     1       7.865   5.439  20.363  0.00  0.00    +0.000 OA
ATOM     39  H   UNK     1       7.673   4.474  20.387  0.00  0.00    +0.000 HD
ENDBRANCH  37  38
ENDBRANCH  31  37
ENDBRANCH  30  34
ENDBRANCH  24  30
ENDBRANCH  23  27
ENDBRANCH   1  23
TORSDOF 8
ENDMDL
MODEL 3
REMARK VINA RESULT:      -9.3      1.366      1.712
REMARK  Name = 
REMARK  8 active torsions:
REMARK  status: ('A' for Active; 'I' for Inactive)
REMARK    1  A    between atoms: C_2  and  O_3
REMARK    2  A    between atoms: C_2  and  C_4
REMARK    3  A    between atoms: C_7  and  C_8
REMARK    4  A    between atoms: C_8  and  N_9
REMARK    5  A    between atoms: C_12  and  C_13
REMARK    6  A    between atoms: C_13  and  N_14
REMARK    7  A    between atoms: C_15  and  C_17
REMARK    8  A    between atoms: C_23  and  C_24
REMARK                            x       y       z     vdW  Elec       q    Type
REMARK                         _______ _______ _______ _____ _____    ______ ____
ROOT
ATOM      1  N   UNK     1       1.642   6.879  21.031  0.00  0.00    +0.000 N 
ATOM      2  C   UNK     1       1.671   8.095  20.373  0.00  0.00    +0.000 C 
ATOM      3  O   UNK     1       2.250   8.268  19.306  0.00  0.00    +0.000 OA
ATOM      4  H   UNK     1       1.089   6.857  21.886  0.00  0.00    +0.000 HD
ENDROOT
BRANCH   2   5
ATOM      5  C   UNK     1       0.949   9.171  21.076  0.00  0.00    +0.000 A 
ATOM      6  N   UNK     1       1.291   9.560  22.325  0.00  0.00    +0.000 NA
ATOM      7  N   UNK     1       0.428  10.558  22.595  0.00  0.00    +0.000 N 
ATOM      8  C   UNK     1      -0.449  10.840  21.585  0.00  0.00    +0.000 A 
ATOM      9  C   UNK     1      -1.459  11.793  21.473  0.00  0.00    +0.000 A 
ATOM     10  C   UNK     1      -2.179  11.825  20.268  0.00  0.00    +0.000 A 
ATOM     11  C   UNK     1      -1.938  10.928  19.209  0.00  0.00    +0.000 A 
ATOM     12  C   UNK     1      -0.911   9.974  19.388  0.00  0.00    +0.000 A 
ATOM     13  C   UNK     1      -0.149   9.937  20.577  0.00  0.00    +0.000 A 
ATOM     14  H   UNK     1       0.493  11.019  23.495  0.00  0.00    +0.000 HD
BRANCH  11  15
ATOM     15  C   UNK     1      -2.719  10.990  17.943  0.00  0.00    +0.000 A 
ATOM     16  C   UNK     1      -3.970  11.646  17.891  0.00  0.00    +0.000 A 
ATOM     17  C   UNK     1      -4.720  11.724  16.710  0.00  0.00    +0.000 A 
ATOM     18  C   UNK     1      -4.247  11.132  15.545  0.00  0.00    +0.000 A 
ATOM     19  C   UNK     1      -3.027  10.472  15.572  0.00  0.00    +0.000 A 
ATOM     20  F   UNK     1      -2.573   9.894  14.450  0.00  0.00    +0.000 F 
ATOM     21  C   UNK     1      -2.272  10.406  16.743  0.00  0.00    +0.000 A 
ATOM     22  F   UNK     1      -1.088   9.773  16.688  0.00  0.00    +0.000 F 
ENDBRANCH  11  15
ENDBRANCH   2   5
BRANCH   1  23
ATOM     23  C   UNK     1       2.197   5.669  20.468  0.00  0.00    +0.000 C 
BRANCH  23  27
ATOM     24  N   UNK     1       2.587   2.218  19.222  0.00  0.00    +0.000 NA
ATOM     25  C   UNK     1       3.301   2.740  20.401  0.00  0.00    +0.000 C 
ATOM     26  C   UNK     1       2.363   3.308  21.464  0.00  0.00    +0.000 C 
ATOM     27  C   UNK     1       1.445   4.394  20.899  0.00  0.00    +0.000 C 
ATOM     28  C   UNK     1       0.680   3.779  19.718  0.00  0.00    +0.000 C 
ATOM     29  C   UNK     1       1.619   3.178  18.664  0.00  0.00    +0.000 C 
BRANCH  24  30
ATOM     30  C   UNK     1       3.555   1.831  18.158  0.00  0.00    +0.000 C 
BRANCH  30  34
ATOM     31  C   UNK     1       5.880   4.427  17.220  0.00  0.00    +0.000 A 
ATOM     32  C   UNK     1       4.899   4.551  16.271  0.00  0.00    +0.000 A 
ATOM     33  O   UNK     1       3.934   3.626  16.534  0.00  0.00    +0.000 OA
ATOM     34  C   UNK     1       4.391   2.969  17.647  0.00  0.00    +0.000 A 
ATOM     35  N   UNK     1       5.541   3.424  18.116  0.00  0.00    +0.000 NA
BRANCH  31  37
ATOM     36  O   UNK     1       7.452   6.074  16.566  0.00  0.00    +0.000 OA
ATOM     37  C   UNK     1       7.113   5.180  17.324  0.00  0.00    +0.000 C 
BRANCH  37  38
ATOM     38  O   UNK     1       7.873   4.773  18.382  0.00  0.00    +0.000 OA
ATOM     39  H   UNK     1       8.279   3.909  18.143  0.00  0.00    +0.000 HD
ENDBRANCH  37  38
ENDBRANCH  31  37
ENDBRANCH  30  34
ENDBRANCH  24  30
ENDBRANCH  23  27
ENDBRANCH   1  23
TORSDOF 8
ENDMDL
MODEL 4
REMARK VINA RESULT:      -9.3      1.194      1.434
REMARK  Name = 
REMARK  8 active torsions:
REMARK  status: ('A' for Active; 'I' for Inactive)
REMARK    1  A    between atoms: C_2  and  O_3
REMARK    2  A    between atoms: C_2  and  C_4
REMARK    3  A    between atoms: C_7  and  C_8
REMARK    4  A    between atoms: C_8  and  N_9
REMARK    5  A    between atoms: C_12  and  C_13
REMARK    6  A    between atoms: C_13  and  N_14
REMARK    7  A    between atoms: C_15  and  C_17
REMARK    8  A    between atoms: C_23  and  C_24
REMARK                            x       y       z     vdW  Elec       q    Type
REMARK                         _______ _______ _______ _____ _____    ______ ____
ROOT
ATOM      1  N   UNK     1       1.723   6.853  21.173  0.00  0.00    +0.000 N 
ATOM      2  C   UNK     1       1.636   7.991  20.392  0.00  0.00    +0.000 C 
ATOM      3  O   UNK     1       2.106   8.067  19.261  0.00  0.00    +0.000 OA
ATOM      4  H   UNK     1       1.253   6.904  22.075  0.00  0.00    +0.000 HD
ENDROOT
BRANCH   2   5
ATOM      5  C   UNK     1       0.934   9.110  21.045  0.00  0.00    +0.000 A 
ATOM      6  N   UNK     1       1.268   9.534  22.284  0.00  0.00    +0.000 NA
ATOM      7  N   UNK     1       0.429  10.564  22.505  0.00  0.00    +0.000 N 
ATOM      8  C   UNK     1      -0.424  10.833  21.473  0.00  0.00    +0.000 A 
ATOM      9  C   UNK     1      -1.406  11.808  21.312  0.00  0.00    +0.000 A 
ATOM     10  C   UNK     1      -2.107  11.817  20.095  0.00  0.00    +0.000 A 
ATOM     11  C   UNK     1      -1.877  10.877  19.073  0.00  0.00    +0.000 A 
ATOM     12  C   UNK     1      -0.879   9.902  19.301  0.00  0.00    +0.000 A 
ATOM     13  C   UNK     1      -0.135   9.887  20.502  0.00  0.00    +0.000 A 
ATOM     14  H   UNK     1       0.494  11.055  23.389  0.00  0.00    +0.000 HD
BRANCH  11  15
ATOM     15  C   UNK     1      -2.638  10.914  17.794  0.00  0.00    +0.000 A 
ATOM     16  C   UNK     1      -3.849  11.634  17.689  0.00  0.00    +0.000 A 
ATOM     17  C   UNK     1      -4.579  11.691  16.493  0.00  0.00    +0.000 A 
ATOM     18  C   UNK     1      -4.126  11.013  15.368  0.00  0.00    +0.000 A 
ATOM     19  C   UNK     1      -2.945  10.289  15.448  0.00  0.00    +0.000 A 
ATOM     20  F   UNK     1      -2.510   9.629  14.365  0.00  0.00    +0.000 F 
ATOM     21  C   UNK     1      -2.209  10.243  16.633  0.00  0.00    +0.000 A 
ATOM     22  F   UNK     1      -1.062   9.545  16.628  0.00  0.00    +0.000 F 
ENDBRANCH  11  15
ENDBRANCH   2   5
BRANCH   1  23
ATOM     23  C   UNK     1       2.278   5.609  20.688  0.00  0.00    +0.000 C 
BRANCH  23  27
ATOM     24  N   UNK     1       2.512   2.212  19.268  0.00  0.00    +0.000 NA
ATOM     25  C   UNK     1       3.101   2.591  20.565  0.00  0.00    +0.000 C 
ATOM     26  C   UNK     1       2.082   3.191  21.531  0.00  0.00    +0.000 C 
ATOM     27  C   UNK     1       1.357   4.396  20.926  0.00  0.00    +0.000 C 
ATOM     28  C   UNK     1       0.710   3.929  19.614  0.00  0.00    +0.000 C 
ATOM     29  C   UNK     1       1.726   3.295  18.655  0.00  0.00    +0.000 C 
BRANCH  24  30
ATOM     30  C   UNK     1       3.578   1.787  18.318  0.00  0.00    +0.000 C 
BRANCH  30  34
ATOM     31  C   UNK     1       5.545   4.452  16.883  0.00  0.00    +0.000 A 
ATOM     32  C   UNK     1       5.946   4.460  18.194  0.00  0.00    +0.000 A 
ATOM     33  O   UNK     1       5.282   3.467  18.848  0.00  0.00    +0.000 OA
ATOM     34  C   UNK     1       4.490   2.899  17.884  0.00  0.00    +0.000 A 
ATOM     35  N   UNK     1       4.625   3.433  16.681  0.00  0.00    +0.000 NA
BRANCH  31  37
ATOM     36  O   UNK     1       6.652   6.340  15.977  0.00  0.00    +0.000 OA
ATOM     37  C   UNK     1       5.961   5.346  15.822  0.00  0.00    +0.000 C 
BRANCH  37  38
ATOM     38  O   UNK     1       5.486   4.952  14.606  0.00  0.00    +0.000 OA
ATOM     39  H   UNK     1       6.048   5.371  13.916  0.00  0.00    +0.000 HD
ENDBRANCH  37  38
ENDBRANCH  31  37
ENDBRANCH  30  34
ENDBRANCH  24  30
ENDBRANCH  23  27
ENDBRANCH   1  23
TORSDOF 8
ENDMDL
MODEL 5
REMARK VINA RESULT:      -9.2      2.699      3.931
REMARK  Name = 
REMARK  8 active torsions:
REMARK  status: ('A' for Active; 'I' for Inactive)
REMARK    1  A    between atoms: C_2  and  O_3
REMARK    2  A    between atoms: C_2  and  C_4
REMARK    3  A    between atoms: C_7  and  C_8
REMARK    4  A    between atoms: C_8  and  N_9
REMARK    5  A    between atoms: C_12  and  C_13
REMARK    6  A    between atoms: C_13  and  N_14
REMARK    7  A    between atoms: C_15  and  C_17
REMARK    8  A    between atoms: C_23  and  C_24
REMARK                            x       y       z     vdW  Elec       q    Type
REMARK                         _______ _______ _______ _____ _____    ______ ____
ROOT
ATOM      1  N   UNK     1       1.721   6.865  20.084  0.00  0.00    +0.000 N 
ATOM      2  C   UNK     1       1.489   8.104  20.653  0.00  0.00    +0.000 C 
ATOM      3  O   UNK     1       1.586   8.320  21.856  0.00  0.00    +0.000 OA
ATOM      4  H   UNK     1       1.650   6.829  19.069  0.00  0.00    +0.000 HD
ENDROOT
BRANCH   2   5
ATOM      5  C   UNK     1       1.105   9.144  19.681  0.00  0.00    +0.000 A 
ATOM      6  N   UNK     1       1.452   9.061  18.376  0.00  0.00    +0.000 NA
ATOM      7  N   UNK     1       0.905  10.164  17.832  0.00  0.00    +0.000 N 
ATOM      8  C   UNK     1       0.219  10.953  18.712  0.00  0.00    +0.000 A 
ATOM      9  C   UNK     1      -0.488  12.140  18.537  0.00  0.00    +0.000 A 
ATOM     10  C   UNK     1      -1.102  12.694  19.672  0.00  0.00    +0.000 A 
ATOM     11  C   UNK     1      -1.004  12.118  20.953  0.00  0.00    +0.000 A 
ATOM     12  C   UNK     1      -0.260  10.921  21.070  0.00  0.00    +0.000 A 
ATOM     13  C   UNK     1       0.343  10.324  19.941  0.00  0.00    +0.000 A 
ATOM     14  H   UNK     1       1.031  10.323  16.838  0.00  0.00    +0.000 HD
BRANCH  11  15
ATOM     15  C   UNK     1      -1.668  12.729  22.136  0.00  0.00    +0.000 A 
ATOM     16  C   UNK     1      -2.963  12.326  22.532  0.00  0.00    +0.000 A 
ATOM     17  C   UNK     1      -3.606  12.881  23.648  0.00  0.00    +0.000 A 
ATOM     18  C   UNK     1      -2.977  13.871  24.392  0.00  0.00    +0.000 A 
ATOM     19  C   UNK     1      -1.709  14.293  24.018  0.00  0.00    +0.000 A 
ATOM     20  F   UNK     1      -1.104  15.254  24.731  0.00  0.00    +0.000 F 
ATOM     21  C   UNK     1      -1.061  13.731  22.916  0.00  0.00    +0.000 A 
ATOM     22  F   UNK     1       0.175  14.171  22.629  0.00  0.00    +0.000 F 
ENDBRANCH  11  15
ENDBRANCH   2   5
BRANCH   1  23
ATOM     23  C   UNK     1       2.207   5.734  20.840  0.00  0.00    +0.000 C 
BRANCH  23  27
ATOM     24  N   UNK     1       2.744   2.458  19.228  0.00  0.00    +0.000 NA
ATOM     25  C   UNK     1       3.057   2.726  20.643  0.00  0.00    +0.000 C 
ATOM     26  C   UNK     1       1.861   3.258  21.429  0.00  0.00    +0.000 C 
ATOM     27  C   UNK     1       1.265   4.514  20.789  0.00  0.00    +0.000 C 
ATOM     28  C   UNK     1       0.898   4.160  19.341  0.00  0.00    +0.000 C 
ATOM     29  C   UNK     1       2.090   3.595  18.559  0.00  0.00    +0.000 C 
BRANCH  24  30
ATOM     30  C   UNK     1       3.981   2.100  18.482  0.00  0.00    +0.000 C 
BRANCH  30  34
ATOM     31  C   UNK     1       5.756   4.921  17.096  0.00  0.00    +0.000 A 
ATOM     32  C   UNK     1       6.145   4.943  18.410  0.00  0.00    +0.000 A 
ATOM     33  O   UNK     1       5.551   3.895  19.046  0.00  0.00    +0.000 OA
ATOM     34  C   UNK     1       4.812   3.282  18.069  0.00  0.00    +0.000 A 
ATOM     35  N   UNK     1       4.917   3.839  16.874  0.00  0.00    +0.000 NA
BRANCH  31  37
ATOM     36  O   UNK     1       5.325   6.569  15.450  0.00  0.00    +0.000 OA
ATOM     37  C   UNK     1       6.114   5.857  16.050  0.00  0.00    +0.000 C 
BRANCH  37  38
ATOM     38  O   UNK     1       7.454   5.854  15.798  0.00  0.00    +0.000 OA
ATOM     39  H   UNK     1       7.660   5.042  15.282  0.00  0.00    +0.000 HD
ENDBRANCH  37  38
ENDBRANCH  31  37
ENDBRANCH  30  34
ENDBRANCH  24  30
ENDBRANCH  23  27
ENDBRANCH   1  23
TORSDOF 8
ENDMDL
MODEL 6
REMARK VINA RESULT:      -9.1      3.055      3.756
REMARK  Name = 
REMARK  8 active torsions:
REMARK  status: ('A' for Active; 'I' for Inactive)
REMARK    1  A    between atoms: C_2  and  O_3
REMARK    2  A    between atoms: C_2  and  C_4
REMARK    3  A    between atoms: C_7  and  C_8
REMARK    4  A    between atoms: C_8  and  N_9
REMARK    5  A    between atoms: C_12  and  C_13
REMARK    6  A    between atoms: C_13  and  N_14
REMARK    7  A    between atoms: C_15  and  C_17
REMARK    8  A    between atoms: C_23  and  C_24
REMARK                            x       y       z     vdW  Elec       q    Type
REMARK                         _______ _______ _______ _____ _____    ______ ____
ROOT
ATOM      1  N   UNK     1       1.370   7.049  21.291  0.00  0.00    +0.000 N 
ATOM      2  C   UNK     1       1.144   8.309  20.769  0.00  0.00    +0.000 C 
ATOM      3  O   UNK     1       1.582   8.675  19.683  0.00  0.00    +0.000 OA
ATOM      4  H   UNK     1       0.914   6.855  22.181  0.00  0.00    +0.000 HD
ENDROOT
BRANCH   2   5
ATOM      5  C   UNK     1       0.334   9.180  21.641  0.00  0.00    +0.000 A 
ATOM      6  N   UNK     1      -0.398   8.680  22.662  0.00  0.00    +0.000 NA
ATOM      7  N   UNK     1      -0.958   9.773  23.215  0.00  0.00    +0.000 N 
ATOM      8  C   UNK     1      -0.622  10.951  22.611  0.00  0.00    +0.000 A 
ATOM      9  C   UNK     1      -0.972  12.270  22.893  0.00  0.00    +0.000 A 
ATOM     10  C   UNK     1      -0.428  13.268  22.067  0.00  0.00    +0.000 A 
ATOM     11  C   UNK     1       0.413  12.982  20.974  0.00  0.00    +0.000 A 
ATOM     12  C   UNK     1       0.719  11.623  20.730  0.00  0.00    +0.000 A 
ATOM     13  C   UNK     1       0.212  10.601  21.561  0.00  0.00    +0.000 A 
ATOM     14  H   UNK     1      -1.564   9.648  24.018  0.00  0.00    +0.000 HD
BRANCH  11  15
ATOM     15  C   UNK     1       0.973  14.063  20.119  0.00  0.00    +0.000 A 
ATOM     16  C   UNK     1       2.370  14.218  19.964  0.00  0.00    +0.000 A 
ATOM     17  C   UNK     1       2.922  15.222  19.157  0.00  0.00    +0.000 A 
ATOM     18  C   UNK     1       2.091  16.116  18.492  0.00  0.00    +0.000 A 
ATOM     19  C   UNK     1       0.716  15.993  18.637  0.00  0.00    +0.000 A 
ATOM     20  F   UNK     1      -0.086  16.860  18.002  0.00  0.00    +0.000 F 
ATOM     21  C   UNK     1       0.164  14.985  19.428  0.00  0.00    +0.000 A 
ATOM     22  F   UNK     1      -1.175  14.911  19.500  0.00  0.00    +0.000 F 
ENDBRANCH  11  15
ENDBRANCH   2   5
BRANCH   1  23
ATOM     23  C   UNK     1       2.050   6.006  20.557  0.00  0.00    +0.000 C 
BRANCH  23  27
ATOM     24  N   UNK     1       2.967   2.817  18.943  0.00  0.00    +0.000 NA
ATOM     25  C   UNK     1       3.433   3.210  20.286  0.00  0.00    +0.000 C 
ATOM     26  C   UNK     1       2.288   3.542  21.240  0.00  0.00    +0.000 C 
ATOM     27  C   UNK     1       1.369   4.629  20.679  0.00  0.00    +0.000 C 
ATOM     28  C   UNK     1       0.863   4.141  19.314  0.00  0.00    +0.000 C 
ATOM     29  C   UNK     1       2.010   3.775  18.364  0.00  0.00    +0.000 C 
BRANCH  24  30
ATOM     30  C   UNK     1       4.123   2.665  18.017  0.00  0.00    +0.000 C 
BRANCH  30  34
ATOM     31  C   UNK     1       6.593   5.262  18.448  0.00  0.00    +0.000 A 
ATOM     32  C   UNK     1       6.100   5.526  17.196  0.00  0.00    +0.000 A 
ATOM     33  O   UNK     1       5.127   4.614  16.921  0.00  0.00    +0.000 OA
ATOM     34  C   UNK     1       5.082   3.822  18.038  0.00  0.00    +0.000 A 
ATOM     35  N   UNK     1       5.921   4.180  18.996  0.00  0.00    +0.000 NA
BRANCH  31  37
ATOM     36  O   UNK     1       8.277   6.908  18.705  0.00  0.00    +0.000 OA
ATOM     37  C   UNK     1       7.657   5.954  19.146  0.00  0.00    +0.000 C 
BRANCH  37  38
ATOM     38  O   UNK     1       7.900   5.411  20.374  0.00  0.00    +0.000 OA
ATOM     39  H   UNK     1       7.671   4.455  20.328  0.00  0.00    +0.000 HD
ENDBRANCH  37  38
ENDBRANCH  31  37
ENDBRANCH  30  34
ENDBRANCH  24  30
ENDBRANCH  23  27
ENDBRANCH   1  23
TORSDOF 8
ENDMDL
MODEL 7
REMARK VINA RESULT:      -9.0      6.307     10.492
REMARK  Name = 
REMARK  8 active torsions:
REMARK  status: ('A' for Active; 'I' for Inactive)
REMARK    1  A    between atoms: C_2  and  O_3
REMARK    2  A    between atoms: C_2  and  C_4
REMARK    3  A    between atoms: C_7  and  C_8
REMARK    4  A    between atoms: C_8  and  N_9
REMARK    5  A    between atoms: C_12  and  C_13
REMARK    6  A    between atoms: C_13  and  N_14
REMARK    7  A    between atoms: C_15  and  C_17
REMARK    8  A    between atoms: C_23  and  C_24
REMARK                            x       y       z     vdW  Elec       q    Type
REMARK                         _______ _______ _______ _____ _____    ______ ____
ROOT
ATOM      1  N   UNK     1       8.214   8.730  17.957  0.00  0.00    +0.000 N 
ATOM      2  C   UNK     1       8.035   7.397  18.278  0.00  0.00    +0.000 C 
ATOM      3  O   UNK     1       8.367   6.916  19.357  0.00  0.00    +0.000 OA
ATOM      4  H   UNK     1       7.855   9.012  17.046  0.00  0.00    +0.000 HD
ENDROOT
BRANCH   2   5
ATOM      5  C   UNK     1       7.416   6.601  17.203  0.00  0.00    +0.000 A 
ATOM      6  N   UNK     1       7.905   6.607  15.942  0.00  0.00    +0.000 NA
ATOM      7  N   UNK     1       7.096   5.756  15.283  0.00  0.00    +0.000 N 
ATOM      8  C   UNK     1       6.115   5.195  16.052  0.00  0.00    +0.000 A 
ATOM      9  C   UNK     1       5.115   4.272  15.751  0.00  0.00    +0.000 A 
ATOM     10  C   UNK     1       4.263   3.887  16.798  0.00  0.00    +0.000 A 
ATOM     11  C   UNK     1       4.366   4.411  18.101  0.00  0.00    +0.000 A 
ATOM     12  C   UNK     1       5.390   5.356  18.340  0.00  0.00    +0.000 A 
ATOM     13  C   UNK     1       6.282   5.740  17.315  0.00  0.00    +0.000 A 
ATOM     14  H   UNK     1       7.271   5.591  14.299  0.00  0.00    +0.000 HD
BRANCH  11  15
ATOM     15  C   UNK     1       3.446   3.980  19.189  0.00  0.00    +0.000 A 
ATOM     16  C   UNK     1       3.791   2.917  20.054  0.00  0.00    +0.000 A 
ATOM     17  C   UNK     1       2.947   2.498  21.091  0.00  0.00    +0.000 A 
ATOM     18  C   UNK     1       1.720   3.123  21.285  0.00  0.00    +0.000 A 
ATOM     19  C   UNK     1       1.353   4.162  20.443  0.00  0.00    +0.000 A 
ATOM     20  F   UNK     1       0.167   4.761  20.624  0.00  0.00    +0.000 F 
ATOM     21  C   UNK     1       2.199   4.590  19.419  0.00  0.00    +0.000 A 
ATOM     22  F   UNK     1       1.788   5.620  18.660  0.00  0.00    +0.000 F 
ENDBRANCH  11  15
ENDBRANCH   2   5
BRANCH   1  23
ATOM     23  C   UNK     1       8.706   9.706  18.902  0.00  0.00    +0.000 C 
BRANCH  23  27
ATOM     24  N   UNK     1       9.210  13.317  19.468  0.00  0.00    +0.000 NA
ATOM     25  C   UNK     1       9.895  12.271  20.248  0.00  0.00    +0.000 C 
ATOM     26  C   UNK     1      10.673  11.288  19.375  0.00  0.00    +0.000 C 
ATOM     27  C   UNK     1       9.785  10.636  18.313  0.00  0.00    +0.000 C 
ATOM     28  C   UNK     1       9.149  11.767  17.490  0.00  0.00    +0.000 C 
ATOM     29  C   UNK     1       8.395  12.774  18.368  0.00  0.00    +0.000 C 
BRANCH  24  30
ATOM     30  C   UNK     1       8.343  14.141  20.354  0.00  0.00    +0.000 C 
BRANCH  30  34
ATOM     31  C   UNK     1       5.750  16.033  18.702  0.00  0.00    +0.000 A 
ATOM     32  C   UNK     1       6.826  16.880  18.632  0.00  0.00    +0.000 A 
ATOM     33  O   UNK     1       7.892  16.261  19.211  0.00  0.00    +0.000 OA
ATOM     34  C   UNK     1       7.400  15.049  19.617  0.00  0.00    +0.000 A 
ATOM     35  N   UNK     1       6.127  14.847  19.316  0.00  0.00    +0.000 NA
BRANCH  31  37
ATOM     36  O   UNK     1       3.684  17.188  18.623  0.00  0.00    +0.000 OA
ATOM     37  C   UNK     1       4.398  16.275  18.242  0.00  0.00    +0.000 C 
BRANCH  37  38
ATOM     38  O   UNK     1       3.999  15.354  17.318  0.00  0.00    +0.000 OA
ATOM     39  H   UNK     1       3.763  15.838  16.496  0.00  0.00    +0.000 HD
ENDBRANCH  37  38
ENDBRANCH  31  37
ENDBRANCH  30  34
ENDBRANCH  24  30
ENDBRANCH  23  27
ENDBRANCH   1  23
TORSDOF 8
ENDMDL
MODEL 8
REMARK VINA RESULT:      -9.0      3.376      4.044
REMARK  Name = 
REMARK  8 active torsions:
REMARK  status: ('A' for Active; 'I' for Inactive)
REMARK    1  A    between atoms: C_2  and  O_3
REMARK    2  A    between atoms: C_2  and  C_4
REMARK    3  A    between atoms: C_7  and  C_8
REMARK    4  A    between atoms: C_8  and  N_9
REMARK    5  A    between atoms: C_12  and  C_13
REMARK    6  A    between atoms: C_13  and  N_14
REMARK    7  A    between atoms: C_15  and  C_17
REMARK    8  A    between atoms: C_23  and  C_24
REMARK                            x       y       z     vdW  Elec       q    Type
REMARK                         _______ _______ _______ _____ _____    ______ ____
ROOT
ATOM      1  N   UNK     1       1.282   7.074  21.248  0.00  0.00    +0.000 N 
ATOM      2  C   UNK     1       1.119   8.357  20.759  0.00  0.00    +0.000 C 
ATOM      3  O   UNK     1       1.611   8.741  19.703  0.00  0.00    +0.000 OA
ATOM      4  H   UNK     1       0.785   6.869  22.113  0.00  0.00    +0.000 HD
ENDROOT
BRANCH   2   5
ATOM      5  C   UNK     1       0.306   9.228  21.627  0.00  0.00    +0.000 A 
ATOM      6  N   UNK     1      -0.414   8.731  22.659  0.00  0.00    +0.000 NA
ATOM      7  N   UNK     1      -0.983   9.823  23.204  0.00  0.00    +0.000 N 
ATOM      8  C   UNK     1      -0.665  10.999  22.584  0.00  0.00    +0.000 A 
ATOM      9  C   UNK     1      -1.027  12.317  22.854  0.00  0.00    +0.000 A 
ATOM     10  C   UNK     1      -0.501  13.311  22.013  0.00  0.00    +0.000 A 
ATOM     11  C   UNK     1       0.334  13.023  20.917  0.00  0.00    +0.000 A 
ATOM     12  C   UNK     1       0.655  11.665  20.686  0.00  0.00    +0.000 A 
ATOM     13  C   UNK     1       0.166  10.646  21.532  0.00  0.00    +0.000 A 
ATOM     14  H   UNK     1      -1.580   9.701  24.013  0.00  0.00    +0.000 HD
BRANCH  11  15
ATOM     15  C   UNK     1       0.876  14.101  20.046  0.00  0.00    +0.000 A 
ATOM     16  C   UNK     1       0.248  15.365  19.976  0.00  0.00    +0.000 A 
ATOM     17  C   UNK     1       0.744  16.399  19.170  0.00  0.00    +0.000 A 
ATOM     18  C   UNK     1       1.877  16.192  18.393  0.00  0.00    +0.000 A 
ATOM     19  C   UNK     1       2.507  14.956  18.434  0.00  0.00    +0.000 A 
ATOM     20  F   UNK     1       3.596  14.754  17.679  0.00  0.00    +0.000 F 
ATOM     21  C   UNK     1       2.023  13.931  19.248  0.00  0.00    +0.000 A 
ATOM     22  F   UNK     1       2.699  12.770  19.257  0.00  0.00    +0.000 F 
ENDBRANCH  11  15
ENDBRANCH   2   5
BRANCH   1  23
ATOM     23  C   UNK     1       1.955   6.032  20.508  0.00  0.00    +0.000 C 
BRANCH  23  27
ATOM     24  N   UNK     1       2.978   2.800  19.049  0.00  0.00    +0.000 NA
ATOM     25  C   UNK     1       3.392   3.252  20.390  0.00  0.00    +0.000 C 
ATOM     26  C   UNK     1       2.211   3.600  21.294  0.00  0.00    +0.000 C 
ATOM     27  C   UNK     1       1.293   4.648  20.661  0.00  0.00    +0.000 C 
ATOM     28  C   UNK     1       0.840   4.099  19.300  0.00  0.00    +0.000 C 
ATOM     29  C   UNK     1       2.024   3.717  18.403  0.00  0.00    +0.000 C 
BRANCH  24  30
ATOM     30  C   UNK     1       4.166   2.633  18.168  0.00  0.00    +0.000 C 
BRANCH  30  34
ATOM     31  C   UNK     1       6.578   5.300  18.485  0.00  0.00    +0.000 A 
ATOM     32  C   UNK     1       5.987   5.576  17.279  0.00  0.00    +0.000 A 
ATOM     33  O   UNK     1       5.025   4.638  17.052  0.00  0.00    +0.000 OA
ATOM     34  C   UNK     1       5.087   3.820  18.149  0.00  0.00    +0.000 A 
ATOM     35  N   UNK     1       5.982   4.183  19.053  0.00  0.00    +0.000 NA
BRANCH  31  37
ATOM     36  O   UNK     1       8.234   6.985  18.655  0.00  0.00    +0.000 OA
ATOM     37  C   UNK     1       7.668   6.010  19.122  0.00  0.00    +0.000 C 
BRANCH  37  38
ATOM     38  O   UNK     1       8.004   5.459  20.324  0.00  0.00    +0.000 OA
ATOM     39  H   UNK     1       7.920   6.161  21.008  0.00  0.00    +0.000 HD
ENDBRANCH  37  38
ENDBRANCH  31  37
ENDBRANCH  30  34
ENDBRANCH  24  30
ENDBRANCH  23  27
ENDBRANCH   1  23
TORSDOF 8
ENDMDL
MODEL 9
REMARK VINA RESULT:      -8.9      2.131      3.344
REMARK  Name = 
REMARK  8 active torsions:
REMARK  status: ('A' for Active; 'I' for Inactive)
REMARK    1  A    between atoms: C_2  and  O_3
REMARK    2  A    between atoms: C_2  and  C_4
REMARK    3  A    between atoms: C_7  and  C_8
REMARK    4  A    between atoms: C_8  and  N_9
REMARK    5  A    between atoms: C_12  and  C_13
REMARK    6  A    between atoms: C_13  and  N_14
REMARK    7  A    between atoms: C_15  and  C_17
REMARK    8  A    between atoms: C_23  and  C_24
REMARK                            x       y       z     vdW  Elec       q    Type
REMARK                         _______ _______ _______ _____ _____    ______ ____
ROOT
ATOM      1  N   UNK     1       1.459   7.074  20.144  0.00  0.00    +0.000 N 
ATOM      2  C   UNK     1       1.304   8.321  20.720  0.00  0.00    +0.000 C 
ATOM      3  O   UNK     1       1.380   8.517  21.929  0.00  0.00    +0.000 OA
ATOM      4  H   UNK     1       1.417   7.054  19.127  0.00  0.00    +0.000 HD
ENDROOT
BRANCH   2   5
ATOM      5  C   UNK     1       1.031   9.397  19.751  0.00  0.00    +0.000 A 
ATOM      6  N   UNK     1       1.679   9.468  18.566  0.00  0.00    +0.000 NA
ATOM      7  N   UNK     1       1.142  10.552  17.974  0.00  0.00    +0.000 N 
ATOM      8  C   UNK     1       0.177  11.181  18.709  0.00  0.00    +0.000 A 
ATOM      9  C   UNK     1      -0.611  12.298  18.442  0.00  0.00    +0.000 A 
ATOM     10  C   UNK     1      -1.536  12.680  19.426  0.00  0.00    +0.000 A 
ATOM     11  C   UNK     1      -1.668  12.005  20.655  0.00  0.00    +0.000 A 
ATOM     12  C   UNK     1      -0.829  10.888  20.875  0.00  0.00    +0.000 A 
ATOM     13  C   UNK     1       0.089  10.462  19.890  0.00  0.00    +0.000 A 
ATOM     14  H   UNK     1       1.475  10.810  17.052  0.00  0.00    +0.000 HD
BRANCH  11  15
ATOM     15  C   UNK     1      -2.660  12.435  21.678  0.00  0.00    +0.000 A 
ATOM     16  C   UNK     1      -2.272  12.661  23.018  0.00  0.00    +0.000 A 
ATOM     17  C   UNK     1      -3.186  13.075  23.997  0.00  0.00    +0.000 A 
ATOM     18  C   UNK     1      -4.523  13.259  23.668  0.00  0.00    +0.000 A 
ATOM     19  C   UNK     1      -4.932  13.033  22.362  0.00  0.00    +0.000 A 
ATOM     20  F   UNK     1      -6.224  13.203  22.044  0.00  0.00    +0.000 F 
ATOM     21  C   UNK     1      -4.022  12.636  21.382  0.00  0.00    +0.000 A 
ATOM     22  F   UNK     1      -4.485  12.461  20.133  0.00  0.00    +0.000 F 
ENDBRANCH  11  15
ENDBRANCH   2   5
BRANCH   1  23
ATOM     23  C   UNK     1       1.834   5.901  20.900  0.00  0.00    +0.000 C 
BRANCH  23  27
ATOM     24  N   UNK     1       3.123   2.747  19.483  0.00  0.00    +0.000 NA
ATOM     25  C   UNK     1       2.909   2.960  20.926  0.00  0.00    +0.000 C 
ATOM     26  C   UNK     1       1.480   3.383  21.261  0.00  0.00    +0.000 C 
ATOM     27  C   UNK     1       1.056   4.635  20.490  0.00  0.00    +0.000 C 
ATOM     28  C   UNK     1       1.237   4.336  18.995  0.00  0.00    +0.000 C 
ATOM     29  C   UNK     1       2.663   3.879  18.660  0.00  0.00    +0.000 C 
BRANCH  24  30
ATOM     30  C   UNK     1       4.565   2.498  19.203  0.00  0.00    +0.000 C 
BRANCH  30  34
ATOM     31  C   UNK     1       6.130   5.161  17.335  0.00  0.00    +0.000 A 
ATOM     32  C   UNK     1       6.320   5.558  18.634  0.00  0.00    +0.000 A 
ATOM     33  O   UNK     1       5.785   4.609  19.451  0.00  0.00    +0.000 OA
ATOM     34  C   UNK     1       5.281   3.668  18.591  0.00  0.00    +0.000 A 
ATOM     35  N   UNK     1       5.482   3.935  17.311  0.00  0.00    +0.000 NA
BRANCH  31  37
ATOM     36  O   UNK     1       7.525   5.662  15.488  0.00  0.00    +0.000 OA
ATOM     37  C   UNK     1       6.506   5.867  16.128  0.00  0.00    +0.000 C 
BRANCH  37  38
ATOM     38  O   UNK     1       5.582   6.807  15.776  0.00  0.00    +0.000 OA
ATOM     39  H   UNK     1       5.404   7.362  16.568  0.00  0.00    +0.000 HD
ENDBRANCH  37  38
ENDBRANCH  31  37
ENDBRANCH  30  34
ENDBRANCH  24  30
ENDBRANCH  23  27
ENDBRANCH   1  23
TORSDOF 8
ENDMDL
