MODEL 1
REMARK VINA RESULT:      -7.1      0.000      0.000
REMARK  Name = 
REMARK  3 active torsions:
REMARK  status: ('A' for Active; 'I' for Inactive)
REMARK    1  A    between atoms: C_2  and  C_3
REMARK    2  A    between atoms: C_3  and  N_4
REMARK    3  A    between atoms: N_10  and  C_11
REMARK                            x       y       z     vdW  Elec       q    Type
REMARK                         _______ _______ _______ _____ _____    ______ ____
ROOT
ATOM      1  O   UNL     1       2.449   3.533  16.712  0.00  0.00    +0.000 OA
ATOM      2  C   UNL     1       2.999   2.922  17.633  0.00  0.00    +0.000 C 
ATOM      3  N   UNL     1       4.375   2.955  17.877  0.00  0.00    +0.000 N 
ATOM      4  H   UNL     1       4.639   2.882  18.839  0.00  0.00    +0.000 HD
ENDROOT
BRANCH   3   5
ATOM      5  C   UNL     1       5.245   3.685  17.048  0.00  0.00    +0.000 A 
ATOM      6  C   UNL     1       5.293   3.331  15.682  0.00  0.00    +0.000 A 
ATOM      7  C   UNL     1       6.077   4.052  14.765  0.00  0.00    +0.000 A 
ATOM      8  C   UNL     1       6.780   5.179  15.182  0.00  0.00    +0.000 A 
ATOM      9  C   UNL     1       6.736   5.494  16.531  0.00  0.00    +0.000 A 
ATOM     10  C   UNL     1       6.019   4.753  17.477  0.00  0.00    +0.000 A 
ATOM     11  C   UNL     1       6.290   5.305  18.840  0.00  0.00    +0.000 C 
ATOM     12  N   UNL     1       7.125   6.450  18.565  0.00  0.00    +0.000 N 
ATOM     13  C   UNL     1       7.388   6.607  17.231  0.00  0.00    +0.000 C 
ATOM     14  O   UNL     1       7.992   7.517  16.698  0.00  0.00    +0.000 OA
ATOM     15  H   UNL     1       7.370   7.170  19.229  0.00  0.00    +0.000 HD
ENDBRANCH   3   5
BRANCH   2  16
ATOM     16  C   UNL     1       2.190   2.192  18.709  0.00  0.00    +0.000 C 
BRANCH  16  17
ATOM     17  N   UNL     1       1.158   3.018  19.387  0.00  0.00    +0.000 NA
ATOM     18  C   UNL     1       1.473   4.466  19.453  0.00  0.00    +0.000 C 
ATOM     19  C   UNL     1       2.683   4.805  20.345  0.00  0.00    +0.000 C 
ATOM     20  O   UNL     1       2.492   4.314  21.682  0.00  0.00    +0.000 OA
ATOM     21  C   UNL     1       2.247   2.901  21.675  0.00  0.00    +0.000 C 
ATOM     22  C   UNL     1       1.023   2.559  20.800  0.00  0.00    +0.000 C 
ENDBRANCH  16  17
ENDBRANCH   2  16
TORSDOF 3
ENDMDL
MODEL 2
REMARK VINA RESULT:      -7.0      1.386      2.281
REMARK  Name = 
REMARK  3 active torsions:
REMARK  status: ('A' for Active; 'I' for Inactive)
REMARK    1  A    between atoms: C_2  and  C_3
REMARK    2  A    between atoms: C_3  and  N_4
REMARK    3  A    between atoms: N_10  and  C_11
REMARK                            x       y       z     vdW  Elec       q    Type
REMARK                         _______ _______ _______ _____ _____    ______ ____
ROOT
ATOM      1  O   UNL     1       2.749   4.218  17.121  0.00  0.00    +0.000 OA
ATOM      2  C   UNL     1       3.295   3.431  17.899  0.00  0.00    +0.000 C 
ATOM      3  N   UNL     1       4.649   3.484  18.239  0.00  0.00    +0.000 N 
ATOM      4  H   UNL     1       4.867   3.189  19.170  0.00  0.00    +0.000 HD
ENDROOT
BRANCH   3   5
ATOM      5  C   UNL     1       5.504   4.448  17.677  0.00  0.00    +0.000 A 
ATOM      6  C   UNL     1       5.978   5.472  18.526  0.00  0.00    +0.000 A 
ATOM      7  C   UNL     1       6.895   6.435  18.072  0.00  0.00    +0.000 A 
ATOM      8  C   UNL     1       7.406   6.358  16.777  0.00  0.00    +0.000 A 
ATOM      9  C   UNL     1       6.909   5.358  15.956  0.00  0.00    +0.000 A 
ATOM     10  C   UNL     1       5.945   4.429  16.362  0.00  0.00    +0.000 A 
ATOM     11  C   UNL     1       5.561   3.580  15.193  0.00  0.00    +0.000 C 
ATOM     12  N   UNL     1       6.444   4.045  14.151  0.00  0.00    +0.000 N 
ATOM     13  C   UNL     1       7.260   5.063  14.562  0.00  0.00    +0.000 C 
ATOM     14  O   UNL     1       8.153   5.598  13.933  0.00  0.00    +0.000 OA
ATOM     15  H   UNL     1       6.592   3.590  13.261  0.00  0.00    +0.000 HD
ENDBRANCH   3   5
BRANCH   2  16
ATOM     16  C   UNL     1       2.486   2.409  18.704  0.00  0.00    +0.000 C 
BRANCH  16  17
ATOM     17  N   UNL     1       1.311   2.963  19.423  0.00  0.00    +0.000 NA
ATOM     18  C   UNL     1       1.450   4.383  19.829  0.00  0.00    +0.000 C 
ATOM     19  C   UNL     1       2.530   4.626  20.902  0.00  0.00    +0.000 C 
ATOM     20  O   UNL     1       2.279   3.834  22.074  0.00  0.00    +0.000 OA
ATOM     21  C   UNL     1       2.200   2.442  21.740  0.00  0.00    +0.000 C 
ATOM     22  C   UNL     1       1.105   2.191  20.682  0.00  0.00    +0.000 C 
ENDBRANCH  16  17
ENDBRANCH   2  16
TORSDOF 3
ENDMDL
MODEL 3
REMARK VINA RESULT:      -7.0      4.172      6.810
REMARK  Name = 
REMARK  3 active torsions:
REMARK  status: ('A' for Active; 'I' for Inactive)
REMARK    1  A    between atoms: C_2  and  C_3
REMARK    2  A    between atoms: C_3  and  N_4
REMARK    3  A    between atoms: N_10  and  C_11
REMARK                            x       y       z     vdW  Elec       q    Type
REMARK                         _______ _______ _______ _____ _____    ______ ____
ROOT
ATOM      1  O   UNL     1       1.911   5.677  17.903  0.00  0.00    +0.000 OA
ATOM      2  C   UNL     1       2.984   5.935  18.457  0.00  0.00    +0.000 C 
ATOM      3  N   UNL     1       3.134   6.911  19.446  0.00  0.00    +0.000 N 
ATOM      4  H   UNL     1       3.828   6.711  20.140  0.00  0.00    +0.000 HD
ENDROOT
BRANCH   3   5
ATOM      5  C   UNL     1       2.049   7.702  19.862  0.00  0.00    +0.000 A 
ATOM      6  C   UNL     1       1.384   7.322  21.048  0.00  0.00    +0.000 A 
ATOM      7  C   UNL     1       0.336   8.093  21.580  0.00  0.00    +0.000 A 
ATOM      8  C   UNL     1      -0.026   9.293  20.973  0.00  0.00    +0.000 A 
ATOM      9  C   UNL     1       0.627   9.634  19.799  0.00  0.00    +0.000 A 
ATOM     10  C   UNL     1       1.625   8.850  19.210  0.00  0.00    +0.000 A 
ATOM     11  C   UNL     1       2.018   9.458  17.902  0.00  0.00    +0.000 C 
ATOM     12  N   UNL     1       1.237  10.672  17.862  0.00  0.00    +0.000 N 
ATOM     13  C   UNL     1       0.433  10.822  18.958  0.00  0.00    +0.000 C 
ATOM     14  O   UNL     1      -0.272  11.773  19.236  0.00  0.00    +0.000 OA
ATOM     15  H   UNL     1       1.363  11.428  17.205  0.00  0.00    +0.000 HD
ENDBRANCH   3   5
BRANCH   2  16
ATOM     16  C   UNL     1       4.232   5.080  18.225  0.00  0.00    +0.000 C 
BRANCH  16  17
ATOM     17  N   UNL     1       4.736   5.070  16.828  0.00  0.00    +0.000 NA
ATOM     18  C   UNL     1       5.916   4.199  16.604  0.00  0.00    +0.000 C 
ATOM     19  C   UNL     1       7.194   4.677  17.322  0.00  0.00    +0.000 C 
ATOM     20  O   UNL     1       7.532   6.019  16.935  0.00  0.00    +0.000 OA
ATOM     21  C   UNL     1       6.441   6.913  17.192  0.00  0.00    +0.000 C 
ATOM     22  C   UNL     1       5.165   6.450  16.458  0.00  0.00    +0.000 C 
ENDBRANCH  16  17
ENDBRANCH   2  16
TORSDOF 3
ENDMDL
MODEL 4
REMARK VINA RESULT:      -6.9      3.955      6.662
REMARK  Name = 
REMARK  3 active torsions:
REMARK  status: ('A' for Active; 'I' for Inactive)
REMARK    1  A    between atoms: C_2  and  C_3
REMARK    2  A    between atoms: C_3  and  N_4
REMARK    3  A    between atoms: N_10  and  C_11
REMARK                            x       y       z     vdW  Elec       q    Type
REMARK                         _______ _______ _______ _____ _____    ______ ____
ROOT
ATOM      1  O   UNL     1       2.007   4.910  18.022  0.00  0.00    +0.000 OA
ATOM      2  C   UNL     1       3.068   5.529  17.902  0.00  0.00    +0.000 C 
ATOM      3  N   UNL     1       3.320   6.764  18.505  0.00  0.00    +0.000 N 
ATOM      4  H   UNL     1       4.272   6.923  18.770  0.00  0.00    +0.000 HD
ENDROOT
BRANCH   3   5
ATOM      5  C   UNL     1       2.343   7.409  19.283  0.00  0.00    +0.000 A 
ATOM      6  C   UNL     1       1.903   6.752  20.452  0.00  0.00    +0.000 A 
ATOM      7  C   UNL     1       0.984   7.352  21.330  0.00  0.00    +0.000 A 
ATOM      8  C   UNL     1       0.535   8.649  21.090  0.00  0.00    +0.000 A 
ATOM      9  C   UNL     1       0.964   9.266  19.926  0.00  0.00    +0.000 A 
ATOM     10  C   UNL     1       1.823   8.664  19.000  0.00  0.00    +0.000 A 
ATOM     11  C   UNL     1       1.977   9.564  17.817  0.00  0.00    +0.000 C 
ATOM     12  N   UNL     1       1.221  10.734  18.199  0.00  0.00    +0.000 N 
ATOM     13  C   UNL     1       0.636  10.608  19.430  0.00  0.00    +0.000 C 
ATOM     14  O   UNL     1       0.010  11.452  20.042  0.00  0.00    +0.000 OA
ATOM     15  H   UNL     1       1.235  11.623  17.721  0.00  0.00    +0.000 HD
ENDBRANCH   3   5
BRANCH   2  16
ATOM     16  C   UNL     1       4.283   4.911  17.206  0.00  0.00    +0.000 C 
BRANCH  16  17
ATOM     17  N   UNL     1       5.244   5.888  16.635  0.00  0.00    +0.000 NA
ATOM     18  C   UNL     1       5.799   5.506  15.313  0.00  0.00    +0.000 C 
ATOM     19  C   UNL     1       6.708   4.261  15.350  0.00  0.00    +0.000 C 
ATOM     20  O   UNL     1       7.796   4.445  16.271  0.00  0.00    +0.000 OA
ATOM     21  C   UNL     1       7.306   4.755  17.582  0.00  0.00    +0.000 C 
ATOM     22  C   UNL     1       6.413   6.012  17.553  0.00  0.00    +0.000 C 
ENDBRANCH  16  17
ENDBRANCH   2  16
TORSDOF 3
ENDMDL
MODEL 5
REMARK VINA RESULT:      -6.9      3.751      4.415
REMARK  Name = 
REMARK  3 active torsions:
REMARK  status: ('A' for Active; 'I' for Inactive)
REMARK    1  A    between atoms: C_2  and  C_3
REMARK    2  A    between atoms: C_3  and  N_4
REMARK    3  A    between atoms: N_10  and  C_11
REMARK                            x       y       z     vdW  Elec       q    Type
REMARK                         _______ _______ _______ _____ _____    ______ ____
ROOT
ATOM      1  O   UNL     1       2.211   7.537  18.255  0.00  0.00    +0.000 OA
ATOM      2  C   UNL     1       2.360   7.151  19.418  0.00  0.00    +0.000 C 
ATOM      3  N   UNL     1       3.126   6.039  19.777  0.00  0.00    +0.000 N 
ATOM      4  H   UNL     1       3.581   6.104  20.667  0.00  0.00    +0.000 HD
ENDROOT
BRANCH   3   5
ATOM      5  C   UNL     1       3.770   5.252  18.807  0.00  0.00    +0.000 A 
ATOM      6  C   UNL     1       2.955   4.490  17.941  0.00  0.00    +0.000 A 
ATOM      7  C   UNL     1       3.506   3.732  16.894  0.00  0.00    +0.000 A 
ATOM      8  C   UNL     1       4.878   3.769  16.651  0.00  0.00    +0.000 A 
ATOM      9  C   UNL     1       5.659   4.506  17.528  0.00  0.00    +0.000 A 
ATOM     10  C   UNL     1       5.143   5.214  18.619  0.00  0.00    +0.000 A 
ATOM     11  C   UNL     1       6.275   5.789  19.408  0.00  0.00    +0.000 C 
ATOM     12  N   UNL     1       7.433   5.428  18.625  0.00  0.00    +0.000 N 
ATOM     13  C   UNL     1       7.113   4.701  17.511  0.00  0.00    +0.000 C 
ATOM     14  O   UNL     1       7.864   4.327  16.630  0.00  0.00    +0.000 OA
ATOM     15  H   UNL     1       8.366   5.790  18.757  0.00  0.00    +0.000 HD
ENDBRANCH   3   5
BRANCH   2  16
ATOM     16  C   UNL     1       1.844   7.967  20.606  0.00  0.00    +0.000 C 
BRANCH  16  17
ATOM     17  N   UNL     1       0.495   8.559  20.424  0.00  0.00    +0.000 NA
ATOM     18  C   UNL     1       0.497   9.984  20.009  0.00  0.00    +0.000 C 
ATOM     19  C   UNL     1       1.044  10.948  21.079  0.00  0.00    +0.000 C 
ATOM     20  O   UNL     1       0.309  10.827  22.308  0.00  0.00    +0.000 OA
ATOM     21  C   UNL     1       0.331   9.475  22.784  0.00  0.00    +0.000 C 
ATOM     22  C   UNL     1      -0.236   8.508  21.723  0.00  0.00    +0.000 C 
ENDBRANCH  16  17
ENDBRANCH   2  16
TORSDOF 3
ENDMDL
MODEL 6
REMARK VINA RESULT:      -6.8      4.552      5.373
REMARK  Name = 
REMARK  3 active torsions:
REMARK  status: ('A' for Active; 'I' for Inactive)
REMARK    1  A    between atoms: C_2  and  C_3
REMARK    2  A    between atoms: C_3  and  N_4
REMARK    3  A    between atoms: N_10  and  C_11
REMARK                            x       y       z     vdW  Elec       q    Type
REMARK                         _______ _______ _______ _____ _____    ______ ____
ROOT
ATOM      1  O   UNL     1       2.216   7.412  19.777  0.00  0.00    +0.000 OA
ATOM      2  C   UNL     1       2.328   8.115  18.768  0.00  0.00    +0.000 C 
ATOM      3  N   UNL     1       3.049   7.738  17.633  0.00  0.00    +0.000 N 
ATOM      4  H   UNL     1       2.688   8.081  16.765  0.00  0.00    +0.000 HD
ENDROOT
BRANCH   3   5
ATOM      5  C   UNL     1       3.735   6.512  17.578  0.00  0.00    +0.000 A 
ATOM      6  C   UNL     1       2.976   5.333  17.736  0.00  0.00    +0.000 A 
ATOM      7  C   UNL     1       3.563   4.061  17.623  0.00  0.00    +0.000 A 
ATOM      8  C   UNL     1       4.909   3.941  17.286  0.00  0.00    +0.000 A 
ATOM      9  C   UNL     1       5.640   5.112  17.158  0.00  0.00    +0.000 A 
ATOM     10  C   UNL     1       5.095   6.389  17.334  0.00  0.00    +0.000 A 
ATOM     11  C   UNL     1       6.188   7.405  17.238  0.00  0.00    +0.000 C 
ATOM     12  N   UNL     1       7.344   6.606  16.906  0.00  0.00    +0.000 N 
ATOM     13  C   UNL     1       7.061   5.270  16.828  0.00  0.00    +0.000 C 
ATOM     14  O   UNL     1       7.810   4.373  16.493  0.00  0.00    +0.000 OA
ATOM     15  H   UNL     1       8.236   6.966  16.597  0.00  0.00    +0.000 HD
ENDBRANCH   3   5
BRANCH   2  16
ATOM     16  C   UNL     1       1.536   9.415  18.605  0.00  0.00    +0.000 C 
BRANCH  16  17
ATOM     17  N   UNL     1       0.444   9.614  19.592  0.00  0.00    +0.000 NA
ATOM     18  C   UNL     1      -0.782  10.238  19.037  0.00  0.00    +0.000 C 
ATOM     19  C   UNL     1      -0.593  11.699  18.583  0.00  0.00    +0.000 C 
ATOM     20  O   UNL     1      -0.108  12.515  19.661  0.00  0.00    +0.000 OA
ATOM     21  C   UNL     1       1.114  11.986  20.190  0.00  0.00    +0.000 C 
ATOM     22  C   UNL     1       0.924  10.531  20.666  0.00  0.00    +0.000 C 
ENDBRANCH  16  17
ENDBRANCH   2  16
TORSDOF 3
ENDMDL
MODEL 7
REMARK VINA RESULT:      -6.7      4.594      6.761
REMARK  Name = 
REMARK  3 active torsions:
REMARK  status: ('A' for Active; 'I' for Inactive)
REMARK    1  A    between atoms: C_2  and  C_3
REMARK    2  A    between atoms: C_3  and  N_4
REMARK    3  A    between atoms: N_10  and  C_11
REMARK                            x       y       z     vdW  Elec       q    Type
REMARK                         _______ _______ _______ _____ _____    ______ ____
ROOT
ATOM      1  O   UNL     1       0.754   5.589  20.642  0.00  0.00    +0.000 OA
ATOM      2  C   UNL     1       1.919   5.907  20.383  0.00  0.00    +0.000 C 
ATOM      3  N   UNL     1       2.383   7.224  20.378  0.00  0.00    +0.000 N 
ATOM      4  H   UNL     1       3.338   7.341  20.655  0.00  0.00    +0.000 HD
ENDROOT
BRANCH   3   5
ATOM      5  C   UNL     1       1.523   8.302  20.648  0.00  0.00    +0.000 A 
ATOM      6  C   UNL     1       1.104   8.483  21.983  0.00  0.00    +0.000 A 
ATOM      7  C   UNL     1       0.303   9.575  22.360  0.00  0.00    +0.000 A 
ATOM      8  C   UNL     1      -0.042  10.545  21.421  0.00  0.00    +0.000 A 
ATOM      9  C   UNL     1       0.363  10.335  20.112  0.00  0.00    +0.000 A 
ATOM     10  C   UNL     1       1.101   9.221  19.697  0.00  0.00    +0.000 A 
ATOM     11  C   UNL     1       1.257   9.262  18.211  0.00  0.00    +0.000 C 
ATOM     12  N   UNL     1       0.637  10.516  17.855  0.00  0.00    +0.000 N 
ATOM     13  C   UNL     1       0.126  11.181  18.936  0.00  0.00    +0.000 C 
ATOM     14  O   UNL     1      -0.379  12.287  18.955  0.00  0.00    +0.000 OA
ATOM     15  H   UNL     1       0.700  10.966  16.953  0.00  0.00    +0.000 HD
ENDBRANCH   3   5
BRANCH   2  16
ATOM     16  C   UNL     1       3.016   4.854  20.202  0.00  0.00    +0.000 C 
BRANCH  16  17
ATOM     17  N   UNL     1       3.444   4.626  18.799  0.00  0.00    +0.000 NA
ATOM     18  C   UNL     1       2.370   4.143  17.897  0.00  0.00    +0.000 C 
ATOM     19  C   UNL     1       1.862   2.726  18.230  0.00  0.00    +0.000 C 
ATOM     20  O   UNL     1       2.938   1.775  18.216  0.00  0.00    +0.000 OA
ATOM     21  C   UNL     1       3.977   2.168  19.123  0.00  0.00    +0.000 C 
ATOM     22  C   UNL     1       4.504   3.577  18.780  0.00  0.00    +0.000 C 
ENDBRANCH  16  17
ENDBRANCH   2  16
TORSDOF 3
ENDMDL
MODEL 8
REMARK VINA RESULT:      -6.7      1.712      2.980
REMARK  Name = 
REMARK  3 active torsions:
REMARK  status: ('A' for Active; 'I' for Inactive)
REMARK    1  A    between atoms: C_2  and  C_3
REMARK    2  A    between atoms: C_3  and  N_4
REMARK    3  A    between atoms: N_10  and  C_11
REMARK                            x       y       z     vdW  Elec       q    Type
REMARK                         _______ _______ _______ _____ _____    ______ ____
ROOT
ATOM      1  O   UNL     1       3.596   5.128  19.429  0.00  0.00    +0.000 OA
ATOM      2  C   UNL     1       4.125   4.018  19.537  0.00  0.00    +0.000 C 
ATOM      3  N   UNL     1       5.365   3.690  18.982  0.00  0.00    +0.000 N 
ATOM      4  H   UNL     1       5.904   3.028  19.504  0.00  0.00    +0.000 HD
ENDROOT
BRANCH   3   5
ATOM      5  C   UNL     1       6.093   4.621  18.220  0.00  0.00    +0.000 A 
ATOM      6  C   UNL     1       6.753   5.656  18.915  0.00  0.00    +0.000 A 
ATOM      7  C   UNL     1       7.564   6.588  18.245  0.00  0.00    +0.000 A 
ATOM      8  C   UNL     1       7.782   6.466  16.875  0.00  0.00    +0.000 A 
ATOM      9  C   UNL     1       7.106   5.455  16.210  0.00  0.00    +0.000 A 
ATOM     10  C   UNL     1       6.239   4.557  16.842  0.00  0.00    +0.000 A 
ATOM     11  C   UNL     1       5.599   3.686  15.809  0.00  0.00    +0.000 C 
ATOM     12  N   UNL     1       6.244   4.105  14.588  0.00  0.00    +0.000 N 
ATOM     13  C   UNL     1       7.144   5.116  14.783  0.00  0.00    +0.000 C 
ATOM     14  O   UNL     1       7.887   5.615  13.960  0.00  0.00    +0.000 OA
ATOM     15  H   UNL     1       6.190   3.623  13.701  0.00  0.00    +0.000 HD
ENDBRANCH   3   5
BRANCH   2  16
ATOM     16  C   UNL     1       3.538   2.934  20.445  0.00  0.00    +0.000 C 
BRANCH  16  17
ATOM     17  N   UNL     1       2.748   1.889  19.745  0.00  0.00    +0.000 NA
ATOM     18  C   UNL     1       2.869   1.911  18.267  0.00  0.00    +0.000 C 
ATOM     19  C   UNL     1       2.257   3.162  17.606  0.00  0.00    +0.000 C 
ATOM     20  O   UNL     1       0.871   3.306  17.958  0.00  0.00    +0.000 OA
ATOM     21  C   UNL     1       0.710   3.353  19.382  0.00  0.00    +0.000 C 
ATOM     22  C   UNL     1       1.302   2.092  20.046  0.00  0.00    +0.000 C 
ENDBRANCH  16  17
ENDBRANCH   2  16
TORSDOF 3
ENDMDL
MODEL 9
REMARK VINA RESULT:      -6.7      4.159      5.844
REMARK  Name = 
REMARK  3 active torsions:
REMARK  status: ('A' for Active; 'I' for Inactive)
REMARK    1  A    between atoms: C_2  and  C_3
REMARK    2  A    between atoms: C_3  and  N_4
REMARK    3  A    between atoms: N_10  and  C_11
REMARK                            x       y       z     vdW  Elec       q    Type
REMARK                         _______ _______ _______ _____ _____    ______ ____
ROOT
ATOM      1  O   UNL     1       1.510   5.569  18.091  0.00  0.00    +0.000 OA
ATOM      2  C   UNL     1       2.504   5.560  18.824  0.00  0.00    +0.000 C 
ATOM      3  N   UNL     1       2.745   6.510  19.820  0.00  0.00    +0.000 N 
ATOM      4  H   UNL     1       3.231   6.169  20.626  0.00  0.00    +0.000 HD
ENDROOT
BRANCH   3   5
ATOM      5  C   UNL     1       1.861   7.582  20.035  0.00  0.00    +0.000 A 
ATOM      6  C   UNL     1       1.062   7.543  21.197  0.00  0.00    +0.000 A 
ATOM      7  C   UNL     1       0.204   8.604  21.534  0.00  0.00    +0.000 A 
ATOM      8  C   UNL     1       0.174   9.754  20.748  0.00  0.00    +0.000 A 
ATOM      9  C   UNL     1       0.952   9.760  19.600  0.00  0.00    +0.000 A 
ATOM     10  C   UNL     1       1.761   8.689  19.206  0.00  0.00    +0.000 A 
ATOM     11  C   UNL     1       2.359   8.993  17.870  0.00  0.00    +0.000 C 
ATOM     12  N   UNL     1       1.897  10.335  17.606  0.00  0.00    +0.000 N 
ATOM     13  C   UNL     1       1.095  10.825  18.600  0.00  0.00    +0.000 C 
ATOM     14  O   UNL     1       0.626  11.943  18.691  0.00  0.00    +0.000 OA
ATOM     15  H   UNL     1       2.236  10.938  16.870  0.00  0.00    +0.000 HD
ENDBRANCH   3   5
BRANCH   2  16
ATOM     16  C   UNL     1       3.494   4.392  18.819  0.00  0.00    +0.000 C 
BRANCH  16  17
ATOM     17  N   UNL     1       2.877   3.045  18.915  0.00  0.00    +0.000 NA
ATOM     18  C   UNL     1       1.890   2.895  20.013  0.00  0.00    +0.000 C 
ATOM     19  C   UNL     1       2.504   2.984  21.424  0.00  0.00    +0.000 C 
ATOM     20  O   UNL     1       3.540   2.005  21.599  0.00  0.00    +0.000 OA
ATOM     21  C   UNL     1       4.553   2.150  20.595  0.00  0.00    +0.000 C 
ATOM     22  C   UNL     1       3.947   2.040  19.180  0.00  0.00    +0.000 C 
ENDBRANCH  16  17
ENDBRANCH   2  16
TORSDOF 3
ENDMDL
