MODEL 1
REMARK VINA RESULT:      -7.3      0.000      0.000
REMARK  Name = 
REMARK  10 active torsions:
REMARK  status: ('A' for Active; 'I' for Inactive)
REMARK    1  A    between atoms: C_1  and  C_2
REMARK    2  A    between atoms: C_2  and  C_3
REMARK    3  A    between atoms: C_3  and  N_4
REMARK    4  A    between atoms: N_4  and  C_5
REMARK    5  A    between atoms: C_5  and  C_6
REMARK    6  A    between atoms: C_6  and  C_7
REMARK    7  A    between atoms: C_13  and  C_14
REMARK    8  A    between atoms: C_14  and  C_15
REMARK    9  A    between atoms: C_14  and  C_16
REMARK   10  A    between atoms: C_14  and  C_17
REMARK                            x       y       z     vdW  Elec       q    Type
REMARK                         _______ _______ _______ _____ _____    ______ ____
ROOT
ATOM      1  C   UNL     1       5.979   4.500  15.182  0.00  0.00    +0.000 A 
ATOM      2  C   UNL     1       7.313   4.832  15.315  0.00  0.00    +0.000 A 
ATOM      3  N   UNL     1       7.577   5.029  16.644  0.00  0.00    +0.000 N 
ATOM      4  C   UNL     1       6.430   4.838  17.382  0.00  0.00    +0.000 A 
ATOM      5  C   UNL     1       6.237   4.904  18.757  0.00  0.00    +0.000 A 
ATOM      6  C   UNL     1       4.947   4.660  19.242  0.00  0.00    +0.000 A 
ATOM      7  C   UNL     1       3.859   4.369  18.399  0.00  0.00    +0.000 A 
ATOM      8  C   UNL     1       4.107   4.315  17.009  0.00  0.00    +0.000 A 
ATOM      9  C   UNL     1       5.405   4.533  16.493  0.00  0.00    +0.000 A 
ATOM     10  H   UNL     1       8.474   5.258  17.037  0.00  0.00    +0.000 HD
ENDROOT
BRANCH   7  11
ATOM     11  C   UNL     1       2.438   4.129  18.943  0.00  0.00    +0.000 C 
ATOM     12  C   UNL     1       2.058   5.152  20.039  0.00  0.00    +0.000 C 
ATOM     13  C   UNL     1       1.409   4.243  17.797  0.00  0.00    +0.000 C 
ATOM     14  C   UNL     1       2.300   2.722  19.566  0.00  0.00    +0.000 C 
ENDBRANCH   7  11
BRANCH   1  15
ATOM     15  C   UNL     1       5.276   4.163  13.904  0.00  0.00    +0.000 C 
BRANCH  15  16
ATOM     16  C   UNL     1       6.220   3.494  12.901  0.00  0.00    +0.000 C 
BRANCH  16  17
ATOM     17  N   UNL     1       5.487   2.930  11.760  0.00  0.00    +0.000 NA
ATOM     18  H   UNL     1       6.013   3.091  10.902  0.00  0.00    +0.000 HD
BRANCH  17  19
ATOM     19  C   UNL     1       4.171   3.563  11.658  0.00  0.00    +0.000 C 
BRANCH  19  21
ATOM     20  C   UNL     1       2.928   4.185   9.575  0.00  0.00    +0.000 C 
ATOM     21  C   UNL     1       3.424   3.036  10.437  0.00  0.00    +0.000 C 
ENDBRANCH  19  21
ENDBRANCH  17  19
ENDBRANCH  16  17
ENDBRANCH  15  16
ENDBRANCH   1  15
TORSDOF 6
ENDMDL
MODEL 2
REMARK VINA RESULT:      -7.2      0.280      1.066
REMARK  Name = 
REMARK  10 active torsions:
REMARK  status: ('A' for Active; 'I' for Inactive)
REMARK    1  A    between atoms: C_1  and  C_2
REMARK    2  A    between atoms: C_2  and  C_3
REMARK    3  A    between atoms: C_3  and  N_4
REMARK    4  A    between atoms: N_4  and  C_5
REMARK    5  A    between atoms: C_5  and  C_6
REMARK    6  A    between atoms: C_6  and  C_7
REMARK    7  A    between atoms: C_13  and  C_14
REMARK    8  A    between atoms: C_14  and  C_15
REMARK    9  A    between atoms: C_14  and  C_16
REMARK   10  A    between atoms: C_14  and  C_17
REMARK                            x       y       z     vdW  Elec       q    Type
REMARK                         _______ _______ _______ _____ _____    ______ ____
ROOT
ATOM      1  C   UNL     1       6.069   4.539  15.372  0.00  0.00    +0.000 A 
ATOM      2  C   UNL     1       7.393   4.851  15.612  0.00  0.00    +0.000 A 
ATOM      3  N   UNL     1       7.573   4.952  16.965  0.00  0.00    +0.000 N 
ATOM      4  C   UNL     1       6.382   4.717  17.614  0.00  0.00    +0.000 A 
ATOM      5  C   UNL     1       6.103   4.687  18.976  0.00  0.00    +0.000 A 
ATOM      6  C   UNL     1       4.784   4.418  19.361  0.00  0.00    +0.000 A 
ATOM      7  C   UNL     1       3.751   4.196  18.433  0.00  0.00    +0.000 A 
ATOM      8  C   UNL     1       4.086   4.239  17.061  0.00  0.00    +0.000 A 
ATOM      9  C   UNL     1       5.414   4.483  16.643  0.00  0.00    +0.000 A 
ATOM     10  H   UNL     1       8.445   5.146  17.428  0.00  0.00    +0.000 HD
ENDROOT
BRANCH   7  11
ATOM     11  C   UNL     1       2.298   3.928  18.869  0.00  0.00    +0.000 C 
ATOM     12  C   UNL     1       2.074   2.448  19.256  0.00  0.00    +0.000 C 
ATOM     13  C   UNL     1       1.943   4.806  20.088  0.00  0.00    +0.000 C 
ATOM     14  C   UNL     1       1.297   4.259  17.739  0.00  0.00    +0.000 C 
ENDBRANCH   7  11
BRANCH   1  15
ATOM     15  C   UNL     1       5.446   4.298  14.032  0.00  0.00    +0.000 C 
BRANCH  15  16
ATOM     16  C   UNL     1       6.360   3.465  13.128  0.00  0.00    +0.000 C 
BRANCH  16  17
ATOM     17  N   UNL     1       5.606   2.819  12.045  0.00  0.00    +0.000 NA
ATOM     18  H   UNL     1       6.197   2.738  11.219  0.00  0.00    +0.000 HD
BRANCH  17  19
ATOM     19  C   UNL     1       4.420   3.614  11.727  0.00  0.00    +0.000 C 
BRANCH  19  21
ATOM     20  C   UNL     1       3.017   3.998   9.689  0.00  0.00    +0.000 C 
ATOM     21  C   UNL     1       3.624   2.951  10.607  0.00  0.00    +0.000 C 
ENDBRANCH  19  21
ENDBRANCH  17  19
ENDBRANCH  16  17
ENDBRANCH  15  16
ENDBRANCH   1  15
TORSDOF 6
ENDMDL
MODEL 3
REMARK VINA RESULT:      -7.0      1.537      2.159
REMARK  Name = 
REMARK  10 active torsions:
REMARK  status: ('A' for Active; 'I' for Inactive)
REMARK    1  A    between atoms: C_1  and  C_2
REMARK    2  A    between atoms: C_2  and  C_3
REMARK    3  A    between atoms: C_3  and  N_4
REMARK    4  A    between atoms: N_4  and  C_5
REMARK    5  A    between atoms: C_5  and  C_6
REMARK    6  A    between atoms: C_6  and  C_7
REMARK    7  A    between atoms: C_13  and  C_14
REMARK    8  A    between atoms: C_14  and  C_15
REMARK    9  A    between atoms: C_14  and  C_16
REMARK   10  A    between atoms: C_14  and  C_17
REMARK                            x       y       z     vdW  Elec       q    Type
REMARK                         _______ _______ _______ _____ _____    ______ ____
ROOT
ATOM      1  C   UNL     1       5.078   5.057  16.114  0.00  0.00    +0.000 A 
ATOM      2  C   UNL     1       5.284   6.387  15.807  0.00  0.00    +0.000 A 
ATOM      3  N   UNL     1       4.563   7.149  16.686  0.00  0.00    +0.000 N 
ATOM      4  C   UNL     1       3.882   6.334  17.562  0.00  0.00    +0.000 A 
ATOM      5  C   UNL     1       3.057   6.670  18.630  0.00  0.00    +0.000 A 
ATOM      6  C   UNL     1       2.489   5.621  19.362  0.00  0.00    +0.000 A 
ATOM      7  C   UNL     1       2.708   4.267  19.050  0.00  0.00    +0.000 A 
ATOM      8  C   UNL     1       3.553   3.979  17.954  0.00  0.00    +0.000 A 
ATOM      9  C   UNL     1       4.161   5.017  17.212  0.00  0.00    +0.000 A 
ATOM     10  H   UNL     1       4.544   8.155  16.713  0.00  0.00    +0.000 HD
ENDROOT
BRANCH   7  11
ATOM     11  C   UNL     1       2.054   3.123  19.847  0.00  0.00    +0.000 C 
ATOM     12  C   UNL     1       2.915   2.697  21.059  0.00  0.00    +0.000 C 
ATOM     13  C   UNL     1       0.671   3.567  20.368  0.00  0.00    +0.000 C 
ATOM     14  C   UNL     1       1.850   1.867  18.971  0.00  0.00    +0.000 C 
ENDBRANCH   7  11
BRANCH   1  15
ATOM     15  C   UNL     1       5.706   3.884  15.428  0.00  0.00    +0.000 C 
BRANCH  15  16
ATOM     16  C   UNL     1       6.220   4.255  14.034  0.00  0.00    +0.000 C 
BRANCH  16  17
ATOM     17  N   UNL     1       6.234   3.094  13.135  0.00  0.00    +0.000 NA
ATOM     18  H   UNL     1       7.182   2.724  13.069  0.00  0.00    +0.000 HD
BRANCH  17  19
ATOM     19  C   UNL     1       5.766   3.492  11.807  0.00  0.00    +0.000 C 
BRANCH  19  21
ATOM     20  C   UNL     1       3.653   3.778  10.494  0.00  0.00    +0.000 C 
ATOM     21  C   UNL     1       4.360   2.955  11.558  0.00  0.00    +0.000 C 
ENDBRANCH  19  21
ENDBRANCH  17  19
ENDBRANCH  16  17
ENDBRANCH  15  16
ENDBRANCH   1  15
TORSDOF 6
ENDMDL
MODEL 4
REMARK VINA RESULT:      -6.9      2.612      4.495
REMARK  Name = 
REMARK  10 active torsions:
REMARK  status: ('A' for Active; 'I' for Inactive)
REMARK    1  A    between atoms: C_1  and  C_2
REMARK    2  A    between atoms: C_2  and  C_3
REMARK    3  A    between atoms: C_3  and  N_4
REMARK    4  A    between atoms: N_4  and  C_5
REMARK    5  A    between atoms: C_5  and  C_6
REMARK    6  A    between atoms: C_6  and  C_7
REMARK    7  A    between atoms: C_13  and  C_14
REMARK    8  A    between atoms: C_14  and  C_15
REMARK    9  A    between atoms: C_14  and  C_16
REMARK   10  A    between atoms: C_14  and  C_17
REMARK                            x       y       z     vdW  Elec       q    Type
REMARK                         _______ _______ _______ _____ _____    ______ ____
ROOT
ATOM      1  C   UNL     1       4.803   5.559  16.045  0.00  0.00    +0.000 A 
ATOM      2  C   UNL     1       4.960   6.931  16.067  0.00  0.00    +0.000 A 
ATOM      3  N   UNL     1       4.282   7.426  17.148  0.00  0.00    +0.000 N 
ATOM      4  C   UNL     1       3.675   6.396  17.831  0.00  0.00    +0.000 A 
ATOM      5  C   UNL     1       2.915   6.427  18.994  0.00  0.00    +0.000 A 
ATOM      6  C   UNL     1       2.416   5.210  19.474  0.00  0.00    +0.000 A 
ATOM      7  C   UNL     1       2.644   3.984  18.824  0.00  0.00    +0.000 A 
ATOM      8  C   UNL     1       3.422   4.006  17.644  0.00  0.00    +0.000 A 
ATOM      9  C   UNL     1       3.959   5.217  17.150  0.00  0.00    +0.000 A 
ATOM     10  H   UNL     1       4.243   8.392  17.425  0.00  0.00    +0.000 HD
ENDROOT
BRANCH   7  11
ATOM     11  C   UNL     1       2.067   2.655  19.347  0.00  0.00    +0.000 C 
ATOM     12  C   UNL     1       0.664   2.365  18.764  0.00  0.00    +0.000 C 
ATOM     13  C   UNL     1       3.002   1.488  18.965  0.00  0.00    +0.000 C 
ATOM     14  C   UNL     1       1.926   2.666  20.886  0.00  0.00    +0.000 C 
ENDBRANCH   7  11
BRANCH   1  15
ATOM     15  C   UNL     1       5.410   4.616  15.055  0.00  0.00    +0.000 C 
BRANCH  15  16
ATOM     16  C   UNL     1       6.582   3.840  15.661  0.00  0.00    +0.000 C 
BRANCH  16  17
ATOM     17  N   UNL     1       7.617   4.744  16.182  0.00  0.00    +0.000 NA
ATOM     18  H   UNL     1       8.483   4.608  15.661  0.00  0.00    +0.000 HD
BRANCH  17  19
ATOM     19  C   UNL     1       7.847   4.465  17.600  0.00  0.00    +0.000 C 
BRANCH  19  21
ATOM     20  C   UNL     1       6.628   5.488  19.534  0.00  0.00    +0.000 C 
ATOM     21  C   UNL     1       7.642   5.729  18.428  0.00  0.00    +0.000 C 
ENDBRANCH  19  21
ENDBRANCH  17  19
ENDBRANCH  16  17
ENDBRANCH  15  16
ENDBRANCH   1  15
TORSDOF 6
ENDMDL
MODEL 5
REMARK VINA RESULT:      -6.9      1.706      2.534
REMARK  Name = 
REMARK  10 active torsions:
REMARK  status: ('A' for Active; 'I' for Inactive)
REMARK    1  A    between atoms: C_1  and  C_2
REMARK    2  A    between atoms: C_2  and  C_3
REMARK    3  A    between atoms: C_3  and  N_4
REMARK    4  A    between atoms: N_4  and  C_5
REMARK    5  A    between atoms: C_5  and  C_6
REMARK    6  A    between atoms: C_6  and  C_7
REMARK    7  A    between atoms: C_13  and  C_14
REMARK    8  A    between atoms: C_14  and  C_15
REMARK    9  A    between atoms: C_14  and  C_16
REMARK   10  A    between atoms: C_14  and  C_17
REMARK                            x       y       z     vdW  Elec       q    Type
REMARK                         _______ _______ _______ _____ _____    ______ ____
ROOT
ATOM      1  C   UNL     1       5.166   5.020  16.203  0.00  0.00    +0.000 A 
ATOM      2  C   UNL     1       5.378   6.348  15.889  0.00  0.00    +0.000 A 
ATOM      3  N   UNL     1       4.621   7.116  16.733  0.00  0.00    +0.000 N 
ATOM      4  C   UNL     1       3.910   6.307  17.591  0.00  0.00    +0.000 A 
ATOM      5  C   UNL     1       3.045   6.649  18.623  0.00  0.00    +0.000 A 
ATOM      6  C   UNL     1       2.453   5.606  19.345  0.00  0.00    +0.000 A 
ATOM      7  C   UNL     1       2.690   4.250  19.056  0.00  0.00    +0.000 A 
ATOM      8  C   UNL     1       3.577   3.954  17.995  0.00  0.00    +0.000 A 
ATOM      9  C   UNL     1       4.208   4.988  17.266  0.00  0.00    +0.000 A 
ATOM     10  H   UNL     1       4.596   8.121  16.748  0.00  0.00    +0.000 HD
ENDROOT
BRANCH   7  11
ATOM     11  C   UNL     1       2.011   3.111  19.839  0.00  0.00    +0.000 C 
ATOM     12  C   UNL     1       1.787   1.859  18.960  0.00  0.00    +0.000 C 
ATOM     13  C   UNL     1       2.887   2.706  21.045  0.00  0.00    +0.000 C 
ATOM     14  C   UNL     1       0.629   3.540  20.380  0.00  0.00    +0.000 C 
ENDBRANCH   7  11
BRANCH   1  15
ATOM     15  C   UNL     1       5.824   3.843  15.553  0.00  0.00    +0.000 C 
BRANCH  15  16
ATOM     16  C   UNL     1       6.575   4.248  14.282  0.00  0.00    +0.000 C 
BRANCH  16  17
ATOM     17  N   UNL     1       6.369   3.276  13.199  0.00  0.00    +0.000 NA
ATOM     18  H   UNL     1       7.189   3.262  12.593  0.00  0.00    +0.000 HD
BRANCH  17  19
ATOM     19  C   UNL     1       5.187   3.647  12.421  0.00  0.00    +0.000 C 
BRANCH  19  21
ATOM     20  C   UNL     1       6.018   1.568  11.298  0.00  0.00    +0.000 C 
ATOM     21  C   UNL     1       4.885   2.578  11.375  0.00  0.00    +0.000 C 
ENDBRANCH  19  21
ENDBRANCH  17  19
ENDBRANCH  16  17
ENDBRANCH  15  16
ENDBRANCH   1  15
TORSDOF 6
ENDMDL
MODEL 6
REMARK VINA RESULT:      -6.8      1.613      2.602
REMARK  Name = 
REMARK  10 active torsions:
REMARK  status: ('A' for Active; 'I' for Inactive)
REMARK    1  A    between atoms: C_1  and  C_2
REMARK    2  A    between atoms: C_2  and  C_3
REMARK    3  A    between atoms: C_3  and  N_4
REMARK    4  A    between atoms: N_4  and  C_5
REMARK    5  A    between atoms: C_5  and  C_6
REMARK    6  A    between atoms: C_6  and  C_7
REMARK    7  A    between atoms: C_13  and  C_14
REMARK    8  A    between atoms: C_14  and  C_15
REMARK    9  A    between atoms: C_14  and  C_16
REMARK   10  A    between atoms: C_14  and  C_17
REMARK                            x       y       z     vdW  Elec       q    Type
REMARK                         _______ _______ _______ _____ _____    ______ ____
ROOT
ATOM      1  C   UNL     1       5.114   5.285  16.425  0.00  0.00    +0.000 A 
ATOM      2  C   UNL     1       5.243   6.644  16.220  0.00  0.00    +0.000 A 
ATOM      3  N   UNL     1       4.372   7.291  17.055  0.00  0.00    +0.000 N 
ATOM      4  C   UNL     1       3.670   6.371  17.801  0.00  0.00    +0.000 A 
ATOM      5  C   UNL     1       2.711   6.572  18.787  0.00  0.00    +0.000 A 
ATOM      6  C   UNL     1       2.155   5.438  19.390  0.00  0.00    +0.000 A 
ATOM      7  C   UNL     1       2.516   4.128  19.027  0.00  0.00    +0.000 A 
ATOM      8  C   UNL     1       3.494   3.977  18.018  0.00  0.00    +0.000 A 
ATOM      9  C   UNL     1       4.091   5.104  17.410  0.00  0.00    +0.000 A 
ATOM     10  H   UNL     1       4.268   8.288  17.137  0.00  0.00    +0.000 HD
ENDROOT
BRANCH   7  11
ATOM     11  C   UNL     1       1.877   2.887  19.679  0.00  0.00    +0.000 C 
ATOM     12  C   UNL     1       0.462   2.607  19.122  0.00  0.00    +0.000 C 
ATOM     13  C   UNL     1       2.755   1.644  19.420  0.00  0.00    +0.000 C 
ATOM     14  C   UNL     1       1.737   3.059  21.208  0.00  0.00    +0.000 C 
ENDBRANCH   7  11
BRANCH   1  15
ATOM     15  C   UNL     1       5.906   4.210  15.748  0.00  0.00    +0.000 C 
BRANCH  15  16
ATOM     16  C   UNL     1       7.036   4.795  14.896  0.00  0.00    +0.000 C 
BRANCH  16  17
ATOM     17  N   UNL     1       6.865   4.472  13.473  0.00  0.00    +0.000 NA
ATOM     18  H   UNL     1       6.785   5.334  12.934  0.00  0.00    +0.000 HD
BRANCH  17  19
ATOM     19  C   UNL     1       5.657   3.665  13.293  0.00  0.00    +0.000 C 
BRANCH  19  21
ATOM     20  C   UNL     1       4.222   3.194  11.295  0.00  0.00    +0.000 C 
ATOM     21  C   UNL     1       5.618   3.080  11.885  0.00  0.00    +0.000 C 
ENDBRANCH  19  21
ENDBRANCH  17  19
ENDBRANCH  16  17
ENDBRANCH  15  16
ENDBRANCH   1  15
TORSDOF 6
ENDMDL
MODEL 7
REMARK VINA RESULT:      -6.8      2.827      4.566
REMARK  Name = 
REMARK  10 active torsions:
REMARK  status: ('A' for Active; 'I' for Inactive)
REMARK    1  A    between atoms: C_1  and  C_2
REMARK    2  A    between atoms: C_2  and  C_3
REMARK    3  A    between atoms: C_3  and  N_4
REMARK    4  A    between atoms: N_4  and  C_5
REMARK    5  A    between atoms: C_5  and  C_6
REMARK    6  A    between atoms: C_6  and  C_7
REMARK    7  A    between atoms: C_13  and  C_14
REMARK    8  A    between atoms: C_14  and  C_15
REMARK    9  A    between atoms: C_14  and  C_16
REMARK   10  A    between atoms: C_14  and  C_17
REMARK                            x       y       z     vdW  Elec       q    Type
REMARK                         _______ _______ _______ _____ _____    ______ ____
ROOT
ATOM      1  C   UNL     1       4.722   5.621  16.314  0.00  0.00    +0.000 A 
ATOM      2  C   UNL     1       4.817   6.999  16.277  0.00  0.00    +0.000 A 
ATOM      3  N   UNL     1       4.043   7.511  17.284  0.00  0.00    +0.000 N 
ATOM      4  C   UNL     1       3.436   6.486  17.975  0.00  0.00    +0.000 A 
ATOM      5  C   UNL     1       2.595   6.535  19.080  0.00  0.00    +0.000 A 
ATOM      6  C   UNL     1       2.119   5.320  19.586  0.00  0.00    +0.000 A 
ATOM      7  C   UNL     1       2.446   4.077  19.014  0.00  0.00    +0.000 A 
ATOM      8  C   UNL     1       3.304   4.081  17.891  0.00  0.00    +0.000 A 
ATOM      9  C   UNL     1       3.820   5.291  17.374  0.00  0.00    +0.000 A 
ATOM     10  H   UNL     1       3.942   8.486  17.508  0.00  0.00    +0.000 HD
ENDROOT
BRANCH   7  11
ATOM     11  C   UNL     1       1.893   2.748  19.564  0.00  0.00    +0.000 C 
ATOM     12  C   UNL     1       1.609   2.824  21.082  0.00  0.00    +0.000 C 
ATOM     13  C   UNL     1       0.577   2.387  18.842  0.00  0.00    +0.000 C 
ATOM     14  C   UNL     1       2.889   1.587  19.345  0.00  0.00    +0.000 C 
ENDBRANCH   7  11
BRANCH   1  15
ATOM     15  C   UNL     1       5.439   4.663  15.416  0.00  0.00    +0.000 C 
BRANCH  15  16
ATOM     16  C   UNL     1       6.884   4.438  15.870  0.00  0.00    +0.000 C 
BRANCH  16  17
ATOM     17  N   UNL     1       6.946   3.934  17.249  0.00  0.00    +0.000 NA
ATOM     18  H   UNL     1       6.041   4.061  17.700  0.00  0.00    +0.000 HD
BRANCH  17  19
ATOM     19  C   UNL     1       7.973   4.662  17.994  0.00  0.00    +0.000 C 
BRANCH  19  21
ATOM     20  C   UNL     1       7.867   7.160  18.144  0.00  0.00    +0.000 C 
ATOM     21  C   UNL     1       7.355   5.852  18.723  0.00  0.00    +0.000 C 
ENDBRANCH  19  21
ENDBRANCH  17  19
ENDBRANCH  16  17
ENDBRANCH  15  16
ENDBRANCH   1  15
TORSDOF 6
ENDMDL
MODEL 8
REMARK VINA RESULT:      -6.7      1.231      1.600
REMARK  Name = 
REMARK  10 active torsions:
REMARK  status: ('A' for Active; 'I' for Inactive)
REMARK    1  A    between atoms: C_1  and  C_2
REMARK    2  A    between atoms: C_2  and  C_3
REMARK    3  A    between atoms: C_3  and  N_4
REMARK    4  A    between atoms: N_4  and  C_5
REMARK    5  A    between atoms: C_5  and  C_6
REMARK    6  A    between atoms: C_6  and  C_7
REMARK    7  A    between atoms: C_13  and  C_14
REMARK    8  A    between atoms: C_14  and  C_15
REMARK    9  A    between atoms: C_14  and  C_16
REMARK   10  A    between atoms: C_14  and  C_17
REMARK                            x       y       z     vdW  Elec       q    Type
REMARK                         _______ _______ _______ _____ _____    ______ ____
ROOT
ATOM      1  C   UNL     1       6.050   4.959  16.446  0.00  0.00    +0.000 A 
ATOM      2  C   UNL     1       7.304   5.011  17.022  0.00  0.00    +0.000 A 
ATOM      3  N   UNL     1       7.197   4.597  18.323  0.00  0.00    +0.000 N 
ATOM      4  C   UNL     1       5.888   4.282  18.608  0.00  0.00    +0.000 A 
ATOM      5  C   UNL     1       5.326   3.796  19.783  0.00  0.00    +0.000 A 
ATOM      6  C   UNL     1       3.946   3.559  19.791  0.00  0.00    +0.000 A 
ATOM      7  C   UNL     1       3.125   3.804  18.676  0.00  0.00    +0.000 A 
ATOM      8  C   UNL     1       3.745   4.299  17.506  0.00  0.00    +0.000 A 
ATOM      9  C   UNL     1       5.139   4.525  17.461  0.00  0.00    +0.000 A 
ATOM     10  H   UNL     1       7.958   4.512  18.976  0.00  0.00    +0.000 HD
ENDROOT
BRANCH   7  11
ATOM     11  C   UNL     1       1.604   3.565  18.706  0.00  0.00    +0.000 C 
ATOM     12  C   UNL     1       0.957   4.122  19.995  0.00  0.00    +0.000 C 
ATOM     13  C   UNL     1       0.938   4.252  17.494  0.00  0.00    +0.000 C 
ATOM     14  C   UNL     1       1.266   2.059  18.642  0.00  0.00    +0.000 C 
ENDBRANCH   7  11
BRANCH   1  15
ATOM     15  C   UNL     1       5.717   5.289  15.024  0.00  0.00    +0.000 C 
BRANCH  15  16
ATOM     16  C   UNL     1       6.736   4.687  14.053  0.00  0.00    +0.000 C 
BRANCH  16  17
ATOM     17  N   UNL     1       6.303   3.372  13.560  0.00  0.00    +0.000 NA
ATOM     18  H   UNL     1       6.912   2.648  13.940  0.00  0.00    +0.000 HD
BRANCH  17  19
ATOM     19  C   UNL     1       6.363   3.349  12.099  0.00  0.00    +0.000 C 
BRANCH  19  21
ATOM     20  C   UNL     1       4.016   3.240  11.230  0.00  0.00    +0.000 C 
ATOM     21  C   UNL     1       5.272   2.442  11.539  0.00  0.00    +0.000 C 
ENDBRANCH  19  21
ENDBRANCH  17  19
ENDBRANCH  16  17
ENDBRANCH  15  16
ENDBRANCH   1  15
TORSDOF 6
ENDMDL
MODEL 9
REMARK VINA RESULT:      -6.7      3.134      5.940
REMARK  Name = 
REMARK  10 active torsions:
REMARK  status: ('A' for Active; 'I' for Inactive)
REMARK    1  A    between atoms: C_1  and  C_2
REMARK    2  A    between atoms: C_2  and  C_3
REMARK    3  A    between atoms: C_3  and  N_4
REMARK    4  A    between atoms: N_4  and  C_5
REMARK    5  A    between atoms: C_5  and  C_6
REMARK    6  A    between atoms: C_6  and  C_7
REMARK    7  A    between atoms: C_13  and  C_14
REMARK    8  A    between atoms: C_14  and  C_15
REMARK    9  A    between atoms: C_14  and  C_16
REMARK   10  A    between atoms: C_14  and  C_17
REMARK                            x       y       z     vdW  Elec       q    Type
REMARK                         _______ _______ _______ _____ _____    ______ ____
ROOT
ATOM      1  C   UNL     1       6.572   4.879  17.756  0.00  0.00    +0.000 A 
ATOM      2  C   UNL     1       6.908   4.329  16.535  0.00  0.00    +0.000 A 
ATOM      3  N   UNL     1       5.820   3.652  16.053  0.00  0.00    +0.000 N 
ATOM      4  C   UNL     1       4.777   3.746  16.947  0.00  0.00    +0.000 A 
ATOM      5  C   UNL     1       3.484   3.242  16.860  0.00  0.00    +0.000 A 
ATOM      6  C   UNL     1       2.619   3.494  17.932  0.00  0.00    +0.000 A 
ATOM      7  C   UNL     1       3.011   4.213  19.075  0.00  0.00    +0.000 A 
ATOM      8  C   UNL     1       4.337   4.702  19.115  0.00  0.00    +0.000 A 
ATOM      9  C   UNL     1       5.225   4.485  18.037  0.00  0.00    +0.000 A 
ATOM     10  H   UNL     1       5.771   3.173  15.170  0.00  0.00    +0.000 HD
ENDROOT
BRANCH   7  11
ATOM     11  C   UNL     1       2.057   4.459  20.259  0.00  0.00    +0.000 C 
ATOM     12  C   UNL     1       2.556   3.777  21.554  0.00  0.00    +0.000 C 
ATOM     13  C   UNL     1       1.931   5.974  20.527  0.00  0.00    +0.000 C 
ATOM     14  C   UNL     1       0.642   3.909  19.971  0.00  0.00    +0.000 C 
ENDBRANCH   7  11
BRANCH   1  15
ATOM     15  C   UNL     1       7.453   5.733  18.613  0.00  0.00    +0.000 C 
BRANCH  15  16
ATOM     16  C   UNL     1       7.555   7.161  18.069  0.00  0.00    +0.000 C 
BRANCH  16  17
ATOM     17  N   UNL     1       8.574   7.941  18.784  0.00  0.00    +0.000 NA
ATOM     18  H   UNL     1       8.367   7.941  19.782  0.00  0.00    +0.000 HD
BRANCH  17  19
ATOM     19  C   UNL     1       8.584   9.316  18.283  0.00  0.00    +0.000 C 
BRANCH  19  21
ATOM     20  C   UNL     1      10.197  11.203  18.611  0.00  0.00    +0.000 C 
ATOM     21  C   UNL     1       9.240  10.245  19.300  0.00  0.00    +0.000 C 
ENDBRANCH  19  21
ENDBRANCH  17  19
ENDBRANCH  16  17
ENDBRANCH  15  16
ENDBRANCH   1  15
TORSDOF 6
ENDMDL
