MODEL 1
REMARK VINA RESULT:      -6.1      0.000      0.000
REMARK  Name = 
REMARK  6 active torsions:
REMARK  status: ('A' for Active; 'I' for Inactive)
REMARK    1  A    between atoms: C_1  and  N_2
REMARK    2  A    between atoms: N_2  and  C_3
REMARK    3  A    between atoms: N_2  and  C_4
REMARK    4  A    between atoms: C_4  and  C_5
REMARK    5  A    between atoms: C_5  and  N_6
REMARK    6  A    between atoms: C_7  and  C_9
REMARK                            x       y       z     vdW  Elec       q    Type
REMARK                         _______ _______ _______ _____ _____    ______ ____
ROOT
ATOM      1  N   UNL     1       2.983   2.904  18.178  0.00  0.00    +0.000 N 
ATOM      2  C   UNL     1       4.254   3.298  18.482  0.00  0.00    +0.000 C 
ATOM      3  O   UNL     1       4.785   2.896  19.502  0.00  0.00    +0.000 OA
ATOM      4  H   UNL     1       2.542   3.225  17.309  0.00  0.00    +0.000 HD
ENDROOT
BRANCH   2   5
ATOM      5  C   UNL     1       4.995   4.213  17.574  0.00  0.00    +0.000 A 
ATOM      6  S   UNL     1       4.759   4.302  15.908  0.00  0.00    +0.000 S 
ATOM      7  C   UNL     1       5.922   5.467  15.599  0.00  0.00    +0.000 A 
ATOM      8  C   UNL     1       6.525   5.812  16.802  0.00  0.00    +0.000 A 
ATOM      9  C   UNL     1       6.018   5.109  17.914  0.00  0.00    +0.000 A 
ATOM     10  C   UNL     1       6.544   5.331  19.310  0.00  0.00    +0.000 C 
ATOM     11  C   UNL     1       7.895   6.070  19.326  0.00  0.00    +0.000 C 
ATOM     12  C   UNL     1       7.950   7.242  18.341  0.00  0.00    +0.000 C 
ATOM     13  C   UNL     1       7.624   6.831  16.891  0.00  0.00    +0.000 C 
ENDBRANCH   2   5
BRANCH   1  14
ATOM     14  C   UNL     1       2.242   2.002  19.039  0.00  0.00    +0.000 C 
BRANCH  14  15
ATOM     15  C   UNL     1       0.926   2.631  19.506  0.00  0.00    +0.000 C 
BRANCH  15  17
ATOM     16  C   UNL     1       2.079   2.667  21.669  0.00  0.00    +0.000 C 
ATOM     17  N   UNL     1       1.056   3.309  20.822  0.00  0.00    +0.000 NA
ATOM     18  C   UNL     1       1.393   4.723  20.603  0.00  0.00    +0.000 C 
ENDBRANCH  15  17
ENDBRANCH  14  15
ENDBRANCH   1  14
TORSDOF 4
ENDMDL
MODEL 2
REMARK VINA RESULT:      -6.1      2.442      5.688
REMARK  Name = 
REMARK  6 active torsions:
REMARK  status: ('A' for Active; 'I' for Inactive)
REMARK    1  A    between atoms: C_1  and  N_2
REMARK    2  A    between atoms: N_2  and  C_3
REMARK    3  A    between atoms: N_2  and  C_4
REMARK    4  A    between atoms: C_4  and  C_5
REMARK    5  A    between atoms: C_5  and  N_6
REMARK    6  A    between atoms: C_7  and  C_9
REMARK                            x       y       z     vdW  Elec       q    Type
REMARK                         _______ _______ _______ _____ _____    ______ ____
ROOT
ATOM      1  N   UNL     1       6.313   4.143  18.112  0.00  0.00    +0.000 N 
ATOM      2  C   UNL     1       5.197   3.731  17.443  0.00  0.00    +0.000 C 
ATOM      3  O   UNL     1       5.206   3.671  16.227  0.00  0.00    +0.000 OA
ATOM      4  H   UNL     1       6.314   4.174  19.137  0.00  0.00    +0.000 HD
ENDROOT
BRANCH   2   5
ATOM      5  C   UNL     1       3.970   3.352  18.193  0.00  0.00    +0.000 A 
ATOM      6  S   UNL     1       3.278   1.816  18.176  0.00  0.00    +0.000 S 
ATOM      7  C   UNL     1       1.978   2.167  19.173  0.00  0.00    +0.000 A 
ATOM      8  C   UNL     1       2.059   3.504  19.540  0.00  0.00    +0.000 A 
ATOM      9  C   UNL     1       3.167   4.180  18.990  0.00  0.00    +0.000 A 
ATOM     10  C   UNL     1       3.431   5.640  19.259  0.00  0.00    +0.000 C 
ATOM     11  C   UNL     1       2.203   6.369  19.838  0.00  0.00    +0.000 C 
ATOM     12  C   UNL     1       1.476   5.557  20.915  0.00  0.00    +0.000 C 
ATOM     13  C   UNL     1       1.042   4.159  20.430  0.00  0.00    +0.000 C 
ENDBRANCH   2   5
BRANCH   1  14
ATOM     14  C   UNL     1       7.528   4.507  17.407  0.00  0.00    +0.000 C 
BRANCH  14  15
ATOM     15  C   UNL     1       7.365   5.834  16.660  0.00  0.00    +0.000 C 
BRANCH  15  17
ATOM     16  C   UNL     1       7.778   8.049  17.626  0.00  0.00    +0.000 C 
ATOM     17  N   UNL     1       6.838   6.916  17.532  0.00  0.00    +0.000 NA
ATOM     18  C   UNL     1       5.545   7.373  17.002  0.00  0.00    +0.000 C 
ENDBRANCH  15  17
ENDBRANCH  14  15
ENDBRANCH   1  14
TORSDOF 4
ENDMDL
MODEL 3
REMARK VINA RESULT:      -6.1      2.843      6.366
REMARK  Name = 
REMARK  6 active torsions:
REMARK  status: ('A' for Active; 'I' for Inactive)
REMARK    1  A    between atoms: C_1  and  N_2
REMARK    2  A    between atoms: N_2  and  C_3
REMARK    3  A    between atoms: N_2  and  C_4
REMARK    4  A    between atoms: C_4  and  C_5
REMARK    5  A    between atoms: C_5  and  N_6
REMARK    6  A    between atoms: C_7  and  C_9
REMARK                            x       y       z     vdW  Elec       q    Type
REMARK                         _______ _______ _______ _____ _____    ______ ____
ROOT
ATOM      1  N   UNL     1       4.458   5.807  16.946  0.00  0.00    +0.000 N 
ATOM      2  C   UNL     1       3.600   6.584  17.670  0.00  0.00    +0.000 C 
ATOM      3  O   UNL     1       3.541   7.782  17.458  0.00  0.00    +0.000 OA
ATOM      4  H   UNL     1       4.494   4.795  17.109  0.00  0.00    +0.000 HD
ENDROOT
BRANCH   2   5
ATOM      5  C   UNL     1       2.734   5.974  18.714  0.00  0.00    +0.000 A 
ATOM      6  S   UNL     1       2.266   6.746  20.137  0.00  0.00    +0.000 S 
ATOM      7  C   UNL     1       1.383   5.475  20.777  0.00  0.00    +0.000 A 
ATOM      8  C   UNL     1       1.438   4.412  19.884  0.00  0.00    +0.000 A 
ATOM      9  C   UNL     1       2.199   4.678  18.728  0.00  0.00    +0.000 A 
ATOM     10  C   UNL     1       2.390   3.652  17.640  0.00  0.00    +0.000 C 
ATOM     11  C   UNL     1       2.020   2.228  18.094  0.00  0.00    +0.000 C 
ATOM     12  C   UNL     1       0.727   2.176  18.914  0.00  0.00    +0.000 C 
ATOM     13  C   UNL     1       0.755   3.101  20.149  0.00  0.00    +0.000 C 
ENDBRANCH   2   5
BRANCH   1  14
ATOM     14  C   UNL     1       5.305   6.373  15.913  0.00  0.00    +0.000 C 
BRANCH  14  15
ATOM     15  C   UNL     1       6.551   5.514  15.678  0.00  0.00    +0.000 C 
BRANCH  15  17
ATOM     16  C   UNL     1       7.425   7.053  17.374  0.00  0.00    +0.000 C 
ATOM     17  N   UNL     1       7.607   5.756  16.695  0.00  0.00    +0.000 NA
ATOM     18  C   UNL     1       7.589   4.663  17.677  0.00  0.00    +0.000 C 
ENDBRANCH  15  17
ENDBRANCH  14  15
ENDBRANCH   1  14
TORSDOF 4
ENDMDL
MODEL 4
REMARK VINA RESULT:      -6.0      2.973      6.441
REMARK  Name = 
REMARK  6 active torsions:
REMARK  status: ('A' for Active; 'I' for Inactive)
REMARK    1  A    between atoms: C_1  and  N_2
REMARK    2  A    between atoms: N_2  and  C_3
REMARK    3  A    between atoms: N_2  and  C_4
REMARK    4  A    between atoms: C_4  and  C_5
REMARK    5  A    between atoms: C_5  and  N_6
REMARK    6  A    between atoms: C_7  and  C_9
REMARK                            x       y       z     vdW  Elec       q    Type
REMARK                         _______ _______ _______ _____ _____    ______ ____
ROOT
ATOM      1  N   UNL     1       4.377   5.907  16.968  0.00  0.00    +0.000 N 
ATOM      2  C   UNL     1       3.522   6.655  17.724  0.00  0.00    +0.000 C 
ATOM      3  O   UNL     1       3.450   7.858  17.547  0.00  0.00    +0.000 OA
ATOM      4  H   UNL     1       4.424   4.891  17.102  0.00  0.00    +0.000 HD
ENDROOT
BRANCH   2   5
ATOM      5  C   UNL     1       2.675   6.009  18.762  0.00  0.00    +0.000 A 
ATOM      6  S   UNL     1       2.198   6.746  20.200  0.00  0.00    +0.000 S 
ATOM      7  C   UNL     1       1.346   5.444  20.822  0.00  0.00    +0.000 A 
ATOM      8  C   UNL     1       1.420   4.399  19.911  0.00  0.00    +0.000 A 
ATOM      9  C   UNL     1       2.169   4.701  18.756  0.00  0.00    +0.000 A 
ATOM     10  C   UNL     1       2.377   3.699  17.649  0.00  0.00    +0.000 C 
ATOM     11  C   UNL     1       2.041   2.259  18.081  0.00  0.00    +0.000 C 
ATOM     12  C   UNL     1       0.753   2.164  18.906  0.00  0.00    +0.000 C 
ATOM     13  C   UNL     1       0.768   3.068  20.156  0.00  0.00    +0.000 C 
ENDBRANCH   2   5
BRANCH   1  14
ATOM     14  C   UNL     1       5.205   6.510  15.940  0.00  0.00    +0.000 C 
BRANCH  14  15
ATOM     15  C   UNL     1       6.651   6.681  16.416  0.00  0.00    +0.000 C 
BRANCH  15  17
ATOM     16  C   UNL     1       7.592   4.547  17.172  0.00  0.00    +0.000 C 
ATOM     17  N   UNL     1       7.507   5.518  16.064  0.00  0.00    +0.000 NA
ATOM     18  C   UNL     1       6.965   4.869  14.862  0.00  0.00    +0.000 C 
ENDBRANCH  15  17
ENDBRANCH  14  15
ENDBRANCH   1  14
TORSDOF 4
ENDMDL
MODEL 5
REMARK VINA RESULT:      -5.9      3.271      6.560
REMARK  Name = 
REMARK  6 active torsions:
REMARK  status: ('A' for Active; 'I' for Inactive)
REMARK    1  A    between atoms: C_1  and  N_2
REMARK    2  A    between atoms: N_2  and  C_3
REMARK    3  A    between atoms: N_2  and  C_4
REMARK    4  A    between atoms: C_4  and  C_5
REMARK    5  A    between atoms: C_5  and  N_6
REMARK    6  A    between atoms: C_7  and  C_9
REMARK                            x       y       z     vdW  Elec       q    Type
REMARK                         _______ _______ _______ _____ _____    ______ ____
ROOT
ATOM      1  N   UNL     1       5.854   4.921  14.794  0.00  0.00    +0.000 N 
ATOM      2  C   UNL     1       5.834   4.758  16.149  0.00  0.00    +0.000 C 
ATOM      3  O   UNL     1       6.813   4.311  16.720  0.00  0.00    +0.000 OA
ATOM      4  H   UNL     1       5.038   5.317  14.313  0.00  0.00    +0.000 HD
ENDROOT
BRANCH   2   5
ATOM      5  C   UNL     1       4.625   5.126  16.932  0.00  0.00    +0.000 A 
ATOM      6  S   UNL     1       4.211   6.701  17.366  0.00  0.00    +0.000 S 
ATOM      7  C   UNL     1       2.821   6.319  18.219  0.00  0.00    +0.000 A 
ATOM      8  C   UNL     1       2.651   4.941  18.182  0.00  0.00    +0.000 A 
ATOM      9  C   UNL     1       3.661   4.262  17.471  0.00  0.00    +0.000 A 
ATOM     10  C   UNL     1       3.666   2.761  17.321  0.00  0.00    +0.000 C 
ATOM     11  C   UNL     1       2.723   2.062  18.318  0.00  0.00    +0.000 C 
ATOM     12  C   UNL     1       1.371   2.766  18.461  0.00  0.00    +0.000 C 
ATOM     13  C   UNL     1       1.501   4.252  18.857  0.00  0.00    +0.000 C 
ENDBRANCH   2   5
BRANCH   1  14
ATOM     14  C   UNL     1       7.025   4.583  14.007  0.00  0.00    +0.000 C 
BRANCH  14  15
ATOM     15  C   UNL     1       6.659   4.337  12.539  0.00  0.00    +0.000 C 
BRANCH  15  17
ATOM     16  C   UNL     1       4.610   3.250  11.747  0.00  0.00    +0.000 C 
ATOM     17  N   UNL     1       5.946   3.049  12.340  0.00  0.00    +0.000 NA
ATOM     18  C   UNL     1       6.757   2.179  11.477  0.00  0.00    +0.000 C 
ENDBRANCH  15  17
ENDBRANCH  14  15
ENDBRANCH   1  14
TORSDOF 4
ENDMDL
MODEL 6
REMARK VINA RESULT:      -5.9      2.812      6.268
REMARK  Name = 
REMARK  6 active torsions:
REMARK  status: ('A' for Active; 'I' for Inactive)
REMARK    1  A    between atoms: C_1  and  N_2
REMARK    2  A    between atoms: N_2  and  C_3
REMARK    3  A    between atoms: N_2  and  C_4
REMARK    4  A    between atoms: C_4  and  C_5
REMARK    5  A    between atoms: C_5  and  N_6
REMARK    6  A    between atoms: C_7  and  C_9
REMARK                            x       y       z     vdW  Elec       q    Type
REMARK                         _______ _______ _______ _____ _____    ______ ____
ROOT
ATOM      1  N   UNL     1       4.969   4.101  16.141  0.00  0.00    +0.000 N 
ATOM      2  C   UNL     1       5.214   4.814  17.279  0.00  0.00    +0.000 C 
ATOM      3  O   UNL     1       6.362   5.034  17.622  0.00  0.00    +0.000 OA
ATOM      4  H   UNL     1       4.002   3.934  15.840  0.00  0.00    +0.000 HD
ENDROOT
BRANCH   2   5
ATOM      5  C   UNL     1       4.086   5.328  18.101  0.00  0.00    +0.000 A 
ATOM      6  S   UNL     1       3.513   6.913  18.052  0.00  0.00    +0.000 S 
ATOM      7  C   UNL     1       2.327   6.736  19.221  0.00  0.00    +0.000 A 
ATOM      8  C   UNL     1       2.356   5.425  19.678  0.00  0.00    +0.000 A 
ATOM      9  C   UNL     1       3.343   4.629  19.063  0.00  0.00    +0.000 A 
ATOM     10  C   UNL     1       3.545   3.179  19.424  0.00  0.00    +0.000 C 
ATOM     11  C   UNL     1       2.863   2.797  20.751  0.00  0.00    +0.000 C 
ATOM     12  C   UNL     1       1.456   3.386  20.895  0.00  0.00    +0.000 C 
ATOM     13  C   UNL     1       1.423   4.921  20.742  0.00  0.00    +0.000 C 
ENDBRANCH   2   5
BRANCH   1  14
ATOM     14  C   UNL     1       6.050   3.600  15.314  0.00  0.00    +0.000 C 
BRANCH  14  15
ATOM     15  C   UNL     1       6.178   4.402  14.015  0.00  0.00    +0.000 C 
BRANCH  15  17
ATOM     16  C   UNL     1       4.975   3.357  12.152  0.00  0.00    +0.000 C 
ATOM     17  N   UNL     1       6.281   3.530  12.816  0.00  0.00    +0.000 NA
ATOM     18  C   UNL     1       7.252   4.113  11.880  0.00  0.00    +0.000 C 
ENDBRANCH  15  17
ENDBRANCH  14  15
ENDBRANCH   1  14
TORSDOF 4
ENDMDL
MODEL 7
REMARK VINA RESULT:      -5.9      3.698      5.584
REMARK  Name = 
REMARK  6 active torsions:
REMARK  status: ('A' for Active; 'I' for Inactive)
REMARK    1  A    between atoms: C_1  and  N_2
REMARK    2  A    between atoms: N_2  and  C_3
REMARK    3  A    between atoms: N_2  and  C_4
REMARK    4  A    between atoms: C_4  and  C_5
REMARK    5  A    between atoms: C_5  and  N_6
REMARK    6  A    between atoms: C_7  and  C_9
REMARK                            x       y       z     vdW  Elec       q    Type
REMARK                         _______ _______ _______ _____ _____    ______ ____
ROOT
ATOM      1  N   UNL     1       2.251   7.412  19.904  0.00  0.00    +0.000 N 
ATOM      2  C   UNL     1       2.484   7.163  18.582  0.00  0.00    +0.000 C 
ATOM      3  O   UNL     1       2.134   7.973  17.742  0.00  0.00    +0.000 OA
ATOM      4  H   UNL     1       2.563   6.741  20.615  0.00  0.00    +0.000 HD
ENDROOT
BRANCH   2   5
ATOM      5  C   UNL     1       3.167   5.911  18.163  0.00  0.00    +0.000 A 
ATOM      6  S   UNL     1       4.627   5.854  17.323  0.00  0.00    +0.000 S 
ATOM      7  C   UNL     1       4.721   4.187  17.191  0.00  0.00    +0.000 A 
ATOM      8  C   UNL     1       3.603   3.637  17.804  0.00  0.00    +0.000 A 
ATOM      9  C   UNL     1       2.722   4.594  18.346  0.00  0.00    +0.000 A 
ATOM     10  C   UNL     1       1.445   4.203  19.046  0.00  0.00    +0.000 C 
ATOM     11  C   UNL     1       1.034   2.746  18.763  0.00  0.00    +0.000 C 
ATOM     12  C   UNL     1       2.213   1.768  18.815  0.00  0.00    +0.000 C 
ATOM     13  C   UNL     1       3.363   2.156  17.863  0.00  0.00    +0.000 C 
ENDBRANCH   2   5
BRANCH   1  14
ATOM     14  C   UNL     1       1.598   8.632  20.342  0.00  0.00    +0.000 C 
BRANCH  14  15
ATOM     15  C   UNL     1       0.580   8.354  21.452  0.00  0.00    +0.000 C 
BRANCH  15  17
ATOM     16  C   UNL     1      -0.387   9.741  23.227  0.00  0.00    +0.000 C 
ATOM     17  N   UNL     1      -0.253   9.542  21.771  0.00  0.00    +0.000 NA
ATOM     18  C   UNL     1       0.349  10.731  21.151  0.00  0.00    +0.000 C 
ENDBRANCH  15  17
ENDBRANCH  14  15
ENDBRANCH   1  14
TORSDOF 4
ENDMDL
MODEL 8
REMARK VINA RESULT:      -5.9      3.138      6.543
REMARK  Name = 
REMARK  6 active torsions:
REMARK  status: ('A' for Active; 'I' for Inactive)
REMARK    1  A    between atoms: C_1  and  N_2
REMARK    2  A    between atoms: N_2  and  C_3
REMARK    3  A    between atoms: N_2  and  C_4
REMARK    4  A    between atoms: C_4  and  C_5
REMARK    5  A    between atoms: C_5  and  N_6
REMARK    6  A    between atoms: C_7  and  C_9
REMARK                            x       y       z     vdW  Elec       q    Type
REMARK                         _______ _______ _______ _____ _____    ______ ____
ROOT
ATOM      1  N   UNL     1       5.245   5.058  15.089  0.00  0.00    +0.000 N 
ATOM      2  C   UNL     1       5.333   4.843  16.435  0.00  0.00    +0.000 C 
ATOM      3  O   UNL     1       6.376   4.438  16.917  0.00  0.00    +0.000 OA
ATOM      4  H   UNL     1       4.375   5.419  14.684  0.00  0.00    +0.000 HD
ENDROOT
BRANCH   2   5
ATOM      5  C   UNL     1       4.163   5.104  17.314  0.00  0.00    +0.000 A 
ATOM      6  S   UNL     1       3.713   6.626  17.880  0.00  0.00    +0.000 S 
ATOM      7  C   UNL     1       2.398   6.126  18.789  0.00  0.00    +0.000 A 
ATOM      8  C   UNL     1       2.284   4.747  18.669  0.00  0.00    +0.000 A 
ATOM      9  C   UNL     1       3.273   4.162  17.852  0.00  0.00    +0.000 A 
ATOM     10  C   UNL     1       3.330   2.677  17.600  0.00  0.00    +0.000 C 
ATOM     11  C   UNL     1       2.484   1.871  18.603  0.00  0.00    +0.000 C 
ATOM     12  C   UNL     1       1.115   2.503  18.878  0.00  0.00    +0.000 C 
ATOM     13  C   UNL     1       1.209   3.963  19.365  0.00  0.00    +0.000 C 
ENDBRANCH   2   5
BRANCH   1  14
ATOM     14  C   UNL     1       6.375   4.825  14.210  0.00  0.00    +0.000 C 
BRANCH  14  15
ATOM     15  C   UNL     1       6.325   3.422  13.595  0.00  0.00    +0.000 C 
BRANCH  15  17
ATOM     16  C   UNL     1       6.814   2.345  11.449  0.00  0.00    +0.000 C 
ATOM     17  N   UNL     1       6.113   3.453  12.125  0.00  0.00    +0.000 NA
ATOM     18  C   UNL     1       4.672   3.386  11.845  0.00  0.00    +0.000 C 
ENDBRANCH  15  17
ENDBRANCH  14  15
ENDBRANCH   1  14
TORSDOF 4
ENDMDL
MODEL 9
REMARK VINA RESULT:      -5.9      3.857      6.835
REMARK  Name = 
REMARK  6 active torsions:
REMARK  status: ('A' for Active; 'I' for Inactive)
REMARK    1  A    between atoms: C_1  and  N_2
REMARK    2  A    between atoms: N_2  and  C_3
REMARK    3  A    between atoms: N_2  and  C_4
REMARK    4  A    between atoms: C_4  and  C_5
REMARK    5  A    between atoms: C_5  and  N_6
REMARK    6  A    between atoms: C_7  and  C_9
REMARK                            x       y       z     vdW  Elec       q    Type
REMARK                         _______ _______ _______ _____ _____    ______ ____
ROOT
ATOM      1  N   UNL     1       7.615   7.714  17.571  0.00  0.00    +0.000 N 
ATOM      2  C   UNL     1       7.423   6.452  18.055  0.00  0.00    +0.000 C 
ATOM      3  O   UNL     1       8.004   6.095  19.064  0.00  0.00    +0.000 OA
ATOM      4  H   UNL     1       7.110   8.024  16.733  0.00  0.00    +0.000 HD
ENDROOT
BRANCH   2   5
ATOM      5  C   UNL     1       6.505   5.512  17.358  0.00  0.00    +0.000 A 
ATOM      6  S   UNL     1       6.827   4.790  15.870  0.00  0.00    +0.000 S 
ATOM      7  C   UNL     1       5.386   3.947  15.737  0.00  0.00    +0.000 A 
ATOM      8  C   UNL     1       4.617   4.217  16.861  0.00  0.00    +0.000 A 
ATOM      9  C   UNL     1       5.231   5.099  17.773  0.00  0.00    +0.000 A 
ATOM     10  C   UNL     1       4.559   5.527  19.053  0.00  0.00    +0.000 C 
ATOM     11  C   UNL     1       3.047   5.229  19.058  0.00  0.00    +0.000 C 
ATOM     12  C   UNL     1       2.705   3.848  18.491  0.00  0.00    +0.000 C 
ATOM     13  C   UNL     1       3.251   3.626  17.065  0.00  0.00    +0.000 C 
ENDBRANCH   2   5
BRANCH   1  14
ATOM     14  C   UNL     1       8.494   8.656  18.238  0.00  0.00    +0.000 C 
BRANCH  14  15
ATOM     15  C   UNL     1       8.194  10.097  17.814  0.00  0.00    +0.000 C 
BRANCH  15  17
ATOM     16  C   UNL     1       8.944  12.431  17.841  0.00  0.00    +0.000 C 
ATOM     17  N   UNL     1       9.291  11.034  18.169  0.00  0.00    +0.000 NA
ATOM     18  C   UNL     1       9.586  10.909  19.603  0.00  0.00    +0.000 C 
ENDBRANCH  15  17
ENDBRANCH  14  15
ENDBRANCH   1  14
TORSDOF 4
ENDMDL
