MODEL 1
REMARK VINA RESULT:      -6.2      0.000      0.000
REMARK  Name = 
REMARK  7 active torsions:
REMARK  status: ('A' for Active; 'I' for Inactive)
REMARK    1  A    between atoms: C_1  and  O_2
REMARK    2  A    between atoms: O_2  and  C_3
REMARK    3  A    between atoms: C_8  and  O_9
REMARK    4  A    between atoms: C_10  and  C_11
REMARK    5  A    between atoms: C_11  and  C_12
REMARK    6  A    between atoms: C_14  and  C_15
REMARK    7  A    between atoms: C_16  and  O_17
REMARK                            x       y       z     vdW  Elec       q    Type
REMARK                         _______ _______ _______ _____ _____    ______ ____
ROOT
ATOM      1  C   UNL     1       1.502   3.672  20.372  0.00  0.00    +0.000 C 
ATOM      2  C   UNL     1       1.460   5.002  20.504  0.00  0.00    +0.000 C 
ATOM      3  C   UNL     1       2.299   5.895  19.710  0.00  0.00    +0.000 C 
ATOM      4  O   UNL     1       2.228   7.111  19.878  0.00  0.00    +0.000 OA
ATOM      5  C   UNL     1       3.229   5.328  18.715  0.00  0.00    +0.000 A 
ATOM      6  C   UNL     1       4.016   6.191  17.921  0.00  0.00    +0.000 A 
ATOM      7  C   UNL     1       4.929   5.685  16.975  0.00  0.00    +0.000 A 
ATOM      8  C   UNL     1       5.025   4.279  16.800  0.00  0.00    +0.000 A 
ATOM      9  C   UNL     1       5.955   3.625  15.804  0.00  0.00    +0.000 C 
ATOM     10  C   UNL     1       4.202   3.437  17.595  0.00  0.00    +0.000 A 
ATOM     11  C   UNL     1       3.312   3.947  18.559  0.00  0.00    +0.000 A 
ATOM     12  C   UNL     1       2.447   3.049  19.388  0.00  0.00    +0.000 C 
ATOM     13  O   UNL     1       2.473   1.828  19.283  0.00  0.00    +0.000 OA
ENDROOT
BRANCH   7  14
ATOM     14  C   UNL     1       5.723   6.637  16.120  0.00  0.00    +0.000 C 
ATOM     15  C   UNL     1       7.101   7.099  16.544  0.00  0.00    +0.000 C 
ATOM     16  O   UNL     1       5.240   7.058  15.068  0.00  0.00    +0.000 OA
ENDBRANCH   7  14
BRANCH   1  18
ATOM     17  C   UNL     1       1.220   2.313  22.336  0.00  0.00    +0.000 C 
ATOM     18  O   UNL     1       0.726   2.779  21.087  0.00  0.00    +0.000 OA
ENDBRANCH   1  18
BRANCH   6  19
ATOM     19  O   UNL     1       3.867   7.556  18.021  0.00  0.00    +0.000 OA
ATOM     20  H   UNL     1       4.699   8.009  17.748  0.00  0.00    +0.000 HD
ENDBRANCH   6  19
BRANCH  10  21
ATOM     21  O   UNL     1       4.261   2.077  17.439  0.00  0.00    +0.000 OA
ATOM     22  H   UNL     1       3.473   1.613  17.760  0.00  0.00    +0.000 HD
ENDBRANCH  10  21
TORSDOF 4
ENDMDL
MODEL 2
REMARK VINA RESULT:      -6.2      1.279      3.361
REMARK  Name = 
REMARK  7 active torsions:
REMARK  status: ('A' for Active; 'I' for Inactive)
REMARK    1  A    between atoms: C_1  and  O_2
REMARK    2  A    between atoms: O_2  and  C_3
REMARK    3  A    between atoms: C_8  and  O_9
REMARK    4  A    between atoms: C_10  and  C_11
REMARK    5  A    between atoms: C_11  and  C_12
REMARK    6  A    between atoms: C_14  and  C_15
REMARK    7  A    between atoms: C_16  and  O_17
REMARK                            x       y       z     vdW  Elec       q    Type
REMARK                         _______ _______ _______ _____ _____    ______ ____
ROOT
ATOM      1  C   UNL     1       2.163   3.523  19.892  0.00  0.00    +0.000 C 
ATOM      2  C   UNL     1       2.647   2.373  19.409  0.00  0.00    +0.000 C 
ATOM      3  C   UNL     1       3.568   2.326  18.276  0.00  0.00    +0.000 C 
ATOM      4  O   UNL     1       3.975   1.241  17.866  0.00  0.00    +0.000 OA
ATOM      5  C   UNL     1       3.996   3.581  17.632  0.00  0.00    +0.000 A 
ATOM      6  C   UNL     1       4.914   3.541  16.559  0.00  0.00    +0.000 A 
ATOM      7  C   UNL     1       5.331   4.718  15.908  0.00  0.00    +0.000 A 
ATOM      8  C   UNL     1       4.839   5.967  16.371  0.00  0.00    +0.000 A 
ATOM      9  C   UNL     1       5.230   7.293  15.761  0.00  0.00    +0.000 C 
ATOM     10  C   UNL     1       3.937   5.979  17.468  0.00  0.00    +0.000 A 
ATOM     11  C   UNL     1       3.502   4.797  18.098  0.00  0.00    +0.000 A 
ATOM     12  C   UNL     1       2.554   4.823  19.256  0.00  0.00    +0.000 C 
ATOM     13  O   UNL     1       2.098   5.866  19.712  0.00  0.00    +0.000 OA
ENDROOT
BRANCH   7  14
ATOM     14  C   UNL     1       6.339   4.637  14.793  0.00  0.00    +0.000 C 
ATOM     15  C   UNL     1       5.986   3.994  13.469  0.00  0.00    +0.000 C 
ATOM     16  O   UNL     1       7.472   5.088  14.963  0.00  0.00    +0.000 OA
ENDBRANCH   7  14
BRANCH   1  18
ATOM     17  C   UNL     1       1.299   2.588  21.933  0.00  0.00    +0.000 C 
ATOM     18  O   UNL     1       1.299   3.630  20.966  0.00  0.00    +0.000 OA
ENDBRANCH   1  18
BRANCH   6  19
ATOM     19  O   UNL     1       5.463   2.343  16.161  0.00  0.00    +0.000 OA
ATOM     20  H   UNL     1       6.366   2.489  15.793  0.00  0.00    +0.000 HD
ENDBRANCH   6  19
BRANCH  10  21
ATOM     21  O   UNL     1       3.458   7.170  17.948  0.00  0.00    +0.000 OA
ATOM     22  H   UNL     1       3.824   7.419  18.809  0.00  0.00    +0.000 HD
ENDBRANCH  10  21
TORSDOF 4
ENDMDL
MODEL 3
REMARK VINA RESULT:      -5.9      2.236      4.873
REMARK  Name = 
REMARK  7 active torsions:
REMARK  status: ('A' for Active; 'I' for Inactive)
REMARK    1  A    between atoms: C_1  and  O_2
REMARK    2  A    between atoms: O_2  and  C_3
REMARK    3  A    between atoms: C_8  and  O_9
REMARK    4  A    between atoms: C_10  and  C_11
REMARK    5  A    between atoms: C_11  and  C_12
REMARK    6  A    between atoms: C_14  and  C_15
REMARK    7  A    between atoms: C_16  and  O_17
REMARK                            x       y       z     vdW  Elec       q    Type
REMARK                         _______ _______ _______ _____ _____    ______ ____
ROOT
ATOM      1  C   UNL     1       1.789   8.952  18.966  0.00  0.00    +0.000 C 
ATOM      2  C   UNL     1       1.329   8.302  20.041  0.00  0.00    +0.000 C 
ATOM      3  C   UNL     1       1.679   6.913  20.326  0.00  0.00    +0.000 C 
ATOM      4  O   UNL     1       1.221   6.360  21.324  0.00  0.00    +0.000 OA
ATOM      5  C   UNL     1       2.575   6.184  19.409  0.00  0.00    +0.000 A 
ATOM      6  C   UNL     1       2.942   4.852  19.700  0.00  0.00    +0.000 A 
ATOM      7  C   UNL     1       3.781   4.119  18.838  0.00  0.00    +0.000 A 
ATOM      8  C   UNL     1       4.289   4.754  17.674  0.00  0.00    +0.000 A 
ATOM      9  C   UNL     1       5.209   4.072  16.688  0.00  0.00    +0.000 C 
ATOM     10  C   UNL     1       3.923   6.103  17.420  0.00  0.00    +0.000 A 
ATOM     11  C   UNL     1       3.062   6.822  18.271  0.00  0.00    +0.000 A 
ATOM     12  C   UNL     1       2.686   8.245  17.994  0.00  0.00    +0.000 C 
ATOM     13  O   UNL     1       3.095   8.856  17.013  0.00  0.00    +0.000 OA
ENDROOT
BRANCH   7  14
ATOM     14  C   UNL     1       4.180   2.714  19.202  0.00  0.00    +0.000 C 
ATOM     15  C   UNL     1       3.544   1.522  18.520  0.00  0.00    +0.000 C 
ATOM     16  O   UNL     1       5.028   2.529  20.076  0.00  0.00    +0.000 OA
ENDBRANCH   7  14
BRANCH   1  18
ATOM     17  C   UNL     1       0.234  10.785  19.032  0.00  0.00    +0.000 C 
ATOM     18  O   UNL     1       1.502  10.266  18.651  0.00  0.00    +0.000 OA
ENDBRANCH   1  18
BRANCH   6  19
ATOM     19  O   UNL     1       2.526   4.257  20.870  0.00  0.00    +0.000 OA
ATOM     20  H   UNL     1       3.272   3.763  21.284  0.00  0.00    +0.000 HD
ENDBRANCH   6  19
BRANCH  10  21
ATOM     21  O   UNL     1       4.409   6.748  16.313  0.00  0.00    +0.000 OA
ATOM     22  H   UNL     1       4.754   7.634  16.498  0.00  0.00    +0.000 HD
ENDBRANCH  10  21
TORSDOF 4
ENDMDL
MODEL 4
REMARK VINA RESULT:      -5.8      2.021      5.372
REMARK  Name = 
REMARK  7 active torsions:
REMARK  status: ('A' for Active; 'I' for Inactive)
REMARK    1  A    between atoms: C_1  and  O_2
REMARK    2  A    between atoms: O_2  and  C_3
REMARK    3  A    between atoms: C_8  and  O_9
REMARK    4  A    between atoms: C_10  and  C_11
REMARK    5  A    between atoms: C_11  and  C_12
REMARK    6  A    between atoms: C_14  and  C_15
REMARK    7  A    between atoms: C_16  and  O_17
REMARK                            x       y       z     vdW  Elec       q    Type
REMARK                         _______ _______ _______ _____ _____    ______ ____
ROOT
ATOM      1  C   UNL     1       2.736   8.408  18.123  0.00  0.00    +0.000 C 
ATOM      2  C   UNL     1       3.658   7.929  17.280  0.00  0.00    +0.000 C 
ATOM      3  C   UNL     1       4.189   6.573  17.388  0.00  0.00    +0.000 C 
ATOM      4  O   UNL     1       5.042   6.186  16.592  0.00  0.00    +0.000 OA
ATOM      5  C   UNL     1       3.700   5.681  18.456  0.00  0.00    +0.000 A 
ATOM      6  C   UNL     1       4.186   4.358  18.541  0.00  0.00    +0.000 A 
ATOM      7  C   UNL     1       3.756   3.484  19.559  0.00  0.00    +0.000 A 
ATOM      8  C   UNL     1       2.788   3.943  20.491  0.00  0.00    +0.000 A 
ATOM      9  C   UNL     1       2.241   3.089  21.612  0.00  0.00    +0.000 C 
ATOM     10  C   UNL     1       2.297   5.270  20.365  0.00  0.00    +0.000 A 
ATOM     11  C   UNL     1       2.752   6.149  19.362  0.00  0.00    +0.000 A 
ATOM     12  C   UNL     1       2.225   7.544  19.238  0.00  0.00    +0.000 C 
ATOM     13  O   UNL     1       1.382   8.002  20.002  0.00  0.00    +0.000 OA
ENDROOT
BRANCH   7  14
ATOM     14  C   UNL     1       4.269   2.069  19.595  0.00  0.00    +0.000 C 
ATOM     15  C   UNL     1       3.701   1.011  18.674  0.00  0.00    +0.000 C 
ATOM     16  O   UNL     1       5.155   1.763  20.393  0.00  0.00    +0.000 OA
ENDBRANCH   7  14
BRANCH   1  18
ATOM     17  C   UNL     1       0.791   9.791  17.836  0.00  0.00    +0.000 C 
ATOM     18  O   UNL     1       2.189   9.675  18.064  0.00  0.00    +0.000 OA
ENDBRANCH   1  18
BRANCH   6  19
ATOM     19  O   UNL     1       5.059   3.876  17.592  0.00  0.00    +0.000 OA
ATOM     20  H   UNL     1       5.741   3.305  18.016  0.00  0.00    +0.000 HD
ENDBRANCH   6  19
BRANCH  10  21
ATOM     21  O   UNL     1       1.351   5.737  21.239  0.00  0.00    +0.000 OA
ATOM     22  H   UNL     1       0.942   5.044  21.777  0.00  0.00    +0.000 HD
ENDBRANCH  10  21
TORSDOF 4
ENDMDL
MODEL 5
REMARK VINA RESULT:      -5.8      2.344      5.846
REMARK  Name = 
REMARK  7 active torsions:
REMARK  status: ('A' for Active; 'I' for Inactive)
REMARK    1  A    between atoms: C_1  and  O_2
REMARK    2  A    between atoms: O_2  and  C_3
REMARK    3  A    between atoms: C_8  and  O_9
REMARK    4  A    between atoms: C_10  and  C_11
REMARK    5  A    between atoms: C_11  and  C_12
REMARK    6  A    between atoms: C_14  and  C_15
REMARK    7  A    between atoms: C_16  and  O_17
REMARK                            x       y       z     vdW  Elec       q    Type
REMARK                         _______ _______ _______ _____ _____    ______ ____
ROOT
ATOM      1  C   UNL     1       4.780   4.978  17.230  0.00  0.00    +0.000 C 
ATOM      2  C   UNL     1       4.526   4.254  18.325  0.00  0.00    +0.000 C 
ATOM      3  C   UNL     1       3.662   4.734  19.400  0.00  0.00    +0.000 C 
ATOM      4  O   UNL     1       3.471   4.032  20.390  0.00  0.00    +0.000 OA
ATOM      5  C   UNL     1       3.033   6.063  19.289  0.00  0.00    +0.000 A 
ATOM      6  C   UNL     1       2.169   6.516  20.311  0.00  0.00    +0.000 A 
ATOM      7  C   UNL     1       1.564   7.787  20.248  0.00  0.00    +0.000 A 
ATOM      8  C   UNL     1       1.807   8.605  19.113  0.00  0.00    +0.000 A 
ATOM      9  C   UNL     1       1.200   9.977  18.930  0.00  0.00    +0.000 C 
ATOM     10  C   UNL     1       2.660   8.113  18.089  0.00  0.00    +0.000 A 
ATOM     11  C   UNL     1       3.284   6.853  18.170  0.00  0.00    +0.000 A 
ATOM     12  C   UNL     1       4.178   6.344  17.083  0.00  0.00    +0.000 C 
ATOM     13  O   UNL     1       4.424   6.994  16.072  0.00  0.00    +0.000 OA
ENDROOT
BRANCH   7  14
ATOM     14  C   UNL     1       0.620   8.219  21.338  0.00  0.00    +0.000 C 
ATOM     15  C   UNL     1       1.057   9.203  22.402  0.00  0.00    +0.000 C 
ATOM     16  O   UNL     1      -0.520   7.756  21.375  0.00  0.00    +0.000 OA
ENDBRANCH   7  14
BRANCH   1  18
ATOM     17  C   UNL     1       6.975   4.441  16.408  0.00  0.00    +0.000 C 
ATOM     18  O   UNL     1       5.578   4.572  16.177  0.00  0.00    +0.000 OA
ENDBRANCH   1  18
BRANCH   6  19
ATOM     19  O   UNL     1       1.858   5.696  21.372  0.00  0.00    +0.000 OA
ATOM     20  H   UNL     1       2.410   4.880  21.343  0.00  0.00    +0.000 HD
ENDBRANCH   6  19
BRANCH  10  21
ATOM     21  O   UNL     1       2.902   8.873  16.975  0.00  0.00    +0.000 OA
ATOM     22  H   UNL     1       2.452   8.552  16.179  0.00  0.00    +0.000 HD
ENDBRANCH  10  21
TORSDOF 4
ENDMDL
MODEL 6
REMARK VINA RESULT:      -5.7      1.321      5.391
REMARK  Name = 
REMARK  7 active torsions:
REMARK  status: ('A' for Active; 'I' for Inactive)
REMARK    1  A    between atoms: C_1  and  O_2
REMARK    2  A    between atoms: O_2  and  C_3
REMARK    3  A    between atoms: C_8  and  O_9
REMARK    4  A    between atoms: C_10  and  C_11
REMARK    5  A    between atoms: C_11  and  C_12
REMARK    6  A    between atoms: C_14  and  C_15
REMARK    7  A    between atoms: C_16  and  O_17
REMARK                            x       y       z     vdW  Elec       q    Type
REMARK                         _______ _______ _______ _____ _____    ______ ____
ROOT
ATOM      1  C   UNL     1       5.878   5.546  15.662  0.00  0.00    +0.000 C 
ATOM      2  C   UNL     1       5.374   6.657  16.209  0.00  0.00    +0.000 C 
ATOM      3  C   UNL     1       4.374   6.622  17.273  0.00  0.00    +0.000 C 
ATOM      4  O   UNL     1       3.936   7.674  17.734  0.00  0.00    +0.000 OA
ATOM      5  C   UNL     1       3.895   5.323  17.781  0.00  0.00    +0.000 A 
ATOM      6  C   UNL     1       2.954   5.286  18.834  0.00  0.00    +0.000 A 
ATOM      7  C   UNL     1       2.461   4.064  19.331  0.00  0.00    +0.000 A 
ATOM      8  C   UNL     1       2.952   2.851  18.779  0.00  0.00    +0.000 A 
ATOM      9  C   UNL     1       2.508   1.484  19.245  0.00  0.00    +0.000 C 
ATOM     10  C   UNL     1       3.917   2.919  17.739  0.00  0.00    +0.000 A 
ATOM     11  C   UNL     1       4.386   4.144  17.226  0.00  0.00    +0.000 A 
ATOM     12  C   UNL     1       5.406   4.202  16.132  0.00  0.00    +0.000 C 
ATOM     13  O   UNL     1       5.879   3.195  15.616  0.00  0.00    +0.000 OA
ENDROOT
BRANCH   7  14
ATOM     14  C   UNL     1       1.487   4.064  20.480  0.00  0.00    +0.000 C 
ATOM     15  C   UNL     1       1.807   3.346  21.772  0.00  0.00    +0.000 C 
ATOM     16  O   UNL     1       0.408   4.646  20.362  0.00  0.00    +0.000 OA
ENDBRANCH   7  14
BRANCH   1  18
ATOM     17  C   UNL     1       6.590   4.692  13.530  0.00  0.00    +0.000 C 
ATOM     18  O   UNL     1       6.832   5.516  14.662  0.00  0.00    +0.000 OA
ENDBRANCH   1  18
BRANCH   6  19
ATOM     19  O   UNL     1       2.538   6.453  19.434  0.00  0.00    +0.000 OA
ATOM     20  H   UNL     1       1.561   6.551  19.344  0.00  0.00    +0.000 HD
ENDBRANCH   6  19
BRANCH  10  21
ATOM     21  O   UNL     1       4.422   1.766  17.196  0.00  0.00    +0.000 OA
ATOM     22  H   UNL     1       5.210   1.904  16.652  0.00  0.00    +0.000 HD
ENDBRANCH  10  21
TORSDOF 4
ENDMDL
MODEL 7
REMARK VINA RESULT:      -5.7      1.777      3.717
REMARK  Name = 
REMARK  7 active torsions:
REMARK  status: ('A' for Active; 'I' for Inactive)
REMARK    1  A    between atoms: C_1  and  O_2
REMARK    2  A    between atoms: O_2  and  C_3
REMARK    3  A    between atoms: C_8  and  O_9
REMARK    4  A    between atoms: C_10  and  C_11
REMARK    5  A    between atoms: C_11  and  C_12
REMARK    6  A    between atoms: C_14  and  C_15
REMARK    7  A    between atoms: C_16  and  O_17
REMARK                            x       y       z     vdW  Elec       q    Type
REMARK                         _______ _______ _______ _____ _____    ______ ____
ROOT
ATOM      1  C   UNL     1       1.788   6.408  20.520  0.00  0.00    +0.000 C 
ATOM      2  C   UNL     1       2.263   5.208  20.873  0.00  0.00    +0.000 C 
ATOM      3  C   UNL     1       3.283   4.509  20.097  0.00  0.00    +0.000 C 
ATOM      4  O   UNL     1       3.677   3.403  20.462  0.00  0.00    +0.000 OA
ATOM      5  C   UNL     1       3.827   5.135  18.877  0.00  0.00    +0.000 A 
ATOM      6  C   UNL     1       4.839   4.477  18.144  0.00  0.00    +0.000 A 
ATOM      7  C   UNL     1       5.368   5.036  16.964  0.00  0.00    +0.000 A 
ATOM      8  C   UNL     1       4.893   6.303  16.534  0.00  0.00    +0.000 A 
ATOM      9  C   UNL     1       5.400   7.005  15.296  0.00  0.00    +0.000 C 
ATOM     10  C   UNL     1       3.894   6.953  17.306  0.00  0.00    +0.000 A 
ATOM     11  C   UNL     1       3.347   6.377  18.469  0.00  0.00    +0.000 A 
ATOM     12  C   UNL     1       2.297   7.074  19.276  0.00  0.00    +0.000 C 
ATOM     13  O   UNL     1       1.848   8.172  18.967  0.00  0.00    +0.000 OA
ENDROOT
BRANCH   7  14
ATOM     14  C   UNL     1       6.472   4.322  16.231  0.00  0.00    +0.000 C 
ATOM     15  C   UNL     1       6.204   3.609  14.923  0.00  0.00    +0.000 C 
ATOM     16  O   UNL     1       7.608   4.305  16.707  0.00  0.00    +0.000 OA
ENDBRANCH   7  14
BRANCH   1  18
ATOM     17  C   UNL     1       1.208   8.373  21.777  0.00  0.00    +0.000 C 
ATOM     18  O   UNL     1       0.833   7.121  21.219  0.00  0.00    +0.000 OA
ENDBRANCH   1  18
BRANCH   6  19
ATOM     19  O   UNL     1       5.368   3.291  18.601  0.00  0.00    +0.000 OA
ATOM     20  H   UNL     1       4.728   2.556  18.455  0.00  0.00    +0.000 HD
ENDBRANCH   6  19
BRANCH  10  21
ATOM     21  O   UNL     1       3.426   8.184  16.925  0.00  0.00    +0.000 OA
ATOM     22  H   UNL     1       3.887   8.556  16.159  0.00  0.00    +0.000 HD
ENDBRANCH  10  21
TORSDOF 4
ENDMDL
MODEL 8
REMARK VINA RESULT:      -5.7      7.008     10.054
REMARK  Name = 
REMARK  7 active torsions:
REMARK  status: ('A' for Active; 'I' for Inactive)
REMARK    1  A    between atoms: C_1  and  O_2
REMARK    2  A    between atoms: O_2  and  C_3
REMARK    3  A    between atoms: C_8  and  O_9
REMARK    4  A    between atoms: C_10  and  C_11
REMARK    5  A    between atoms: C_11  and  C_12
REMARK    6  A    between atoms: C_14  and  C_15
REMARK    7  A    between atoms: C_16  and  O_17
REMARK                            x       y       z     vdW  Elec       q    Type
REMARK                         _______ _______ _______ _____ _____    ______ ____
ROOT
ATOM      1  C   UNL     1       0.598   9.889  18.830  0.00  0.00    +0.000 C 
ATOM      2  C   UNL     1       1.079   9.642  20.053  0.00  0.00    +0.000 C 
ATOM      3  C   UNL     1       0.457  10.175  21.262  0.00  0.00    +0.000 C 
ATOM      4  O   UNL     1       0.946   9.926  22.362  0.00  0.00    +0.000 OA
ATOM      5  C   UNL     1      -0.750  11.015  21.150  0.00  0.00    +0.000 A 
ATOM      6  C   UNL     1      -1.375  11.503  22.319  0.00  0.00    +0.000 A 
ATOM      7  C   UNL     1      -2.518  12.323  22.250  0.00  0.00    +0.000 A 
ATOM      8  C   UNL     1      -3.066  12.628  20.976  0.00  0.00    +0.000 A 
ATOM      9  C   UNL     1      -4.298  13.482  20.783  0.00  0.00    +0.000 C 
ATOM     10  C   UNL     1      -2.432  12.102  19.819  0.00  0.00    +0.000 A 
ATOM     11  C   UNL     1      -1.272  11.306  19.892  0.00  0.00    +0.000 A 
ATOM     12  C   UNL     1      -0.616  10.754  18.666  0.00  0.00    +0.000 C 
ATOM     13  O   UNL     1      -1.040  10.971  17.536  0.00  0.00    +0.000 OA
ENDROOT
BRANCH   7  14
ATOM     14  C   UNL     1      -3.177  12.793  23.520  0.00  0.00    +0.000 C 
ATOM     15  C   UNL     1      -2.906  14.176  24.072  0.00  0.00    +0.000 C 
ATOM     16  O   UNL     1      -3.936  12.038  24.127  0.00  0.00    +0.000 OA
ENDBRANCH   7  14
BRANCH   1  18
ATOM     17  C   UNL     1       2.199   8.462  17.741  0.00  0.00    +0.000 C 
ATOM     18  O   UNL     1       1.137   9.403  17.653  0.00  0.00    +0.000 OA
ENDBRANCH   1  18
BRANCH   6  19
ATOM     19  O   UNL     1      -0.903  11.141  23.561  0.00  0.00    +0.000 OA
ATOM     20  H   UNL     1      -1.574  10.594  24.033  0.00  0.00    +0.000 HD
ENDBRANCH   6  19
BRANCH  10  21
ATOM     21  O   UNL     1      -2.946  12.366  18.577  0.00  0.00    +0.000 OA
ATOM     22  H   UNL     1      -3.808  11.956  18.416  0.00  0.00    +0.000 HD
ENDBRANCH  10  21
TORSDOF 4
ENDMDL
MODEL 9
REMARK VINA RESULT:      -5.6      1.993      5.527
REMARK  Name = 
REMARK  7 active torsions:
REMARK  status: ('A' for Active; 'I' for Inactive)
REMARK    1  A    between atoms: C_1  and  O_2
REMARK    2  A    between atoms: O_2  and  C_3
REMARK    3  A    between atoms: C_8  and  O_9
REMARK    4  A    between atoms: C_10  and  C_11
REMARK    5  A    between atoms: C_11  and  C_12
REMARK    6  A    between atoms: C_14  and  C_15
REMARK    7  A    between atoms: C_16  and  O_17
REMARK                            x       y       z     vdW  Elec       q    Type
REMARK                         _______ _______ _______ _____ _____    ______ ____
ROOT
ATOM      1  C   UNL     1       6.492   7.215  17.328  0.00  0.00    +0.000 C 
ATOM      2  C   UNL     1       5.340   7.809  16.995  0.00  0.00    +0.000 C 
ATOM      3  C   UNL     1       4.038   7.230  17.315  0.00  0.00    +0.000 C 
ATOM      4  O   UNL     1       3.011   7.813  16.977  0.00  0.00    +0.000 OA
ATOM      5  C   UNL     1       3.970   5.946  18.038  0.00  0.00    +0.000 A 
ATOM      6  C   UNL     1       2.712   5.402  18.381  0.00  0.00    +0.000 A 
ATOM      7  C   UNL     1       2.608   4.169  19.054  0.00  0.00    +0.000 A 
ATOM      8  C   UNL     1       3.797   3.487  19.423  0.00  0.00    +0.000 A 
ATOM      9  C   UNL     1       3.806   2.169  20.162  0.00  0.00    +0.000 C 
ATOM     10  C   UNL     1       5.048   4.072  19.088  0.00  0.00    +0.000 A 
ATOM     11  C   UNL     1       5.147   5.291  18.390  0.00  0.00    +0.000 A 
ATOM     12  C   UNL     1       6.471   5.898  18.046  0.00  0.00    +0.000 C 
ATOM     13  O   UNL     1       7.536   5.368  18.341  0.00  0.00    +0.000 OA
ENDROOT
BRANCH   7  14
ATOM     14  C   UNL     1       1.250   3.640  19.435  0.00  0.00    +0.000 C 
ATOM     15  C   UNL     1       0.639   2.466  18.702  0.00  0.00    +0.000 C 
ATOM     16  O   UNL     1       0.621   4.178  20.347  0.00  0.00    +0.000 OA
ENDBRANCH   7  14
BRANCH   1  18
ATOM     17  C   UNL     1       8.184   8.858  17.793  0.00  0.00    +0.000 C 
ATOM     18  O   UNL     1       7.750   7.718  17.062  0.00  0.00    +0.000 OA
ENDBRANCH   1  18
BRANCH   6  19
ATOM     19  O   UNL     1       1.556   6.097  18.106  0.00  0.00    +0.000 OA
ATOM     20  H   UNL     1       0.772   5.510  18.213  0.00  0.00    +0.000 HD
ENDBRANCH   6  19
BRANCH  10  21
ATOM     21  O   UNL     1       6.214   3.445  19.444  0.00  0.00    +0.000 OA
ATOM     22  H   UNL     1       6.305   3.303  20.397  0.00  0.00    +0.000 HD
ENDBRANCH  10  21
TORSDOF 4
ENDMDL
