MODEL 1
REMARK VINA RESULT:      -7.4      0.000      0.000
REMARK  Name = 
REMARK  9 active torsions:
REMARK  status: ('A' for Active; 'I' for Inactive)
REMARK    1  A    between atoms: C_1  and  C_2
REMARK    2  A    between atoms: C_2  and  C_3
REMARK    3  A    between atoms: C_3  and  O_4
REMARK    4  A    between atoms: O_4  and  C_5
REMARK    5  A    between atoms: C_8  and  C_9
REMARK    6  A    between atoms: C_9  and  N_10
REMARK    7  A    between atoms: C_21  and  O_22
REMARK    8  A    between atoms: O_22  and  C_23
REMARK    9  A    between atoms: C_23  and  C_24
REMARK                            x       y       z     vdW  Elec       q    Type
REMARK                         _______ _______ _______ _____ _____    ______ ____
ROOT
ATOM      1  C   UNL     1       7.280   6.425  17.280  0.00  0.00    +0.000 A 
ATOM      2  C   UNL     1       6.657   6.130  18.517  0.00  0.00    +0.000 A 
ATOM      3  C   UNL     1       5.731   5.087  18.662  0.00  0.00    +0.000 A 
ATOM      4  C   UNL     1       5.395   4.294  17.574  0.00  0.00    +0.000 A 
ATOM      5  C   UNL     1       6.032   4.558  16.351  0.00  0.00    +0.000 A 
ATOM      6  C   UNL     1       6.946   5.615  16.186  0.00  0.00    +0.000 A 
ENDROOT
BRANCH   1   7
ATOM      7  O   UNL     1       8.194   7.437  17.115  0.00  0.00    +0.000 OA
BRANCH   7   8
ATOM      8  C   UNL     1       7.801   8.729  17.594  0.00  0.00    +0.000 C 
BRANCH   8  10
ATOM      9  C   UNL     1       9.180  10.723  18.347  0.00  0.00    +0.000 C 
ATOM     10  C   UNL     1       8.796   9.283  18.615  0.00  0.00    +0.000 C 
ENDBRANCH   8  10
ENDBRANCH   7   8
ENDBRANCH   1   7
BRANCH   4  11
ATOM     11  C   UNL     1       4.219   3.338  17.589  0.00  0.00    +0.000 C 
BRANCH  11  12
ATOM     12  N   UNL     1       3.885   2.640  18.845  0.00  0.00    +0.000 NA
ATOM     13  C   UNL     1       2.838   1.620  18.632  0.00  0.00    +0.000 C 
ATOM     14  C   UNL     1       1.377   2.127  18.643  0.00  0.00    +0.000 C 
ATOM     15  O   UNL     1       1.223   3.541  18.503  0.00  0.00    +0.000 OA
ATOM     16  C   UNL     1       2.038   4.348  19.371  0.00  0.00    +0.000 C 
ATOM     17  C   UNL     1       2.364   5.643  18.616  0.00  0.00    +0.000 C 
ATOM     18  C   UNL     1       2.157   6.772  19.602  0.00  0.00    +0.000 C 
ATOM     19  O   UNL     1       1.789   6.182  20.849  0.00  0.00    +0.000 OA
ATOM     20  C   UNL     1       1.223   4.904  20.542  0.00  0.00    +0.000 C 
ATOM     21  C   UNL     1       3.327   3.603  19.842  0.00  0.00    +0.000 C 
ENDBRANCH  11  12
ENDBRANCH   4  11
BRANCH   6  22
ATOM     22  O   UNL     1       7.435   5.668  14.910  0.00  0.00    +0.000 OA
BRANCH  22  23
ATOM     23  C   UNL     1       6.960   4.776  13.907  0.00  0.00    +0.000 C 
ATOM     24  C   UNL     1       7.586   4.978  12.531  0.00  0.00    +0.000 C 
ENDBRANCH  22  23
ENDBRANCH   6  22
TORSDOF 7
ENDMDL
MODEL 2
REMARK VINA RESULT:      -7.4      3.304      7.335
REMARK  Name = 
REMARK  9 active torsions:
REMARK  status: ('A' for Active; 'I' for Inactive)
REMARK    1  A    between atoms: C_1  and  C_2
REMARK    2  A    between atoms: C_2  and  C_3
REMARK    3  A    between atoms: C_3  and  O_4
REMARK    4  A    between atoms: O_4  and  C_5
REMARK    5  A    between atoms: C_8  and  C_9
REMARK    6  A    between atoms: C_9  and  N_10
REMARK    7  A    between atoms: C_21  and  O_22
REMARK    8  A    between atoms: O_22  and  C_23
REMARK    9  A    between atoms: C_23  and  C_24
REMARK                            x       y       z     vdW  Elec       q    Type
REMARK                         _______ _______ _______ _____ _____    ______ ____
ROOT
ATOM      1  C   UNL     1       1.132   9.890  18.735  0.00  0.00    +0.000 A 
ATOM      2  C   UNL     1       1.905   9.380  17.666  0.00  0.00    +0.000 A 
ATOM      3  C   UNL     1       2.569   8.147  17.739  0.00  0.00    +0.000 A 
ATOM      4  C   UNL     1       2.481   7.373  18.889  0.00  0.00    +0.000 A 
ATOM      5  C   UNL     1       1.690   7.857  19.943  0.00  0.00    +0.000 A 
ATOM      6  C   UNL     1       1.037   9.102  19.890  0.00  0.00    +0.000 A 
ENDROOT
BRANCH   1   7
ATOM      7  O   UNL     1       0.467  11.092  18.684  0.00  0.00    +0.000 OA
BRANCH   7   8
ATOM      8  C   UNL     1      -0.962  11.022  18.629  0.00  0.00    +0.000 C 
BRANCH   8  10
ATOM      9  C   UNL     1      -2.528  10.720  16.653  0.00  0.00    +0.000 C 
ATOM     10  C   UNL     1      -1.444  10.099  17.509  0.00  0.00    +0.000 C 
ENDBRANCH   8  10
ENDBRANCH   7   8
ENDBRANCH   1   7
BRANCH   4  11
ATOM     11  C   UNL     1       3.376   6.177  19.142  0.00  0.00    +0.000 C 
BRANCH  11  12
ATOM     12  N   UNL     1       3.272   5.008  18.249  0.00  0.00    +0.000 NA
ATOM     13  C   UNL     1       3.331   3.743  19.008  0.00  0.00    +0.000 C 
ATOM     14  C   UNL     1       4.744   3.221  19.359  0.00  0.00    +0.000 C 
ATOM     15  O   UNL     1       5.796   4.179  19.226  0.00  0.00    +0.000 OA
ATOM     16  C   UNL     1       5.826   4.906  17.985  0.00  0.00    +0.000 C 
ATOM     17  C   UNL     1       6.388   6.301  18.289  0.00  0.00    +0.000 C 
ATOM     18  C   UNL     1       7.395   6.599  17.201  0.00  0.00    +0.000 C 
ATOM     19  O   UNL     1       7.387   5.489  16.302  0.00  0.00    +0.000 OA
ATOM     20  C   UNL     1       6.911   4.366  17.050  0.00  0.00    +0.000 C 
ATOM     21  C   UNL     1       4.425   4.974  17.299  0.00  0.00    +0.000 C 
ENDBRANCH  11  12
ENDBRANCH   4  11
BRANCH   6  22
ATOM     22  O   UNL     1       0.325   9.350  21.031  0.00  0.00    +0.000 OA
BRANCH  22  23
ATOM     23  C   UNL     1       0.896   9.117  22.315  0.00  0.00    +0.000 C 
ATOM     24  C   UNL     1       0.001   9.503  23.487  0.00  0.00    +0.000 C 
ENDBRANCH  22  23
ENDBRANCH   6  22
TORSDOF 7
ENDMDL
MODEL 3
REMARK VINA RESULT:      -7.2      3.385      6.993
REMARK  Name = 
REMARK  9 active torsions:
REMARK  status: ('A' for Active; 'I' for Inactive)
REMARK    1  A    between atoms: C_1  and  C_2
REMARK    2  A    between atoms: C_2  and  C_3
REMARK    3  A    between atoms: C_3  and  O_4
REMARK    4  A    between atoms: O_4  and  C_5
REMARK    5  A    between atoms: C_8  and  C_9
REMARK    6  A    between atoms: C_9  and  N_10
REMARK    7  A    between atoms: C_21  and  O_22
REMARK    8  A    between atoms: O_22  and  C_23
REMARK    9  A    between atoms: C_23  and  C_24
REMARK                            x       y       z     vdW  Elec       q    Type
REMARK                         _______ _______ _______ _____ _____    ______ ____
ROOT
ATOM      1  C   UNL     1       1.043   9.724  19.368  0.00  0.00    +0.000 A 
ATOM      2  C   UNL     1       1.478   9.217  18.120  0.00  0.00    +0.000 A 
ATOM      3  C   UNL     1       2.136   7.985  17.998  0.00  0.00    +0.000 A 
ATOM      4  C   UNL     1       2.382   7.209  19.122  0.00  0.00    +0.000 A 
ATOM      5  C   UNL     1       1.925   7.689  20.360  0.00  0.00    +0.000 A 
ATOM      6  C   UNL     1       1.283   8.933  20.500  0.00  0.00    +0.000 A 
ENDROOT
BRANCH   1   7
ATOM      7  O   UNL     1       0.390  10.925  19.512  0.00  0.00    +0.000 OA
BRANCH   7   8
ATOM      8  C   UNL     1       1.219  12.071  19.740  0.00  0.00    +0.000 C 
BRANCH   8  10
ATOM      9  C   UNL     1       2.691  13.738  18.516  0.00  0.00    +0.000 C 
ATOM     10  C   UNL     1       1.454  12.867  18.456  0.00  0.00    +0.000 C 
ENDBRANCH   8  10
ENDBRANCH   7   8
ENDBRANCH   1   7
BRANCH   4  11
ATOM     11  C   UNL     1       3.314   6.014  19.106  0.00  0.00    +0.000 C 
BRANCH  11  12
ATOM     12  N   UNL     1       3.191   5.031  18.012  0.00  0.00    +0.000 NA
ATOM     13  C   UNL     1       3.147   3.650  18.532  0.00  0.00    +0.000 C 
ATOM     14  C   UNL     1       4.511   2.989  18.836  0.00  0.00    +0.000 C 
ATOM     15  O   UNL     1       5.618   3.889  18.919  0.00  0.00    +0.000 OA
ATOM     16  C   UNL     1       5.746   4.823  17.832  0.00  0.00    +0.000 C 
ATOM     17  C   UNL     1       6.365   6.105  18.404  0.00  0.00    +0.000 C 
ATOM     18  C   UNL     1       7.438   6.531  17.426  0.00  0.00    +0.000 C 
ATOM     19  O   UNL     1       7.415   5.601  16.342  0.00  0.00    +0.000 OA
ATOM     20  C   UNL     1       6.845   4.394  16.856  0.00  0.00    +0.000 C 
ATOM     21  C   UNL     1       4.385   5.097  17.116  0.00  0.00    +0.000 C 
ENDBRANCH  11  12
ENDBRANCH   4  11
BRANCH   6  22
ATOM     22  O   UNL     1       0.928   9.178  21.797  0.00  0.00    +0.000 OA
BRANCH  22  23
ATOM     23  C   UNL     1      -0.434   9.107  22.209  0.00  0.00    +0.000 C 
ATOM     24  C   UNL     1      -0.893  10.269  23.082  0.00  0.00    +0.000 C 
ENDBRANCH  22  23
ENDBRANCH   6  22
TORSDOF 7
ENDMDL
MODEL 4
REMARK VINA RESULT:      -7.2      3.495      7.223
REMARK  Name = 
REMARK  9 active torsions:
REMARK  status: ('A' for Active; 'I' for Inactive)
REMARK    1  A    between atoms: C_1  and  C_2
REMARK    2  A    between atoms: C_2  and  C_3
REMARK    3  A    between atoms: C_3  and  O_4
REMARK    4  A    between atoms: O_4  and  C_5
REMARK    5  A    between atoms: C_8  and  C_9
REMARK    6  A    between atoms: C_9  and  N_10
REMARK    7  A    between atoms: C_21  and  O_22
REMARK    8  A    between atoms: O_22  and  C_23
REMARK    9  A    between atoms: C_23  and  C_24
REMARK                            x       y       z     vdW  Elec       q    Type
REMARK                         _______ _______ _______ _____ _____    ______ ____
ROOT
ATOM      1  C   UNL     1       1.030  10.064  19.488  0.00  0.00    +0.000 A 
ATOM      2  C   UNL     1       1.395   9.846  18.138  0.00  0.00    +0.000 A 
ATOM      3  C   UNL     1       2.006   8.659  17.707  0.00  0.00    +0.000 A 
ATOM      4  C   UNL     1       2.272   7.641  18.612  0.00  0.00    +0.000 A 
ATOM      5  C   UNL     1       1.883   7.836  19.947  0.00  0.00    +0.000 A 
ATOM      6  C   UNL     1       1.290   9.029  20.397  0.00  0.00    +0.000 A 
ENDROOT
BRANCH   1   7
ATOM      7  O   UNL     1       0.425  11.215  19.933  0.00  0.00    +0.000 OA
BRANCH   7   8
ATOM      8  C   UNL     1      -0.619  11.741  19.105  0.00  0.00    +0.000 C 
BRANCH   8  10
ATOM      9  C   UNL     1      -1.782  13.047  20.945  0.00  0.00    +0.000 C 
ATOM     10  C   UNL     1      -1.910  11.965  19.892  0.00  0.00    +0.000 C 
ENDBRANCH   8  10
ENDBRANCH   7   8
ENDBRANCH   1   7
BRANCH   4  11
ATOM     11  C   UNL     1       3.161   6.460  18.279  0.00  0.00    +0.000 C 
BRANCH  11  12
ATOM     12  N   UNL     1       3.982   5.862  19.349  0.00  0.00    +0.000 NA
ATOM     13  C   UNL     1       5.330   5.512  18.861  0.00  0.00    +0.000 C 
ATOM     14  C   UNL     1       5.465   4.152  18.138  0.00  0.00    +0.000 C 
ATOM     15  O   UNL     1       4.233   3.563  17.716  0.00  0.00    +0.000 OA
ATOM     16  C   UNL     1       3.197   3.499  18.713  0.00  0.00    +0.000 C 
ATOM     17  C   UNL     1       1.854   3.628  17.984  0.00  0.00    +0.000 C 
ATOM     18  C   UNL     1       0.946   2.573  18.576  0.00  0.00    +0.000 C 
ATOM     19  O   UNL     1       1.683   1.912  19.606  0.00  0.00    +0.000 OA
ATOM     20  C   UNL     1       3.067   2.087  19.291  0.00  0.00    +0.000 C 
ATOM     21  C   UNL     1       3.369   4.584  19.823  0.00  0.00    +0.000 C 
ENDBRANCH  11  12
ENDBRANCH   4  11
BRANCH   6  22
ATOM     22  O   UNL     1       0.997   8.979  21.731  0.00  0.00    +0.000 OA
BRANCH  22  23
ATOM     23  C   UNL     1      -0.353   8.952  22.184  0.00  0.00    +0.000 C 
ATOM     24  C   UNL     1      -0.734  10.100  23.111  0.00  0.00    +0.000 C 
ENDBRANCH  22  23
ENDBRANCH   6  22
TORSDOF 7
ENDMDL
MODEL 5
REMARK VINA RESULT:      -7.2      3.280      7.361
REMARK  Name = 
REMARK  9 active torsions:
REMARK  status: ('A' for Active; 'I' for Inactive)
REMARK    1  A    between atoms: C_1  and  C_2
REMARK    2  A    between atoms: C_2  and  C_3
REMARK    3  A    between atoms: C_3  and  O_4
REMARK    4  A    between atoms: O_4  and  C_5
REMARK    5  A    between atoms: C_8  and  C_9
REMARK    6  A    between atoms: C_9  and  N_10
REMARK    7  A    between atoms: C_21  and  O_22
REMARK    8  A    between atoms: O_22  and  C_23
REMARK    9  A    between atoms: C_23  and  C_24
REMARK                            x       y       z     vdW  Elec       q    Type
REMARK                         _______ _______ _______ _____ _____    ______ ____
ROOT
ATOM      1  C   UNL     1       1.080   9.758  19.490  0.00  0.00    +0.000 A 
ATOM      2  C   UNL     1       1.546   9.165  18.292  0.00  0.00    +0.000 A 
ATOM      3  C   UNL     1       2.151   7.900  18.265  0.00  0.00    +0.000 A 
ATOM      4  C   UNL     1       2.310   7.176  19.438  0.00  0.00    +0.000 A 
ATOM      5  C   UNL     1       1.822   7.742  20.627  0.00  0.00    +0.000 A 
ATOM      6  C   UNL     1       1.233   9.019  20.671  0.00  0.00    +0.000 A 
ENDROOT
BRANCH   1   7
ATOM      7  O   UNL     1       0.479  10.992  19.540  0.00  0.00    +0.000 OA
BRANCH   7   8
ATOM      8  C   UNL     1      -0.494  11.263  18.525  0.00  0.00    +0.000 C 
BRANCH   8  10
ATOM      9  C   UNL     1      -2.303   9.987  17.282  0.00  0.00    +0.000 C 
ATOM     10  C   UNL     1      -1.699  10.327  18.628  0.00  0.00    +0.000 C 
ENDBRANCH   8  10
ENDBRANCH   7   8
ENDBRANCH   1   7
BRANCH   4  11
ATOM     11  C   UNL     1       3.184   5.942  19.528  0.00  0.00    +0.000 C 
BRANCH  11  12
ATOM     12  N   UNL     1       2.696   4.679  18.941  0.00  0.00    +0.000 NA
ATOM     13  C   UNL     1       3.103   3.515  19.752  0.00  0.00    +0.000 C 
ATOM     14  C   UNL     1       4.525   2.965  19.496  0.00  0.00    +0.000 C 
ATOM     15  O   UNL     1       5.396   3.843  18.778  0.00  0.00    +0.000 OA
ATOM     16  C   UNL     1       4.854   4.411  17.572  0.00  0.00    +0.000 C 
ATOM     17  C   UNL     1       5.481   5.801  17.403  0.00  0.00    +0.000 C 
ATOM     18  C   UNL     1       5.884   5.910  15.948  0.00  0.00    +0.000 C 
ATOM     19  O   UNL     1       5.478   4.700  15.306  0.00  0.00    +0.000 OA
ATOM     20  C   UNL     1       5.402   3.704  16.329  0.00  0.00    +0.000 C 
ATOM     21  C   UNL     1       3.294   4.469  17.587  0.00  0.00    +0.000 C 
ENDBRANCH  11  12
ENDBRANCH   4  11
BRANCH   6  22
ATOM     22  O   UNL     1       0.832   9.349  21.936  0.00  0.00    +0.000 OA
BRANCH  22  23
ATOM     23  C   UNL     1      -0.551   9.421  22.270  0.00  0.00    +0.000 C 
ATOM     24  C   UNL     1      -0.981  10.738  22.906  0.00  0.00    +0.000 C 
ENDBRANCH  22  23
ENDBRANCH   6  22
TORSDOF 7
ENDMDL
MODEL 6
REMARK VINA RESULT:      -7.1      3.425      7.377
REMARK  Name = 
REMARK  9 active torsions:
REMARK  status: ('A' for Active; 'I' for Inactive)
REMARK    1  A    between atoms: C_1  and  C_2
REMARK    2  A    between atoms: C_2  and  C_3
REMARK    3  A    between atoms: C_3  and  O_4
REMARK    4  A    between atoms: O_4  and  C_5
REMARK    5  A    between atoms: C_8  and  C_9
REMARK    6  A    between atoms: C_9  and  N_10
REMARK    7  A    between atoms: C_21  and  O_22
REMARK    8  A    between atoms: O_22  and  C_23
REMARK    9  A    between atoms: C_23  and  C_24
REMARK                            x       y       z     vdW  Elec       q    Type
REMARK                         _______ _______ _______ _____ _____    ______ ____
ROOT
ATOM      1  C   UNL     1       1.109   9.852  18.880  0.00  0.00    +0.000 A 
ATOM      2  C   UNL     1       1.943   9.459  17.806  0.00  0.00    +0.000 A 
ATOM      3  C   UNL     1       2.614   8.228  17.788  0.00  0.00    +0.000 A 
ATOM      4  C   UNL     1       2.473   7.338  18.845  0.00  0.00    +0.000 A 
ATOM      5  C   UNL     1       1.621   7.707  19.899  0.00  0.00    +0.000 A 
ATOM      6  C   UNL     1       0.959   8.947  19.940  0.00  0.00    +0.000 A 
ENDROOT
BRANCH   1   7
ATOM      7  O   UNL     1       0.436  11.050  18.917  0.00  0.00    +0.000 OA
BRANCH   7   8
ATOM      8  C   UNL     1      -0.909  11.035  18.425  0.00  0.00    +0.000 C 
BRANCH   8  10
ATOM      9  C   UNL     1      -1.852  12.193  20.478  0.00  0.00    +0.000 C 
ATOM     10  C   UNL     1      -1.727  12.207  18.968  0.00  0.00    +0.000 C 
ENDBRANCH   8  10
ENDBRANCH   7   8
ENDBRANCH   1   7
BRANCH   4  11
ATOM     11  C   UNL     1       3.365   6.126  19.021  0.00  0.00    +0.000 C 
BRANCH  11  12
ATOM     12  N   UNL     1       3.284   5.033  18.034  0.00  0.00    +0.000 NA
ATOM     13  C   UNL     1       3.300   3.711  18.691  0.00  0.00    +0.000 C 
ATOM     14  C   UNL     1       4.692   3.144  19.054  0.00  0.00    +0.000 C 
ATOM     15  O   UNL     1       5.759   4.096  19.038  0.00  0.00    +0.000 OA
ATOM     16  C   UNL     1       5.845   4.919  17.861  0.00  0.00    +0.000 C 
ATOM     17  C   UNL     1       6.408   6.278  18.296  0.00  0.00    +0.000 C 
ATOM     18  C   UNL     1       7.460   6.647  17.274  0.00  0.00    +0.000 C 
ATOM     19  O   UNL     1       7.476   5.612  16.290  0.00  0.00    +0.000 OA
ATOM     20  C   UNL     1       6.960   4.440  16.927  0.00  0.00    +0.000 C 
ATOM     21  C   UNL     1       4.473   5.059  17.129  0.00  0.00    +0.000 C 
ENDBRANCH  11  12
ENDBRANCH   4  11
BRANCH   6  22
ATOM     22  O   UNL     1       0.185   9.073  21.060  0.00  0.00    +0.000 OA
BRANCH  22  23
ATOM     23  C   UNL     1       0.617   9.864  22.163  0.00  0.00    +0.000 C 
ATOM     24  C   UNL     1      -0.185   9.658  23.443  0.00  0.00    +0.000 C 
ENDBRANCH  22  23
ENDBRANCH   6  22
TORSDOF 7
ENDMDL
MODEL 7
REMARK VINA RESULT:      -7.1      3.637      6.946
REMARK  Name = 
REMARK  9 active torsions:
REMARK  status: ('A' for Active; 'I' for Inactive)
REMARK    1  A    between atoms: C_1  and  C_2
REMARK    2  A    between atoms: C_2  and  C_3
REMARK    3  A    between atoms: C_3  and  O_4
REMARK    4  A    between atoms: O_4  and  C_5
REMARK    5  A    between atoms: C_8  and  C_9
REMARK    6  A    between atoms: C_9  and  N_10
REMARK    7  A    between atoms: C_21  and  O_22
REMARK    8  A    between atoms: O_22  and  C_23
REMARK    9  A    between atoms: C_23  and  C_24
REMARK                            x       y       z     vdW  Elec       q    Type
REMARK                         _______ _______ _______ _____ _____    ______ ____
ROOT
ATOM      1  C   UNL     1       0.645   9.553  20.438  0.00  0.00    +0.000 A 
ATOM      2  C   UNL     1       0.977   8.325  21.057  0.00  0.00    +0.000 A 
ATOM      3  C   UNL     1       1.766   7.353  20.426  0.00  0.00    +0.000 A 
ATOM      4  C   UNL     1       2.259   7.576  19.147  0.00  0.00    +0.000 A 
ATOM      5  C   UNL     1       1.962   8.805  18.537  0.00  0.00    +0.000 A 
ATOM      6  C   UNL     1       1.153   9.779  19.151  0.00  0.00    +0.000 A 
ENDROOT
BRANCH   1   7
ATOM      7  O   UNL     1      -0.121  10.522  21.039  0.00  0.00    +0.000 OA
BRANCH   7   8
ATOM      8  C   UNL     1      -0.250  10.434  22.463  0.00  0.00    +0.000 C 
BRANCH   8  10
ATOM      9  C   UNL     1      -1.213  12.716  23.018  0.00  0.00    +0.000 C 
ATOM     10  C   UNL     1      -1.456  11.222  22.975  0.00  0.00    +0.000 C 
ENDBRANCH   8  10
ENDBRANCH   7   8
ENDBRANCH   1   7
BRANCH   4  11
ATOM     11  C   UNL     1       2.882   6.480  18.306  0.00  0.00    +0.000 C 
BRANCH  11  12
ATOM     12  N   UNL     1       4.049   5.751  18.837  0.00  0.00    +0.000 NA
ATOM     13  C   UNL     1       5.080   5.555  17.799  0.00  0.00    +0.000 C 
ATOM     14  C   UNL     1       4.882   4.345  16.857  0.00  0.00    +0.000 C 
ATOM     15  O   UNL     1       3.571   3.777  16.866  0.00  0.00    +0.000 OA
ATOM     16  C   UNL     1       3.021   3.494  18.165  0.00  0.00    +0.000 C 
ATOM     17  C   UNL     1       1.501   3.679  18.066  0.00  0.00    +0.000 C 
ATOM     18  C   UNL     1       0.883   2.494  18.777  0.00  0.00    +0.000 C 
ATOM     19  O   UNL     1       1.955   1.706  19.295  0.00  0.00    +0.000 OA
ATOM     20  C   UNL     1       3.100   2.000  18.490  0.00  0.00    +0.000 C 
ATOM     21  C   UNL     1       3.649   4.382  19.285  0.00  0.00    +0.000 C 
ENDBRANCH  11  12
ENDBRANCH   4  11
BRANCH   6  22
ATOM     22  O   UNL     1       1.012  10.890  18.366  0.00  0.00    +0.000 OA
BRANCH  22  23
ATOM     23  C   UNL     1       2.045  11.868  18.291  0.00  0.00    +0.000 C 
ATOM     24  C   UNL     1       1.674  13.228  18.871  0.00  0.00    +0.000 C 
ENDBRANCH  22  23
ENDBRANCH   6  22
TORSDOF 7
ENDMDL
MODEL 8
REMARK VINA RESULT:      -7.0      3.710      7.175
REMARK  Name = 
REMARK  9 active torsions:
REMARK  status: ('A' for Active; 'I' for Inactive)
REMARK    1  A    between atoms: C_1  and  C_2
REMARK    2  A    between atoms: C_2  and  C_3
REMARK    3  A    between atoms: C_3  and  O_4
REMARK    4  A    between atoms: O_4  and  C_5
REMARK    5  A    between atoms: C_8  and  C_9
REMARK    6  A    between atoms: C_9  and  N_10
REMARK    7  A    between atoms: C_21  and  O_22
REMARK    8  A    between atoms: O_22  and  C_23
REMARK    9  A    between atoms: C_23  and  C_24
REMARK                            x       y       z     vdW  Elec       q    Type
REMARK                         _______ _______ _______ _____ _____    ______ ____
ROOT
ATOM      1  C   UNL     1       0.321   9.546  20.222  0.00  0.00    +0.000 A 
ATOM      2  C   UNL     1       1.070   8.579  20.935  0.00  0.00    +0.000 A 
ATOM      3  C   UNL     1       1.974   7.713  20.303  0.00  0.00    +0.000 A 
ATOM      4  C   UNL     1       2.168   7.784  18.930  0.00  0.00    +0.000 A 
ATOM      5  C   UNL     1       1.453   8.762  18.220  0.00  0.00    +0.000 A 
ATOM      6  C   UNL     1       0.527   9.622  18.838  0.00  0.00    +0.000 A 
ENDROOT
BRANCH   1   7
ATOM      7  O   UNL     1      -0.565  10.409  20.820  0.00  0.00    +0.000 OA
BRANCH   7   8
ATOM      8  C   UNL     1      -0.132  11.011  22.045  0.00  0.00    +0.000 C 
BRANCH   8  10
ATOM      9  C   UNL     1      -2.286  11.904  23.050  0.00  0.00    +0.000 C 
ATOM     10  C   UNL     1      -1.182  10.872  23.148  0.00  0.00    +0.000 C 
ENDBRANCH   8  10
ENDBRANCH   7   8
ENDBRANCH   1   7
BRANCH   4  11
ATOM     11  C   UNL     1       2.912   6.719  18.151  0.00  0.00    +0.000 C 
BRANCH  11  12
ATOM     12  N   UNL     1       4.058   6.042  18.787  0.00  0.00    +0.000 NA
ATOM     13  C   UNL     1       5.157   5.824  17.825  0.00  0.00    +0.000 C 
ATOM     14  C   UNL     1       5.044   4.570  16.929  0.00  0.00    +0.000 C 
ATOM     15  O   UNL     1       3.747   3.971  16.882  0.00  0.00    +0.000 OA
ATOM     16  C   UNL     1       3.122   3.734  18.157  0.00  0.00    +0.000 C 
ATOM     17  C   UNL     1       1.608   3.878  17.955  0.00  0.00    +0.000 C 
ATOM     18  C   UNL     1       0.971   2.712  18.680  0.00  0.00    +0.000 C 
ATOM     19  O   UNL     1       2.025   1.973  19.300  0.00  0.00    +0.000 OA
ATOM     20  C   UNL     1       3.212   2.258  18.554  0.00  0.00    +0.000 C 
ATOM     21  C   UNL     1       3.659   4.686  19.272  0.00  0.00    +0.000 C 
ENDBRANCH  11  12
ENDBRANCH   4  11
BRANCH   6  22
ATOM     22  O   UNL     1      -0.036  10.488  17.943  0.00  0.00    +0.000 OA
BRANCH  22  23
ATOM     23  C   UNL     1      -1.346  10.263  17.431  0.00  0.00    +0.000 C 
ATOM     24  C   UNL     1      -2.259  11.484  17.464  0.00  0.00    +0.000 C 
ENDBRANCH  22  23
ENDBRANCH   6  22
TORSDOF 7
ENDMDL
MODEL 9
REMARK VINA RESULT:      -7.0      3.557      6.937
REMARK  Name = 
REMARK  9 active torsions:
REMARK  status: ('A' for Active; 'I' for Inactive)
REMARK    1  A    between atoms: C_1  and  C_2
REMARK    2  A    between atoms: C_2  and  C_3
REMARK    3  A    between atoms: C_3  and  O_4
REMARK    4  A    between atoms: O_4  and  C_5
REMARK    5  A    between atoms: C_8  and  C_9
REMARK    6  A    between atoms: C_9  and  N_10
REMARK    7  A    between atoms: C_21  and  O_22
REMARK    8  A    between atoms: O_22  and  C_23
REMARK    9  A    between atoms: C_23  and  C_24
REMARK                            x       y       z     vdW  Elec       q    Type
REMARK                         _______ _______ _______ _____ _____    ______ ____
ROOT
ATOM      1  C   UNL     1       1.055  10.034  19.567  0.00  0.00    +0.000 A 
ATOM      2  C   UNL     1       1.449   9.845  18.221  0.00  0.00    +0.000 A 
ATOM      3  C   UNL     1       2.059   8.665  17.774  0.00  0.00    +0.000 A 
ATOM      4  C   UNL     1       2.297   7.622  18.660  0.00  0.00    +0.000 A 
ATOM      5  C   UNL     1       1.880   7.788  19.991  0.00  0.00    +0.000 A 
ATOM      6  C   UNL     1       1.287   8.975  20.456  0.00  0.00    +0.000 A 
ENDROOT
BRANCH   1   7
ATOM      7  O   UNL     1       0.450  11.179  20.027  0.00  0.00    +0.000 OA
BRANCH   7   8
ATOM      8  C   UNL     1       1.320  12.273  20.336  0.00  0.00    +0.000 C 
BRANCH   8  10
ATOM      9  C   UNL     1       1.000  14.746  20.814  0.00  0.00    +0.000 C 
ATOM     10  C   UNL     1       0.622  13.330  21.193  0.00  0.00    +0.000 C 
ENDBRANCH   8  10
ENDBRANCH   7   8
ENDBRANCH   1   7
BRANCH   4  11
ATOM     11  C   UNL     1       3.183   6.442  18.317  0.00  0.00    +0.000 C 
BRANCH  11  12
ATOM     12  N   UNL     1       3.983   5.817  19.388  0.00  0.00    +0.000 NA
ATOM     13  C   UNL     1       5.333   5.457  18.912  0.00  0.00    +0.000 C 
ATOM     14  C   UNL     1       5.459   4.106  18.170  0.00  0.00    +0.000 C 
ATOM     15  O   UNL     1       4.224   3.540  17.724  0.00  0.00    +0.000 OA
ATOM     16  C   UNL     1       3.176   3.475  18.708  0.00  0.00    +0.000 C 
ATOM     17  C   UNL     1       1.843   3.633  17.963  0.00  0.00    +0.000 C 
ATOM     18  C   UNL     1       0.915   2.580  18.528  0.00  0.00    +0.000 C 
ATOM     19  O   UNL     1       1.630   1.895  19.558  0.00  0.00    +0.000 OA
ATOM     20  C   UNL     1       3.020   2.056  19.262  0.00  0.00    +0.000 C 
ATOM     21  C   UNL     1       3.348   4.541  19.836  0.00  0.00    +0.000 C 
ENDBRANCH  11  12
ENDBRANCH   4  11
BRANCH   6  22
ATOM     22  O   UNL     1       0.965   8.895  21.783  0.00  0.00    +0.000 OA
BRANCH  22  23
ATOM     23  C   UNL     1      -0.395   8.918  22.208  0.00  0.00    +0.000 C 
ATOM     24  C   UNL     1      -0.756  10.090  23.112  0.00  0.00    +0.000 C 
ENDBRANCH  22  23
ENDBRANCH   6  22
TORSDOF 7
ENDMDL
