MODEL 1
REMARK VINA RESULT:      -8.0      0.000      0.000
REMARK  Name = 
REMARK  6 active torsions:
REMARK  status: ('A' for Active; 'I' for Inactive)
REMARK    1  A    between atoms: C_1  and  C_2
REMARK    2  A    between atoms: C_5  and  C_6
REMARK    3  A    between atoms: C_9  and  S_10
REMARK    4  A    between atoms: S_10  and  C_11
REMARK    5  A    between atoms: C_11  and  C_12
REMARK    6  A    between atoms: N_17  and  C_18
REMARK                            x       y       z     vdW  Elec       q    Type
REMARK                         _______ _______ _______ _____ _____    ______ ____
ROOT
ATOM      1  C   UNL     1       6.043   4.760  17.463  0.00  0.00    +0.000 C 
ENDROOT
BRANCH   1   2
ATOM      2  C   UNL     1       4.834   4.564  18.392  0.00  0.00    +0.000 C 
ATOM      3  O   UNL     1       4.757   3.616  19.176  0.00  0.00    +0.000 OA
ATOM      4  N   UNL     1       3.827   5.522  18.352  0.00  0.00    +0.000 N 
ATOM      5  C   UNL     1       2.718   5.453  19.322  0.00  0.00    +0.000 C 
ATOM      6  C   UNL     1       2.526   6.805  20.033  0.00  0.00    +0.000 C 
ATOM      7  N   UNL     1       2.360   7.879  19.035  0.00  0.00    +0.000 N 
ATOM      8  C   UNL     1       3.449   7.981  18.047  0.00  0.00    +0.000 C 
ATOM      9  C   UNL     1       3.680   6.607  17.369  0.00  0.00    +0.000 C 
BRANCH   7  10
ATOM     10  C   UNL     1       1.283   8.742  19.049  0.00  0.00    +0.000 A 
ATOM     11  C   UNL     1       0.712   9.201  20.246  0.00  0.00    +0.000 A 
ATOM     12  C   UNL     1      -0.378  10.083  20.259  0.00  0.00    +0.000 A 
ATOM     13  C   UNL     1      -0.926  10.534  19.064  0.00  0.00    +0.000 A 
ATOM     14  C   UNL     1      -0.381  10.102  17.861  0.00  0.00    +0.000 A 
ATOM     15  C   UNL     1       0.705   9.217  17.860  0.00  0.00    +0.000 A 
ENDBRANCH   7  10
ENDBRANCH   1   2
BRANCH   1  16
ATOM     16  S   UNL     1       7.534   5.236  18.408  0.00  0.00    +0.000 S 
BRANCH  16  20
ATOM     17  C   UNL     1       8.315   8.971  18.144  0.00  0.00    +0.000 A 
ATOM     18  N   UNL     1       7.440   8.886  17.161  0.00  0.00    +0.000 NA
ATOM     19  N   UNL     1       7.037   7.565  17.098  0.00  0.00    +0.000 NA
ATOM     20  C   UNL     1       7.688   6.927  18.049  0.00  0.00    +0.000 A 
ATOM     21  O   UNL     1       8.526   7.760  18.756  0.00  0.00    +0.000 OA
BRANCH  17  26
ATOM     22  C   UNL     1      11.203  13.537  20.283  0.00  0.00    +0.000 C 
ATOM     23  C   UNL     1      10.450  12.365  19.723  0.00  0.00    +0.000 A 
ATOM     24  C   UNL     1       9.926  11.380  20.564  0.00  0.00    +0.000 A 
ATOM     25  C   UNL     1       9.231  10.285  20.032  0.00  0.00    +0.000 A 
ATOM     26  C   UNL     1       9.039  10.140  18.649  0.00  0.00    +0.000 A 
ATOM     27  C   UNL     1       9.564  11.136  17.810  0.00  0.00    +0.000 A 
ATOM     28  C   UNL     1      10.259  12.234  18.343  0.00  0.00    +0.000 A 
ENDBRANCH  17  26
ENDBRANCH  16  20
ENDBRANCH   1  16
TORSDOF 5
ENDMDL
MODEL 2
REMARK VINA RESULT:      -7.0      4.829      6.441
REMARK  Name = 
REMARK  6 active torsions:
REMARK  status: ('A' for Active; 'I' for Inactive)
REMARK    1  A    between atoms: C_1  and  C_2
REMARK    2  A    between atoms: C_5  and  C_6
REMARK    3  A    between atoms: C_9  and  S_10
REMARK    4  A    between atoms: S_10  and  C_11
REMARK    5  A    between atoms: C_11  and  C_12
REMARK    6  A    between atoms: N_17  and  C_18
REMARK                            x       y       z     vdW  Elec       q    Type
REMARK                         _______ _______ _______ _____ _____    ______ ____
ROOT
ATOM      1  C   UNL     1       1.805   5.868  20.703  0.00  0.00    +0.000 C 
ENDROOT
BRANCH   1   2
ATOM      2  C   UNL     1       1.773   7.149  19.854  0.00  0.00    +0.000 C 
ATOM      3  O   UNL     1       2.035   7.144  18.650  0.00  0.00    +0.000 OA
ATOM      4  N   UNL     1       1.395   8.330  20.483  0.00  0.00    +0.000 N 
ATOM      5  C   UNL     1       1.212   9.555  19.681  0.00  0.00    +0.000 C 
ATOM      6  C   UNL     1      -0.155  10.201  19.969  0.00  0.00    +0.000 C 
ATOM      7  N   UNL     1      -0.310  10.426  21.419  0.00  0.00    +0.000 N 
ATOM      8  C   UNL     1      -0.135   9.225  22.254  0.00  0.00    +0.000 C 
ATOM      9  C   UNL     1       1.218   8.544  21.928  0.00  0.00    +0.000 C 
BRANCH   7  10
ATOM     10  C   UNL     1      -0.627  11.662  21.946  0.00  0.00    +0.000 A 
ATOM     11  C   UNL     1      -1.574  11.814  22.970  0.00  0.00    +0.000 A 
ATOM     12  C   UNL     1      -1.891  13.068  23.510  0.00  0.00    +0.000 A 
ATOM     13  C   UNL     1      -1.258  14.212  23.036  0.00  0.00    +0.000 A 
ATOM     14  C   UNL     1      -0.313  14.095  22.025  0.00  0.00    +0.000 A 
ATOM     15  C   UNL     1      -0.007  12.837  21.490  0.00  0.00    +0.000 A 
ENDBRANCH   7  10
ENDBRANCH   1   2
BRANCH   1  16
ATOM     16  S   UNL     1       1.676   4.375  19.656  0.00  0.00    +0.000 S 
BRANCH  16  20
ATOM     17  C   UNL     1       4.961   4.208  17.703  0.00  0.00    +0.000 A 
ATOM     18  N   UNL     1       5.405   3.778  18.868  0.00  0.00    +0.000 NA
ATOM     19  N   UNL     1       4.326   3.777  19.732  0.00  0.00    +0.000 NA
ATOM     20  C   UNL     1       3.289   4.202  19.039  0.00  0.00    +0.000 A 
ATOM     21  O   UNL     1       3.619   4.500  17.737  0.00  0.00    +0.000 OA
BRANCH  17  26
ATOM     22  C   UNL     1       7.676   4.898  12.613  0.00  0.00    +0.000 C 
ATOM     23  C   UNL     1       6.985   4.713  13.933  0.00  0.00    +0.000 A 
ATOM     24  C   UNL     1       5.689   4.195  13.998  0.00  0.00    +0.000 A 
ATOM     25  C   UNL     1       5.048   4.034  15.234  0.00  0.00    +0.000 A 
ATOM     26  C   UNL     1       5.679   4.385  16.439  0.00  0.00    +0.000 A 
ATOM     27  C   UNL     1       6.982   4.901  16.365  0.00  0.00    +0.000 A 
ATOM     28  C   UNL     1       7.625   5.062  15.127  0.00  0.00    +0.000 A 
ENDBRANCH  17  26
ENDBRANCH  16  20
ENDBRANCH   1  16
TORSDOF 5
ENDMDL
MODEL 3
REMARK VINA RESULT:      -7.0      3.566      4.596
REMARK  Name = 
REMARK  6 active torsions:
REMARK  status: ('A' for Active; 'I' for Inactive)
REMARK    1  A    between atoms: C_1  and  C_2
REMARK    2  A    between atoms: C_5  and  C_6
REMARK    3  A    between atoms: C_9  and  S_10
REMARK    4  A    between atoms: S_10  and  C_11
REMARK    5  A    between atoms: C_11  and  C_12
REMARK    6  A    between atoms: N_17  and  C_18
REMARK                            x       y       z     vdW  Elec       q    Type
REMARK                         _______ _______ _______ _____ _____    ______ ____
ROOT
ATOM      1  C   UNL     1       7.923   7.195  17.480  0.00  0.00    +0.000 C 
ENDROOT
BRANCH   1   2
ATOM      2  C   UNL     1       7.105   6.182  16.664  0.00  0.00    +0.000 C 
ATOM      3  O   UNL     1       7.497   5.740  15.583  0.00  0.00    +0.000 OA
ATOM      4  N   UNL     1       5.903   5.736  17.206  0.00  0.00    +0.000 N 
ATOM      5  C   UNL     1       5.155   4.661  16.529  0.00  0.00    +0.000 C 
ATOM      6  C   UNL     1       4.801   3.533  17.516  0.00  0.00    +0.000 C 
ATOM      7  N   UNL     1       4.092   4.090  18.684  0.00  0.00    +0.000 N 
ATOM      8  C   UNL     1       4.809   5.168  19.388  0.00  0.00    +0.000 C 
ATOM      9  C   UNL     1       5.213   6.279  18.387  0.00  0.00    +0.000 C 
BRANCH   7  10
ATOM     10  C   UNL     1       2.866   3.613  19.102  0.00  0.00    +0.000 A 
ATOM     11  C   UNL     1       2.082   2.771  18.300  0.00  0.00    +0.000 A 
ATOM     12  C   UNL     1       0.839   2.281  18.727  0.00  0.00    +0.000 A 
ATOM     13  C   UNL     1       0.349   2.623  19.982  0.00  0.00    +0.000 A 
ATOM     14  C   UNL     1       1.103   3.452  20.803  0.00  0.00    +0.000 A 
ATOM     15  C   UNL     1       2.340   3.939  20.364  0.00  0.00    +0.000 A 
ENDBRANCH   7  10
ENDBRANCH   1   2
BRANCH   1  16
ATOM     16  S   UNL     1       7.139   8.847  17.462  0.00  0.00    +0.000 S 
BRANCH  16  20
ATOM     17  C   UNL     1       9.709  11.505  18.441  0.00  0.00    +0.000 A 
ATOM     18  N   UNL     1       9.959  10.632  19.398  0.00  0.00    +0.000 NA
ATOM     19  N   UNL     1       9.094   9.571  19.207  0.00  0.00    +0.000 NA
ATOM     20  C   UNL     1       8.372   9.860  18.143  0.00  0.00    +0.000 A 
ATOM     21  O   UNL     1       8.707  11.082  17.603  0.00  0.00    +0.000 OA
BRANCH  17  26
ATOM     22  C   UNL     1      12.333  16.549  17.247  0.00  0.00    +0.000 C 
ATOM     23  C   UNL     1      11.653  15.250  17.568  0.00  0.00    +0.000 A 
ATOM     24  C   UNL     1      12.228  14.029  17.202  0.00  0.00    +0.000 A 
ATOM     25  C   UNL     1      11.582  12.821  17.498  0.00  0.00    +0.000 A 
ATOM     26  C   UNL     1      10.347  12.794  18.166  0.00  0.00    +0.000 A 
ATOM     27  C   UNL     1       9.778  14.023  18.535  0.00  0.00    +0.000 A 
ATOM     28  C   UNL     1      10.426  15.235  18.239  0.00  0.00    +0.000 A 
ENDBRANCH  17  26
ENDBRANCH  16  20
ENDBRANCH   1  16
TORSDOF 5
ENDMDL
MODEL 4
REMARK VINA RESULT:      -7.0      4.988      8.275
REMARK  Name = 
REMARK  6 active torsions:
REMARK  status: ('A' for Active; 'I' for Inactive)
REMARK    1  A    between atoms: C_1  and  C_2
REMARK    2  A    between atoms: C_5  and  C_6
REMARK    3  A    between atoms: C_9  and  S_10
REMARK    4  A    between atoms: S_10  and  C_11
REMARK    5  A    between atoms: C_11  and  C_12
REMARK    6  A    between atoms: N_17  and  C_18
REMARK                            x       y       z     vdW  Elec       q    Type
REMARK                         _______ _______ _______ _____ _____    ______ ____
ROOT
ATOM      1  C   UNL     1       0.966  11.324  20.009  0.00  0.00    +0.000 C 
ENDROOT
BRANCH   1   2
ATOM      2  C   UNL     1       0.325  11.005  21.369  0.00  0.00    +0.000 C 
ATOM      3  O   UNL     1       0.891  10.310  22.215  0.00  0.00    +0.000 OA
ATOM      4  N   UNL     1      -0.919  11.564  21.643  0.00  0.00    +0.000 N 
ATOM      5  C   UNL     1      -1.509  11.404  22.985  0.00  0.00    +0.000 C 
ATOM      6  C   UNL     1      -1.946  12.765  23.558  0.00  0.00    +0.000 C 
ATOM      7  N   UNL     1      -2.842  13.448  22.606  0.00  0.00    +0.000 N 
ATOM      8  C   UNL     1      -2.288  13.627  21.253  0.00  0.00    +0.000 C 
ATOM      9  C   UNL     1      -1.799  12.267  20.695  0.00  0.00    +0.000 C 
BRANCH   7  10
ATOM     10  C   UNL     1      -4.091  13.911  22.968  0.00  0.00    +0.000 A 
ATOM     11  C   UNL     1      -5.210  13.066  23.028  0.00  0.00    +0.000 A 
ATOM     12  C   UNL     1      -6.478  13.536  23.403  0.00  0.00    +0.000 A 
ATOM     13  C   UNL     1      -6.656  14.874  23.733  0.00  0.00    +0.000 A 
ATOM     14  C   UNL     1      -5.567  15.736  23.687  0.00  0.00    +0.000 A 
ATOM     15  C   UNL     1      -4.307  15.257  23.308  0.00  0.00    +0.000 A 
ENDBRANCH   7  10
ENDBRANCH   1   2
BRANCH   1  16
ATOM     16  S   UNL     1       0.364  10.186  18.711  0.00  0.00    +0.000 S 
BRANCH  16  20
ATOM     17  C   UNL     1       2.787   7.240  18.423  0.00  0.00    +0.000 A 
ATOM     18  N   UNL     1       2.522   7.148  19.711  0.00  0.00    +0.000 NA
ATOM     19  N   UNL     1       1.639   8.168  20.012  0.00  0.00    +0.000 NA
ATOM     20  C   UNL     1       1.417   8.817  18.887  0.00  0.00    +0.000 A 
ATOM     21  O   UNL     1       2.119   8.283  17.830  0.00  0.00    +0.000 OA
BRANCH  17  26
ATOM     22  C   UNL     1       6.101   3.790  15.125  0.00  0.00    +0.000 C 
ATOM     23  C   UNL     1       5.255   4.687  15.981  0.00  0.00    +0.000 A 
ATOM     24  C   UNL     1       4.292   4.158  16.845  0.00  0.00    +0.000 A 
ATOM     25  C   UNL     1       3.501   5.004  17.634  0.00  0.00    +0.000 A 
ATOM     26  C   UNL     1       3.646   6.400  17.586  0.00  0.00    +0.000 A 
ATOM     27  C   UNL     1       4.619   6.925  16.720  0.00  0.00    +0.000 A 
ATOM     28  C   UNL     1       5.413   6.077  15.929  0.00  0.00    +0.000 A 
ENDBRANCH  17  26
ENDBRANCH  16  20
ENDBRANCH   1  16
TORSDOF 5
ENDMDL
MODEL 5
REMARK VINA RESULT:      -7.0      5.001      7.643
REMARK  Name = 
REMARK  6 active torsions:
REMARK  status: ('A' for Active; 'I' for Inactive)
REMARK    1  A    between atoms: C_1  and  C_2
REMARK    2  A    between atoms: C_5  and  C_6
REMARK    3  A    between atoms: C_9  and  S_10
REMARK    4  A    between atoms: S_10  and  C_11
REMARK    5  A    between atoms: C_11  and  C_12
REMARK    6  A    between atoms: N_17  and  C_18
REMARK                            x       y       z     vdW  Elec       q    Type
REMARK                         _______ _______ _______ _____ _____    ______ ____
ROOT
ATOM      1  C   UNL     1       1.456   9.344  20.845  0.00  0.00    +0.000 C 
ENDROOT
BRANCH   1   2
ATOM      2  C   UNL     1       0.703  10.542  21.444  0.00  0.00    +0.000 C 
ATOM      3  O   UNL     1       0.225  10.516  22.580  0.00  0.00    +0.000 OA
ATOM      4  N   UNL     1       0.608  11.696  20.672  0.00  0.00    +0.000 N 
ATOM      5  C   UNL     1       0.021  12.916  21.257  0.00  0.00    +0.000 C 
ATOM      6  C   UNL     1       0.953  14.125  21.055  0.00  0.00    +0.000 C 
ATOM      7  N   UNL     1       1.289  14.267  19.625  0.00  0.00    +0.000 N 
ATOM      8  C   UNL     1       1.878  13.068  19.005  0.00  0.00    +0.000 C 
ATOM      9  C   UNL     1       0.968  11.840  19.253  0.00  0.00    +0.000 C 
BRANCH   7  10
ATOM     10  C   UNL     1       1.094  15.446  18.934  0.00  0.00    +0.000 A 
ATOM     11  C   UNL     1       2.155  16.139  18.330  0.00  0.00    +0.000 A 
ATOM     12  C   UNL     1       1.956  17.333  17.622  0.00  0.00    +0.000 A 
ATOM     13  C   UNL     1       0.678  17.865  17.496  0.00  0.00    +0.000 A 
ATOM     14  C   UNL     1      -0.394  17.201  18.079  0.00  0.00    +0.000 A 
ATOM     15  C   UNL     1      -0.183  16.012  18.788  0.00  0.00    +0.000 A 
ENDBRANCH   7  10
ENDBRANCH   1   2
BRANCH   1  16
ATOM     16  S   UNL     1       0.604   7.771  21.223  0.00  0.00    +0.000 S 
BRANCH  16  20
ATOM     17  C   UNL     1       3.006   5.641  19.143  0.00  0.00    +0.000 A 
ATOM     18  N   UNL     1       2.752   4.769  20.100  0.00  0.00    +0.000 NA
ATOM     19  N   UNL     1       1.878   5.382  20.978  0.00  0.00    +0.000 NA
ATOM     20  C   UNL     1       1.650   6.589  20.501  0.00  0.00    +0.000 A 
ATOM     21  O   UNL     1       2.338   6.826  19.333  0.00  0.00    +0.000 OA
BRANCH  17  26
ATOM     22  C   UNL     1       6.314   4.945  14.418  0.00  0.00    +0.000 C 
ATOM     23  C   UNL     1       5.468   5.133  15.644  0.00  0.00    +0.000 A 
ATOM     24  C   UNL     1       4.938   4.034  16.326  0.00  0.00    +0.000 A 
ATOM     25  C   UNL     1       4.143   4.219  17.465  0.00  0.00    +0.000 A 
ATOM     26  C   UNL     1       3.852   5.502  17.956  0.00  0.00    +0.000 A 
ATOM     27  C   UNL     1       4.390   6.601  17.268  0.00  0.00    +0.000 A 
ATOM     28  C   UNL     1       5.189   6.416  16.127  0.00  0.00    +0.000 A 
ENDBRANCH  17  26
ENDBRANCH  16  20
ENDBRANCH   1  16
TORSDOF 5
ENDMDL
MODEL 6
REMARK VINA RESULT:      -7.0      4.861      6.541
REMARK  Name = 
REMARK  6 active torsions:
REMARK  status: ('A' for Active; 'I' for Inactive)
REMARK    1  A    between atoms: C_1  and  C_2
REMARK    2  A    between atoms: C_5  and  C_6
REMARK    3  A    between atoms: C_9  and  S_10
REMARK    4  A    between atoms: S_10  and  C_11
REMARK    5  A    between atoms: C_11  and  C_12
REMARK    6  A    between atoms: N_17  and  C_18
REMARK                            x       y       z     vdW  Elec       q    Type
REMARK                         _______ _______ _______ _____ _____    ______ ____
ROOT
ATOM      1  C   UNL     1       2.139   6.119  20.537  0.00  0.00    +0.000 C 
ENDROOT
BRANCH   1   2
ATOM      2  C   UNL     1       2.052   7.396  19.686  0.00  0.00    +0.000 C 
ATOM      3  O   UNL     1       2.468   7.443  18.527  0.00  0.00    +0.000 OA
ATOM      4  N   UNL     1       1.444   8.510  20.256  0.00  0.00    +0.000 N 
ATOM      5  C   UNL     1       1.211   9.712  19.433  0.00  0.00    +0.000 C 
ATOM      6  C   UNL     1      -0.255  10.172  19.536  0.00  0.00    +0.000 C 
ATOM      7  N   UNL     1      -0.627  10.354  20.952  0.00  0.00    +0.000 N 
ATOM      8  C   UNL     1      -0.408   9.175  21.807  0.00  0.00    +0.000 C 
ATOM      9  C   UNL     1       1.052   8.679  21.664  0.00  0.00    +0.000 C 
BRANCH   7  10
ATOM     10  C   UNL     1      -1.169  11.531  21.428  0.00  0.00    +0.000 A 
ATOM     11  C   UNL     1      -1.953  12.371  20.622  0.00  0.00    +0.000 A 
ATOM     12  C   UNL     1      -2.508  13.563  21.108  0.00  0.00    +0.000 A 
ATOM     13  C   UNL     1      -2.294  13.945  22.428  0.00  0.00    +0.000 A 
ATOM     14  C   UNL     1      -1.525  13.134  23.253  0.00  0.00    +0.000 A 
ATOM     15  C   UNL     1      -0.971  11.948  22.756  0.00  0.00    +0.000 A 
ENDBRANCH   7  10
ENDBRANCH   1   2
BRANCH   1  16
ATOM     16  S   UNL     1       1.970   4.622  19.501  0.00  0.00    +0.000 S 
BRANCH  16  20
ATOM     17  C   UNL     1       5.047   4.428  17.235  0.00  0.00    +0.000 A 
ATOM     18  N   UNL     1       5.654   4.303  18.399  0.00  0.00    +0.000 NA
ATOM     19  N   UNL     1       4.673   4.358  19.371  0.00  0.00    +0.000 NA
ATOM     20  C   UNL     1       3.526   4.510  18.740  0.00  0.00    +0.000 A 
ATOM     21  O   UNL     1       3.687   4.566  17.374  0.00  0.00    +0.000 OA
BRANCH  17  26
ATOM     22  C   UNL     1       7.419   4.433  11.932  0.00  0.00    +0.000 C 
ATOM     23  C   UNL     1       6.795   4.436  13.297  0.00  0.00    +0.000 A 
ATOM     24  C   UNL     1       7.445   5.031  14.383  0.00  0.00    +0.000 A 
ATOM     25  C   UNL     1       6.858   5.022  15.655  0.00  0.00    +0.000 A 
ATOM     26  C   UNL     1       5.610   4.420  15.884  0.00  0.00    +0.000 A 
ATOM     27  C   UNL     1       4.962   3.829  14.788  0.00  0.00    +0.000 A 
ATOM     28  C   UNL     1       5.548   3.839  13.512  0.00  0.00    +0.000 A 
ENDBRANCH  17  26
ENDBRANCH  16  20
ENDBRANCH   1  16
TORSDOF 5
ENDMDL
MODEL 7
REMARK VINA RESULT:      -6.8      4.923      7.700
REMARK  Name = 
REMARK  6 active torsions:
REMARK  status: ('A' for Active; 'I' for Inactive)
REMARK    1  A    between atoms: C_1  and  C_2
REMARK    2  A    between atoms: C_5  and  C_6
REMARK    3  A    between atoms: C_9  and  S_10
REMARK    4  A    between atoms: S_10  and  C_11
REMARK    5  A    between atoms: C_11  and  C_12
REMARK    6  A    between atoms: N_17  and  C_18
REMARK                            x       y       z     vdW  Elec       q    Type
REMARK                         _______ _______ _______ _____ _____    ______ ____
ROOT
ATOM      1  C   UNL     1       1.386   9.394  22.160  0.00  0.00    +0.000 C 
ENDROOT
BRANCH   1   2
ATOM      2  C   UNL     1       0.197  10.249  22.624  0.00  0.00    +0.000 C 
ATOM      3  O   UNL     1      -0.434   9.992  23.652  0.00  0.00    +0.000 OA
ATOM      4  N   UNL     1      -0.133  11.365  21.862  0.00  0.00    +0.000 N 
ATOM      5  C   UNL     1      -1.173  12.293  22.344  0.00  0.00    +0.000 C 
ATOM      6  C   UNL     1      -0.662  13.745  22.331  0.00  0.00    +0.000 C 
ATOM      7  N   UNL     1      -0.152  14.087  20.989  0.00  0.00    +0.000 N 
ATOM      8  C   UNL     1       0.890  13.182  20.473  0.00  0.00    +0.000 C 
ATOM      9  C   UNL     1       0.397  11.715  20.535  0.00  0.00    +0.000 C 
BRANCH   7  10
ATOM     10  C   UNL     1      -0.596  15.190  20.288  0.00  0.00    +0.000 A 
ATOM     11  C   UNL     1      -1.710  15.937  20.702  0.00  0.00    +0.000 A 
ATOM     12  C   UNL     1      -2.157  17.062  19.994  0.00  0.00    +0.000 A 
ATOM     13  C   UNL     1      -1.491  17.472  18.845  0.00  0.00    +0.000 A 
ATOM     14  C   UNL     1      -0.382  16.756  18.410  0.00  0.00    +0.000 A 
ATOM     15  C   UNL     1       0.052  15.632  19.123  0.00  0.00    +0.000 A 
ENDBRANCH   7  10
ENDBRANCH   1   2
BRANCH   1  16
ATOM     16  S   UNL     1       0.821   7.837  21.387  0.00  0.00    +0.000 S 
BRANCH  16  20
ATOM     17  C   UNL     1       2.871   7.193  18.222  0.00  0.00    +0.000 A 
ATOM     18  N   UNL     1       2.502   8.432  17.966  0.00  0.00    +0.000 NA
ATOM     19  N   UNL     1       1.723   8.846  19.030  0.00  0.00    +0.000 NA
ATOM     20  C   UNL     1       1.668   7.835  19.872  0.00  0.00    +0.000 A 
ATOM     21  O   UNL     1       2.375   6.743  19.421  0.00  0.00    +0.000 OA
BRANCH  17  26
ATOM     22  C   UNL     1       6.313   3.729  15.074  0.00  0.00    +0.000 C 
ATOM     23  C   UNL     1       5.414   4.617  15.884  0.00  0.00    +0.000 A 
ATOM     24  C   UNL     1       5.484   6.008  15.769  0.00  0.00    +0.000 A 
ATOM     25  C   UNL     1       4.646   6.830  16.534  0.00  0.00    +0.000 A 
ATOM     26  C   UNL     1       3.715   6.290  17.437  0.00  0.00    +0.000 A 
ATOM     27  C   UNL     1       3.648   4.892  17.545  0.00  0.00    +0.000 A 
ATOM     28  C   UNL     1       4.486   4.068  16.776  0.00  0.00    +0.000 A 
ENDBRANCH  17  26
ENDBRANCH  16  20
ENDBRANCH   1  16
TORSDOF 5
ENDMDL
MODEL 8
REMARK VINA RESULT:      -6.8      5.019      7.539
REMARK  Name = 
REMARK  6 active torsions:
REMARK  status: ('A' for Active; 'I' for Inactive)
REMARK    1  A    between atoms: C_1  and  C_2
REMARK    2  A    between atoms: C_5  and  C_6
REMARK    3  A    between atoms: C_9  and  S_10
REMARK    4  A    between atoms: S_10  and  C_11
REMARK    5  A    between atoms: C_11  and  C_12
REMARK    6  A    between atoms: N_17  and  C_18
REMARK                            x       y       z     vdW  Elec       q    Type
REMARK                         _______ _______ _______ _____ _____    ______ ____
ROOT
ATOM      1  C   UNL     1       1.304   9.359  19.928  0.00  0.00    +0.000 C 
ENDROOT
BRANCH   1   2
ATOM      2  C   UNL     1       0.612  10.592  20.531  0.00  0.00    +0.000 C 
ATOM      3  O   UNL     1       1.210  11.393  21.251  0.00  0.00    +0.000 OA
ATOM      4  N   UNL     1      -0.723  10.806  20.205  0.00  0.00    +0.000 N 
ATOM      5  C   UNL     1      -1.389  12.047  20.643  0.00  0.00    +0.000 C 
ATOM      6  C   UNL     1      -2.083  12.745  19.459  0.00  0.00    +0.000 C 
ATOM      7  N   UNL     1      -2.995  11.802  18.783  0.00  0.00    +0.000 N 
ATOM      8  C   UNL     1      -2.366  10.549  18.330  0.00  0.00    +0.000 C 
ATOM      9  C   UNL     1      -1.623   9.872  19.508  0.00  0.00    +0.000 C 
BRANCH   7  10
ATOM     10  C   UNL     1      -4.327  12.090  18.565  0.00  0.00    +0.000 A 
ATOM     11  C   UNL     1      -4.947  11.855  17.328  0.00  0.00    +0.000 A 
ATOM     12  C   UNL     1      -6.302  12.140  17.109  0.00  0.00    +0.000 A 
ATOM     13  C   UNL     1      -7.078  12.670  18.134  0.00  0.00    +0.000 A 
ATOM     14  C   UNL     1      -6.496  12.911  19.372  0.00  0.00    +0.000 A 
ATOM     15  C   UNL     1      -5.140  12.626  19.578  0.00  0.00    +0.000 A 
ENDBRANCH   7  10
ENDBRANCH   1   2
BRANCH   1  16
ATOM     16  S   UNL     1       1.483   8.027  21.167  0.00  0.00    +0.000 S 
BRANCH  16  20
ATOM     17  C   UNL     1       3.091   5.559  18.727  0.00  0.00    +0.000 A 
ATOM     18  N   UNL     1       2.339   4.708  19.396  0.00  0.00    +0.000 NA
ATOM     19  N   UNL     1       1.666   5.439  20.357  0.00  0.00    +0.000 NA
ATOM     20  C   UNL     1       2.046   6.692  20.212  0.00  0.00    +0.000 A 
ATOM     21  O   UNL     1       2.957   6.845  19.192  0.00  0.00    +0.000 OA
BRANCH  17  26
ATOM     22  C   UNL     1       6.694   4.758  14.240  0.00  0.00    +0.000 C 
ATOM     23  C   UNL     1       5.756   4.956  15.395  0.00  0.00    +0.000 A 
ATOM     24  C   UNL     1       5.337   6.236  15.769  0.00  0.00    +0.000 A 
ATOM     25  C   UNL     1       4.466   6.412  16.852  0.00  0.00    +0.000 A 
ATOM     26  C   UNL     1       3.989   5.320  17.595  0.00  0.00    +0.000 A 
ATOM     27  C   UNL     1       4.411   4.037  17.211  0.00  0.00    +0.000 A 
ATOM     28  C   UNL     1       5.282   3.860  16.124  0.00  0.00    +0.000 A 
ENDBRANCH  17  26
ENDBRANCH  16  20
ENDBRANCH   1  16
TORSDOF 5
ENDMDL
MODEL 9
REMARK VINA RESULT:      -6.8      4.899      8.181
REMARK  Name = 
REMARK  6 active torsions:
REMARK  status: ('A' for Active; 'I' for Inactive)
REMARK    1  A    between atoms: C_1  and  C_2
REMARK    2  A    between atoms: C_5  and  C_6
REMARK    3  A    between atoms: C_9  and  S_10
REMARK    4  A    between atoms: S_10  and  C_11
REMARK    5  A    between atoms: C_11  and  C_12
REMARK    6  A    between atoms: N_17  and  C_18
REMARK                            x       y       z     vdW  Elec       q    Type
REMARK                         _______ _______ _______ _____ _____    ______ ____
ROOT
ATOM      1  C   UNL     1       0.848  10.143  21.540  0.00  0.00    +0.000 C 
ENDROOT
BRANCH   1   2
ATOM      2  C   UNL     1      -0.219  10.484  22.592  0.00  0.00    +0.000 C 
ATOM      3  O   UNL     1      -0.197  10.006  23.728  0.00  0.00    +0.000 OA
ATOM      4  N   UNL     1      -1.210  11.393  22.236  0.00  0.00    +0.000 N 
ATOM      5  C   UNL     1      -2.170  11.859  23.255  0.00  0.00    +0.000 C 
ATOM      6  C   UNL     1      -2.242  13.396  23.279  0.00  0.00    +0.000 C 
ATOM      7  N   UNL     1      -2.534  13.908  21.927  0.00  0.00    +0.000 N 
ATOM      8  C   UNL     1      -1.595  13.465  20.881  0.00  0.00    +0.000 C 
ATOM      9  C   UNL     1      -1.481  11.920  20.889  0.00  0.00    +0.000 C 
BRANCH   7  10
ATOM     10  C   UNL     1      -3.587  14.763  21.670  0.00  0.00    +0.000 A 
ATOM     11  C   UNL     1      -3.446  15.894  20.852  0.00  0.00    +0.000 A 
ATOM     12  C   UNL     1      -4.518  16.758  20.586  0.00  0.00    +0.000 A 
ATOM     13  C   UNL     1      -5.770  16.506  21.136  0.00  0.00    +0.000 A 
ATOM     14  C   UNL     1      -5.944  15.392  21.948  0.00  0.00    +0.000 A 
ATOM     15  C   UNL     1      -4.865  14.539  22.210  0.00  0.00    +0.000 A 
ENDBRANCH   7  10
ENDBRANCH   1   2
BRANCH   1  16
ATOM     16  S   UNL     1       1.072   8.335  21.386  0.00  0.00    +0.000 S 
BRANCH  16  20
ATOM     17  C   UNL     1       2.844   7.396  18.128  0.00  0.00    +0.000 A 
ATOM     18  N   UNL     1       2.292   8.525  17.730  0.00  0.00    +0.000 NA
ATOM     19  N   UNL     1       1.582   9.025  18.806  0.00  0.00    +0.000 NA
ATOM     20  C   UNL     1       1.748   8.170  19.795  0.00  0.00    +0.000 A 
ATOM     21  O   UNL     1       2.539   7.103  19.435  0.00  0.00    +0.000 OA
BRANCH  17  26
ATOM     22  C   UNL     1       6.185   3.618  15.244  0.00  0.00    +0.000 C 
ATOM     23  C   UNL     1       5.332   4.600  15.993  0.00  0.00    +0.000 A 
ATOM     24  C   UNL     1       4.336   4.164  16.870  0.00  0.00    +0.000 A 
ATOM     25  C   UNL     1       3.539   5.088  17.559  0.00  0.00    +0.000 A 
ATOM     26  C   UNL     1       3.711   6.472  17.393  0.00  0.00    +0.000 A 
ATOM     27  C   UNL     1       4.717   6.903  16.514  0.00  0.00    +0.000 A 
ATOM     28  C   UNL     1       5.517   5.977  15.825  0.00  0.00    +0.000 A 
ENDBRANCH  17  26
ENDBRANCH  16  20
ENDBRANCH   1  16
TORSDOF 5
ENDMDL
