MODEL 1
REMARK VINA RESULT:      -8.4      0.000      0.000
REMARK  Name = 
REMARK  5 active torsions:
REMARK  status: ('A' for Active; 'I' for Inactive)
REMARK    1  A    between atoms: C_5  and  O_6
REMARK    2  A    between atoms: O_6  and  C_7
REMARK    3  A    between atoms: C_7  and  C_8
REMARK    4  A    between atoms: C_11  and  C_12
REMARK    5  A    between atoms: C_12  and  N_13
REMARK                            x       y       z     vdW  Elec       q    Type
REMARK                         _______ _______ _______ _____ _____    ______ ____
ROOT
ATOM      1  C   UNL     1       7.690   7.797  17.834  0.00  0.00    +0.000 A 
ATOM      2  N   UNL     1       8.150   6.826  18.636  0.00  0.00    +0.000 NA
ATOM      3  O   UNL     1       7.319   5.743  18.344  0.00  0.00    +0.000 OA
ATOM      4  C   UNL     1       6.453   6.169  17.378  0.00  0.00    +0.000 A 
ATOM      5  N   UNL     1       6.631   7.427  17.038  0.00  0.00    +0.000 NA
ENDROOT
BRANCH   1   6
ATOM      6  C   UNL     1       8.349   9.132  17.730  0.00  0.00    +0.000 C 
BRANCH   6   7
ATOM      7  O   UNL     1       8.623   9.695  19.021  0.00  0.00    +0.000 OA
BRANCH   7  12
ATOM      8  F   UNL     1      12.331  13.717  19.478  0.00  0.00    +0.000 F 
ATOM      9  C   UNL     1      11.425  12.741  19.339  0.00  0.00    +0.000 A 
ATOM     10  C   UNL     1      10.849  12.171  20.467  0.00  0.00    +0.000 A 
ATOM     11  C   UNL     1       9.911  11.149  20.317  0.00  0.00    +0.000 A 
ATOM     12  C   UNL     1       9.537  10.712  19.041  0.00  0.00    +0.000 A 
ATOM     13  C   UNL     1      10.133  11.285  17.915  0.00  0.00    +0.000 A 
ATOM     14  C   UNL     1      11.078  12.304  18.065  0.00  0.00    +0.000 A 
ENDBRANCH   7  12
ENDBRANCH   6   7
ENDBRANCH   1   6
BRANCH   4  15
ATOM     15  C   UNL     1       5.532   5.140  16.799  0.00  0.00    +0.000 C 
BRANCH  15  16
ATOM     16  N   UNL     1       4.324   4.829  17.604  0.00  0.00    +0.000 NA
ATOM     17  C   UNL     1       3.729   6.030  18.202  0.00  0.00    +0.000 C 
ATOM     18  C   UNL     1       2.394   5.702  18.884  0.00  0.00    +0.000 C 
ATOM     19  C   UNL     1       2.527   4.549  19.829  0.00  0.00    +0.000 A 
ATOM     20  C   UNL     1       1.644   4.330  20.865  0.00  0.00    +0.000 A 
ATOM     21  N   UNL     1       1.734   3.290  21.714  0.00  0.00    +0.000 NA
ATOM     22  C   UNL     1       2.749   2.443  21.485  0.00  0.00    +0.000 A 
ATOM     23  N   UNL     1       3.661   2.547  20.507  0.00  0.00    +0.000 NA
ATOM     24  C   UNL     1       3.532   3.606  19.677  0.00  0.00    +0.000 A 
ATOM     25  C   UNL     1       4.610   3.794  18.624  0.00  0.00    +0.000 C 
ENDBRANCH  15  16
ENDBRANCH   4  15
TORSDOF 5
ENDMDL
MODEL 2
REMARK VINA RESULT:      -8.4      0.536      1.042
REMARK  Name = 
REMARK  5 active torsions:
REMARK  status: ('A' for Active; 'I' for Inactive)
REMARK    1  A    between atoms: C_5  and  O_6
REMARK    2  A    between atoms: O_6  and  C_7
REMARK    3  A    between atoms: C_7  and  C_8
REMARK    4  A    between atoms: C_11  and  C_12
REMARK    5  A    between atoms: C_12  and  N_13
REMARK                            x       y       z     vdW  Elec       q    Type
REMARK                         _______ _______ _______ _____ _____    ______ ____
ROOT
ATOM      1  C   UNL     1       7.732   7.948  17.839  0.00  0.00    +0.000 A 
ATOM      2  N   UNL     1       8.211   7.008  18.667  0.00  0.00    +0.000 NA
ATOM      3  O   UNL     1       7.491   5.866  18.313  0.00  0.00    +0.000 OA
ATOM      4  C   UNL     1       6.663   6.232  17.292  0.00  0.00    +0.000 A 
ATOM      5  N   UNL     1       6.763   7.504  16.970  0.00  0.00    +0.000 NA
ENDROOT
BRANCH   1   6
ATOM      6  C   UNL     1       8.290   9.331  17.787  0.00  0.00    +0.000 C 
BRANCH   6   7
ATOM      7  O   UNL     1       8.769   9.763  19.068  0.00  0.00    +0.000 OA
BRANCH   7  12
ATOM      8  F   UNL     1      11.958  14.217  18.707  0.00  0.00    +0.000 F 
ATOM      9  C   UNL     1      11.196  13.123  18.816  0.00  0.00    +0.000 A 
ATOM     10  C   UNL     1      10.300  12.803  17.804  0.00  0.00    +0.000 A 
ATOM     11  C   UNL     1       9.503  11.665  17.927  0.00  0.00    +0.000 A 
ATOM     12  C   UNL     1       9.614  10.839  19.052  0.00  0.00    +0.000 A 
ATOM     13  C   UNL     1      10.509  11.179  20.069  0.00  0.00    +0.000 A 
ATOM     14  C   UNL     1      11.304  12.323  19.949  0.00  0.00    +0.000 A 
ENDBRANCH   7  12
ENDBRANCH   6   7
ENDBRANCH   1   6
BRANCH   4  15
ATOM     15  C   UNL     1       5.868   5.140  16.646  0.00  0.00    +0.000 C 
BRANCH  15  16
ATOM     16  N   UNL     1       4.575   4.812  17.296  0.00  0.00    +0.000 NA
ATOM     17  C   UNL     1       3.800   6.013  17.632  0.00  0.00    +0.000 C 
ATOM     18  C   UNL     1       2.402   5.640  18.145  0.00  0.00    +0.000 C 
ATOM     19  C   UNL     1       2.471   4.628  19.245  0.00  0.00    +0.000 A 
ATOM     20  C   UNL     1       1.453   4.450  20.158  0.00  0.00    +0.000 A 
ATOM     21  N   UNL     1       1.487   3.533  21.142  0.00  0.00    +0.000 NA
ATOM     22  C   UNL     1       2.587   2.768  21.183  0.00  0.00    +0.000 A 
ATOM     23  N   UNL     1       3.633   2.842  20.347  0.00  0.00    +0.000 NA
ATOM     24  C   UNL     1       3.557   3.776  19.372  0.00  0.00    +0.000 A 
ATOM     25  C   UNL     1       4.773   3.940  18.477  0.00  0.00    +0.000 C 
ENDBRANCH  15  16
ENDBRANCH   4  15
TORSDOF 5
ENDMDL
MODEL 3
REMARK VINA RESULT:      -8.2      1.413      1.481
REMARK  Name = 
REMARK  5 active torsions:
REMARK  status: ('A' for Active; 'I' for Inactive)
REMARK    1  A    between atoms: C_5  and  O_6
REMARK    2  A    between atoms: O_6  and  C_7
REMARK    3  A    between atoms: C_7  and  C_8
REMARK    4  A    between atoms: C_11  and  C_12
REMARK    5  A    between atoms: C_12  and  N_13
REMARK                            x       y       z     vdW  Elec       q    Type
REMARK                         _______ _______ _______ _____ _____    ______ ____
ROOT
ATOM      1  C   UNL     1       7.877   8.112  17.952  0.00  0.00    +0.000 A 
ATOM      2  N   UNL     1       8.249   7.065  18.703  0.00  0.00    +0.000 NA
ATOM      3  O   UNL     1       7.559   5.995  18.134  0.00  0.00    +0.000 OA
ATOM      4  C   UNL     1       6.854   6.505  17.081  0.00  0.00    +0.000 A 
ATOM      5  N   UNL     1       7.006   7.803  16.934  0.00  0.00    +0.000 NA
ENDROOT
BRANCH   1   6
ATOM      6  C   UNL     1       8.454   9.476  18.134  0.00  0.00    +0.000 C 
BRANCH   6   7
ATOM      7  O   UNL     1       9.450   9.503  19.166  0.00  0.00    +0.000 OA
BRANCH   7  12
ATOM      8  F   UNL     1      10.809  14.424  21.183  0.00  0.00    +0.000 F 
ATOM      9  C   UNL     1      10.491  13.230  20.668  0.00  0.00    +0.000 A 
ATOM     10  C   UNL     1       9.540  12.439  21.299  0.00  0.00    +0.000 A 
ATOM     11  C   UNL     1       9.218  11.192  20.762  0.00  0.00    +0.000 A 
ATOM     12  C   UNL     1       9.833  10.746  19.586  0.00  0.00    +0.000 A 
ATOM     13  C   UNL     1      10.799  11.546  18.969  0.00  0.00    +0.000 A 
ATOM     14  C   UNL     1      11.126  12.792  19.511  0.00  0.00    +0.000 A 
ENDBRANCH   7  12
ENDBRANCH   6   7
ENDBRANCH   1   6
BRANCH   4  15
ATOM     15  C   UNL     1       6.123   5.521  16.221  0.00  0.00    +0.000 C 
BRANCH  15  16
ATOM     16  N   UNL     1       4.739   5.195  16.647  0.00  0.00    +0.000 NA
ATOM     17  C   UNL     1       4.229   6.137  17.651  0.00  0.00    +0.000 C 
ATOM     18  C   UNL     1       2.744   5.878  17.944  0.00  0.00    +0.000 C 
ATOM     19  C   UNL     1       2.491   4.440  18.269  0.00  0.00    +0.000 A 
ATOM     20  C   UNL     1       1.385   4.021  18.979  0.00  0.00    +0.000 A 
ATOM     21  N   UNL     1       1.128   2.732  19.265  0.00  0.00    +0.000 NA
ATOM     22  C   UNL     1       2.020   1.847  18.799  0.00  0.00    +0.000 A 
ATOM     23  N   UNL     1       3.123   2.133  18.092  0.00  0.00    +0.000 NA
ATOM     24  C   UNL     1       3.342   3.441  17.825  0.00  0.00    +0.000 A 
ATOM     25  C   UNL     1       4.635   3.792  17.110  0.00  0.00    +0.000 C 
ENDBRANCH  15  16
ENDBRANCH   4  15
TORSDOF 5
ENDMDL
MODEL 4
REMARK VINA RESULT:      -8.2      1.143      1.779
REMARK  Name = 
REMARK  5 active torsions:
REMARK  status: ('A' for Active; 'I' for Inactive)
REMARK    1  A    between atoms: C_5  and  O_6
REMARK    2  A    between atoms: O_6  and  C_7
REMARK    3  A    between atoms: C_7  and  C_8
REMARK    4  A    between atoms: C_11  and  C_12
REMARK    5  A    between atoms: C_12  and  N_13
REMARK                            x       y       z     vdW  Elec       q    Type
REMARK                         _______ _______ _______ _____ _____    ______ ____
ROOT
ATOM      1  C   UNL     1       7.758   7.898  17.857  0.00  0.00    +0.000 A 
ATOM      2  N   UNL     1       8.256   6.970  18.687  0.00  0.00    +0.000 NA
ATOM      3  O   UNL     1       7.553   5.815  18.342  0.00  0.00    +0.000 OA
ATOM      4  C   UNL     1       6.713   6.163  17.323  0.00  0.00    +0.000 A 
ATOM      5  N   UNL     1       6.792   7.435  16.996  0.00  0.00    +0.000 NA
ENDROOT
BRANCH   1   6
ATOM      6  C   UNL     1       8.292   9.290  17.797  0.00  0.00    +0.000 C 
BRANCH   6   7
ATOM      7  O   UNL     1       8.844   9.706  19.054  0.00  0.00    +0.000 OA
BRANCH   7  12
ATOM      8  F   UNL     1      11.454  14.523  18.696  0.00  0.00    +0.000 F 
ATOM      9  C   UNL     1      10.836  13.341  18.802  0.00  0.00    +0.000 A 
ATOM     10  C   UNL     1       9.875  12.979  17.867  0.00  0.00    +0.000 A 
ATOM     11  C   UNL     1       9.229  11.748  17.987  0.00  0.00    +0.000 A 
ATOM     12  C   UNL     1       9.556  10.874  19.030  0.00  0.00    +0.000 A 
ATOM     13  C   UNL     1      10.515  11.256  19.973  0.00  0.00    +0.000 A 
ATOM     14  C   UNL     1      11.158  12.492  19.856  0.00  0.00    +0.000 A 
ENDBRANCH   7  12
ENDBRANCH   6   7
ENDBRANCH   1   6
BRANCH   4  15
ATOM     15  C   UNL     1       5.933   5.055  16.685  0.00  0.00    +0.000 C 
BRANCH  15  16
ATOM     16  N   UNL     1       5.057   4.277  17.596  0.00  0.00    +0.000 NA
ATOM     17  C   UNL     1       4.268   3.266  16.880  0.00  0.00    +0.000 C 
ATOM     18  C   UNL     1       3.503   2.369  17.863  0.00  0.00    +0.000 C 
ATOM     19  C   UNL     1       2.716   3.176  18.846  0.00  0.00    +0.000 A 
ATOM     20  C   UNL     1       1.631   2.668  19.529  0.00  0.00    +0.000 A 
ATOM     21  N   UNL     1       0.921   3.370  20.432  0.00  0.00    +0.000 NA
ATOM     22  C   UNL     1       1.344   4.623  20.651  0.00  0.00    +0.000 A 
ATOM     23  N   UNL     1       2.387   5.221  20.057  0.00  0.00    +0.000 NA
ATOM     24  C   UNL     1       3.073   4.479  19.158  0.00  0.00    +0.000 A 
ATOM     25  C   UNL     1       4.196   5.170  18.405  0.00  0.00    +0.000 C 
ENDBRANCH  15  16
ENDBRANCH   4  15
TORSDOF 5
ENDMDL
MODEL 5
REMARK VINA RESULT:      -8.1      1.572      1.701
REMARK  Name = 
REMARK  5 active torsions:
REMARK  status: ('A' for Active; 'I' for Inactive)
REMARK    1  A    between atoms: C_5  and  O_6
REMARK    2  A    between atoms: O_6  and  C_7
REMARK    3  A    between atoms: C_7  and  C_8
REMARK    4  A    between atoms: C_11  and  C_12
REMARK    5  A    between atoms: C_12  and  N_13
REMARK                            x       y       z     vdW  Elec       q    Type
REMARK                         _______ _______ _______ _____ _____    ______ ____
ROOT
ATOM      1  C   UNL     1       8.012   7.893  18.165  0.00  0.00    +0.000 A 
ATOM      2  N   UNL     1       8.176   6.723  18.799  0.00  0.00    +0.000 NA
ATOM      3  O   UNL     1       7.345   5.852  18.093  0.00  0.00    +0.000 OA
ATOM      4  C   UNL     1       6.779   6.585  17.091  0.00  0.00    +0.000 A 
ATOM      5  N   UNL     1       7.146   7.848  17.098  0.00  0.00    +0.000 NA
ENDROOT
BRANCH   1   6
ATOM      6  C   UNL     1       8.796   9.113  18.517  0.00  0.00    +0.000 C 
BRANCH   6   7
ATOM      7  O   UNL     1       8.201  10.304  17.981  0.00  0.00    +0.000 OA
BRANCH   7  12
ATOM      8  F   UNL     1      11.744  14.494  17.809  0.00  0.00    +0.000 F 
ATOM      9  C   UNL     1      10.860  13.490  17.854  0.00  0.00    +0.000 A 
ATOM     10  C   UNL     1      11.309  12.182  17.980  0.00  0.00    +0.000 A 
ATOM     11  C   UNL     1      10.382  11.139  18.019  0.00  0.00    +0.000 A 
ATOM     12  C   UNL     1       9.010  11.407  17.951  0.00  0.00    +0.000 A 
ATOM     13  C   UNL     1       8.572  12.726  17.811  0.00  0.00    +0.000 A 
ATOM     14  C   UNL     1       9.500  13.770  17.765  0.00  0.00    +0.000 A 
ENDBRANCH   7  12
ENDBRANCH   6   7
ENDBRANCH   1   6
BRANCH   4  15
ATOM     15  C   UNL     1       5.934   5.837  16.105  0.00  0.00    +0.000 C 
BRANCH  15  16
ATOM     16  N   UNL     1       4.588   5.434  16.585  0.00  0.00    +0.000 NA
ATOM     17  C   UNL     1       4.100   6.298  17.666  0.00  0.00    +0.000 C 
ATOM     18  C   UNL     1       2.645   5.965  18.023  0.00  0.00    +0.000 C 
ATOM     19  C   UNL     1       2.463   4.502  18.279  0.00  0.00    +0.000 A 
ATOM     20  C   UNL     1       1.414   4.000  19.021  0.00  0.00    +0.000 A 
ATOM     21  N   UNL     1       1.221   2.688  19.247  0.00  0.00    +0.000 NA
ATOM     22  C   UNL     1       2.119   1.866  18.684  0.00  0.00    +0.000 A 
ATOM     23  N   UNL     1       3.169   2.235  17.937  0.00  0.00    +0.000 NA
ATOM     24  C   UNL     1       3.325   3.563  17.734  0.00  0.00    +0.000 A 
ATOM     25  C   UNL     1       4.562   4.005  16.972  0.00  0.00    +0.000 C 
ENDBRANCH  15  16
ENDBRANCH   4  15
TORSDOF 5
ENDMDL
MODEL 6
REMARK VINA RESULT:      -8.0      1.081      1.548
REMARK  Name = 
REMARK  5 active torsions:
REMARK  status: ('A' for Active; 'I' for Inactive)
REMARK    1  A    between atoms: C_5  and  O_6
REMARK    2  A    between atoms: O_6  and  C_7
REMARK    3  A    between atoms: C_7  and  C_8
REMARK    4  A    between atoms: C_11  and  C_12
REMARK    5  A    between atoms: C_12  and  N_13
REMARK                            x       y       z     vdW  Elec       q    Type
REMARK                         _______ _______ _______ _____ _____    ______ ____
ROOT
ATOM      1  C   UNL     1       7.802   8.173  17.910  0.00  0.00    +0.000 A 
ATOM      2  N   UNL     1       8.228   7.093  18.579  0.00  0.00    +0.000 NA
ATOM      3  O   UNL     1       7.338   6.094  18.183  0.00  0.00    +0.000 OA
ATOM      4  C   UNL     1       6.476   6.673  17.297  0.00  0.00    +0.000 A 
ATOM      5  N   UNL     1       6.711   7.953  17.104  0.00  0.00    +0.000 NA
ENDROOT
BRANCH   1   6
ATOM      6  C   UNL     1       8.527   9.478  17.948  0.00  0.00    +0.000 C 
BRANCH   6   7
ATOM      7  O   UNL     1       9.118   9.724  19.231  0.00  0.00    +0.000 OA
BRANCH   7  12
ATOM      8  F   UNL     1      11.756  14.455  20.123  0.00  0.00    +0.000 F 
ATOM      9  C   UNL     1      11.115  13.306  19.879  0.00  0.00    +0.000 A 
ATOM     10  C   UNL     1      10.461  12.649  20.912  0.00  0.00    +0.000 A 
ATOM     11  C   UNL     1       9.801  11.447  20.653  0.00  0.00    +0.000 A 
ATOM     12  C   UNL     1       9.781  10.914  19.359  0.00  0.00    +0.000 A 
ATOM     13  C   UNL     1      10.454  11.578  18.330  0.00  0.00    +0.000 A 
ATOM     14  C   UNL     1      11.121  12.779  18.591  0.00  0.00    +0.000 A 
ENDBRANCH   7  12
ENDBRANCH   6   7
ENDBRANCH   1   6
BRANCH   4  15
ATOM     15  C   UNL     1       5.493   5.766  16.624  0.00  0.00    +0.000 C 
BRANCH  15  16
ATOM     16  N   UNL     1       4.810   4.786  17.506  0.00  0.00    +0.000 NA
ATOM     17  C   UNL     1       4.263   3.648  16.757  0.00  0.00    +0.000 C 
ATOM     18  C   UNL     1       3.716   2.576  17.709  0.00  0.00    +0.000 C 
ATOM     19  C   UNL     1       2.771   3.160  18.712  0.00  0.00    +0.000 A 
ATOM     20  C   UNL     1       1.826   2.404  19.373  0.00  0.00    +0.000 A 
ATOM     21  N   UNL     1       0.981   2.905  20.292  0.00  0.00    +0.000 NA
ATOM     22  C   UNL     1       1.117   4.213  20.551  0.00  0.00    +0.000 A 
ATOM     23  N   UNL     1       2.002   5.044  19.980  0.00  0.00    +0.000 NA
ATOM     24  C   UNL     1       2.833   4.499  19.064  0.00  0.00    +0.000 A 
ATOM     25  C   UNL     1       3.775   5.443  18.338  0.00  0.00    +0.000 C 
ENDBRANCH  15  16
ENDBRANCH   4  15
TORSDOF 5
ENDMDL
MODEL 7
REMARK VINA RESULT:      -8.0      0.878      1.426
REMARK  Name = 
REMARK  5 active torsions:
REMARK  status: ('A' for Active; 'I' for Inactive)
REMARK    1  A    between atoms: C_5  and  O_6
REMARK    2  A    between atoms: O_6  and  C_7
REMARK    3  A    between atoms: C_7  and  C_8
REMARK    4  A    between atoms: C_11  and  C_12
REMARK    5  A    between atoms: C_12  and  N_13
REMARK                            x       y       z     vdW  Elec       q    Type
REMARK                         _______ _______ _______ _____ _____    ______ ____
ROOT
ATOM      1  C   UNL     1       8.035   7.905  18.142  0.00  0.00    +0.000 A 
ATOM      2  N   UNL     1       7.423   8.072  16.961  0.00  0.00    +0.000 NA
ATOM      3  O   UNL     1       6.878   6.814  16.697  0.00  0.00    +0.000 OA
ATOM      4  C   UNL     1       7.203   6.021  17.760  0.00  0.00    +0.000 A 
ATOM      5  N   UNL     1       7.925   6.641  18.670  0.00  0.00    +0.000 NA
ENDROOT
BRANCH   1   6
ATOM      6  C   UNL     1       8.683   9.032  18.876  0.00  0.00    +0.000 C 
BRANCH   6   7
ATOM      7  O   UNL     1       9.006  10.123  18.004  0.00  0.00    +0.000 OA
BRANCH   7  12
ATOM      8  F   UNL     1      12.324  14.119  19.782  0.00  0.00    +0.000 F 
ATOM      9  C   UNL     1      11.513  13.136  19.374  0.00  0.00    +0.000 A 
ATOM     10  C   UNL     1      11.390  12.862  18.018  0.00  0.00    +0.000 A 
ATOM     11  C   UNL     1      10.536  11.841  17.599  0.00  0.00    +0.000 A 
ATOM     12  C   UNL     1       9.822  11.084  18.535  0.00  0.00    +0.000 A 
ATOM     13  C   UNL     1       9.945  11.378  19.895  0.00  0.00    +0.000 A 
ATOM     14  C   UNL     1      10.795  12.405  20.316  0.00  0.00    +0.000 A 
ENDBRANCH   7  12
ENDBRANCH   6   7
ENDBRANCH   1   6
BRANCH   4  15
ATOM     15  C   UNL     1       6.619   4.643  17.774  0.00  0.00    +0.000 C 
BRANCH  15  16
ATOM     16  N   UNL     1       5.170   4.560  18.087  0.00  0.00    +0.000 NA
ATOM     17  C   UNL     1       4.601   5.865  18.445  0.00  0.00    +0.000 C 
ATOM     18  C   UNL     1       3.077   5.778  18.597  0.00  0.00    +0.000 C 
ATOM     19  C   UNL     1       2.678   4.664  19.513  0.00  0.00    +0.000 A 
ATOM     20  C   UNL     1       1.460   4.632  20.160  0.00  0.00    +0.000 A 
ATOM     21  N   UNL     1       1.074   3.631  20.973  0.00  0.00    +0.000 NA
ATOM     22  C   UNL     1       1.953   2.629  21.114  0.00  0.00    +0.000 A 
ATOM     23  N   UNL     1       3.158   2.546  20.531  0.00  0.00    +0.000 NA
ATOM     24  C   UNL     1       3.505   3.572  19.722  0.00  0.00    +0.000 A 
ATOM     25  C   UNL     1       4.904   3.542  19.130  0.00  0.00    +0.000 C 
ENDBRANCH  15  16
ENDBRANCH   4  15
TORSDOF 5
ENDMDL
MODEL 8
REMARK VINA RESULT:      -7.8      1.313      2.019
REMARK  Name = 
REMARK  5 active torsions:
REMARK  status: ('A' for Active; 'I' for Inactive)
REMARK    1  A    between atoms: C_5  and  O_6
REMARK    2  A    between atoms: O_6  and  C_7
REMARK    3  A    between atoms: C_7  and  C_8
REMARK    4  A    between atoms: C_11  and  C_12
REMARK    5  A    between atoms: C_12  and  N_13
REMARK                            x       y       z     vdW  Elec       q    Type
REMARK                         _______ _______ _______ _____ _____    ______ ____
ROOT
ATOM      1  C   UNL     1       7.613   7.455  17.680  0.00  0.00    +0.000 A 
ATOM      2  N   UNL     1       6.704   7.925  16.814  0.00  0.00    +0.000 NA
ATOM      3  O   UNL     1       6.094   6.769  16.324  0.00  0.00    +0.000 OA
ATOM      4  C   UNL     1       6.688   5.718  16.962  0.00  0.00    +0.000 A 
ATOM      5  N   UNL     1       7.637   6.085  17.797  0.00  0.00    +0.000 NA
ENDROOT
BRANCH   1   6
ATOM      6  C   UNL     1       8.449   8.352  18.531  0.00  0.00    +0.000 C 
BRANCH   6   7
ATOM      7  O   UNL     1       8.639   9.639  17.927  0.00  0.00    +0.000 OA
BRANCH   7  12
ATOM      8  F   UNL     1      11.666  13.409  20.526  0.00  0.00    +0.000 F 
ATOM      9  C   UNL     1      10.924  12.478  19.916  0.00  0.00    +0.000 A 
ATOM     10  C   UNL     1      10.935  12.386  18.531  0.00  0.00    +0.000 A 
ATOM     11  C   UNL     1      10.152  11.418  17.900  0.00  0.00    +0.000 A 
ATOM     12  C   UNL     1       9.375  10.532  18.656  0.00  0.00    +0.000 A 
ATOM     13  C   UNL     1       9.363  10.643  20.049  0.00  0.00    +0.000 A 
ATOM     14  C   UNL     1      10.141  11.617  20.680  0.00  0.00    +0.000 A 
ENDBRANCH   7  12
ENDBRANCH   6   7
ENDBRANCH   1   6
BRANCH   4  15
ATOM     15  C   UNL     1       6.115   4.360  16.699  0.00  0.00    +0.000 C 
BRANCH  15  16
ATOM     16  N   UNL     1       5.133   3.870  17.699  0.00  0.00    +0.000 NA
ATOM     17  C   UNL     1       4.167   2.930  17.117  0.00  0.00    +0.000 C 
ATOM     18  C   UNL     1       3.276   2.313  18.204  0.00  0.00    +0.000 C 
ATOM     19  C   UNL     1       2.659   3.365  19.071  0.00  0.00    +0.000 A 
ATOM     20  C   UNL     1       1.515   3.145  19.809  0.00  0.00    +0.000 A 
ATOM     21  N   UNL     1       0.955   4.070  20.610  0.00  0.00    +0.000 NA
ATOM     22  C   UNL     1       1.594   5.248  20.667  0.00  0.00    +0.000 A 
ATOM     23  N   UNL     1       2.714   5.573  20.005  0.00  0.00    +0.000 NA
ATOM     24  C   UNL     1       3.243   4.614  19.213  0.00  0.00    +0.000 A 
ATOM     25  C   UNL     1       4.455   4.996  18.382  0.00  0.00    +0.000 C 
ENDBRANCH  15  16
ENDBRANCH   4  15
TORSDOF 5
ENDMDL
MODEL 9
REMARK VINA RESULT:      -7.7      1.215      1.559
REMARK  Name = 
REMARK  5 active torsions:
REMARK  status: ('A' for Active; 'I' for Inactive)
REMARK    1  A    between atoms: C_5  and  O_6
REMARK    2  A    between atoms: O_6  and  C_7
REMARK    3  A    between atoms: C_7  and  C_8
REMARK    4  A    between atoms: C_11  and  C_12
REMARK    5  A    between atoms: C_12  and  N_13
REMARK                            x       y       z     vdW  Elec       q    Type
REMARK                         _______ _______ _______ _____ _____    ______ ____
ROOT
ATOM      1  C   UNL     1       7.782   6.576  18.548  0.00  0.00    +0.000 A 
ATOM      2  N   UNL     1       8.025   5.423  19.187  0.00  0.00    +0.000 NA
ATOM      3  O   UNL     1       7.117   4.534  18.609  0.00  0.00    +0.000 OA
ATOM      4  C   UNL     1       6.431   5.242  17.665  0.00  0.00    +0.000 A 
ATOM      5  N   UNL     1       6.793   6.506  17.596  0.00  0.00    +0.000 NA
ENDROOT
BRANCH   1   6
ATOM      6  C   UNL     1       8.599   7.805  18.773  0.00  0.00    +0.000 C 
BRANCH   6   7
ATOM      7  O   UNL     1       8.071   8.935  18.064  0.00  0.00    +0.000 OA
BRANCH   7  12
ATOM      8  F   UNL     1      10.080  13.946  19.063  0.00  0.00    +0.000 F 
ATOM      9  C   UNL     1       9.608  12.714  18.837  0.00  0.00    +0.000 A 
ATOM     10  C   UNL     1       8.744  12.491  17.773  0.00  0.00    +0.000 A 
ATOM     11  C   UNL     1       8.250  11.206  17.547  0.00  0.00    +0.000 A 
ATOM     12  C   UNL     1       8.634  10.143  18.373  0.00  0.00    +0.000 A 
ATOM     13  C   UNL     1       9.493  10.383  19.449  0.00  0.00    +0.000 A 
ATOM     14  C   UNL     1       9.983  11.672  19.679  0.00  0.00    +0.000 A 
ENDBRANCH   7  12
ENDBRANCH   6   7
ENDBRANCH   1   6
BRANCH   4  15
ATOM     15  C   UNL     1       5.475   4.471  16.809  0.00  0.00    +0.000 C 
BRANCH  15  16
ATOM     16  N   UNL     1       4.190   4.096  17.452  0.00  0.00    +0.000 NA
ATOM     17  C   UNL     1       3.269   5.234  17.561  0.00  0.00    +0.000 C 
ATOM     18  C   UNL     1       1.894   4.781  18.072  0.00  0.00    +0.000 C 
ATOM     19  C   UNL     1       2.013   3.967  19.322  0.00  0.00    +0.000 A 
ATOM     20  C   UNL     1       0.971   3.812  20.212  0.00  0.00    +0.000 A 
ATOM     21  N   UNL     1       1.049   3.070  21.331  0.00  0.00    +0.000 NA
ATOM     22  C   UNL     1       2.224   2.457  21.536  0.00  0.00    +0.000 A 
ATOM     23  N   UNL     1       3.301   2.525  20.741  0.00  0.00    +0.000 NA
ATOM     24  C   UNL     1       3.178   3.281  19.626  0.00  0.00    +0.000 A 
ATOM     25  C   UNL     1       4.417   3.447  18.764  0.00  0.00    +0.000 C 
ENDBRANCH  15  16
ENDBRANCH   4  15
TORSDOF 5
ENDMDL
