MODEL 1
REMARK VINA RESULT:      -8.0      0.000      0.000
REMARK  Name = 
REMARK  10 active torsions:
REMARK  status: ('A' for Active; 'I' for Inactive)
REMARK    1  A    between atoms: N_1  and  C_2
REMARK    2  A    between atoms: C_2  and  C_3
REMARK    3  A    between atoms: C_3  and  C_4
REMARK    4  A    between atoms: C_4  and  C_5
REMARK    5  A    between atoms: C_5  and  N_6
REMARK    6  A    between atoms: N_6  and  C_7
REMARK    7  A    between atoms: N_6  and  C_23
REMARK    8  A    between atoms: C_7  and  C_8
REMARK    9  A    between atoms: N_10  and  S_11
REMARK   10  A    between atoms: S_11  and  C_14
REMARK                            x       y       z     vdW  Elec       q    Type
REMARK                         _______ _______ _______ _____ _____    ______ ____
ROOT
ATOM      1  N   UNL     1       2.228   6.156  19.057  0.00  0.00    +0.000 NA
ENDROOT
BRANCH   1   2
ATOM      2  C   UNL     1       2.557   7.620  19.335  0.00  0.00    +0.000 C 
ATOM      3  C   UNL     1       2.921   8.478  18.103  0.00  0.00    +0.000 C 
ATOM      4  C   UNL     1       1.700   8.950  17.327  0.00  0.00    +0.000 C 
ATOM      5  C   UNL     1       0.772   9.779  18.204  0.00  0.00    +0.000 C 
ATOM      6  C   UNL     1       0.669   9.327  19.634  0.00  0.00    +0.000 A 
ATOM      7  C   UNL     1      -0.339   9.870  20.445  0.00  0.00    +0.000 A 
ATOM      8  C   UNL     1      -0.439   9.492  21.778  0.00  0.00    +0.000 A 
ATOM      9  C   UNL     1       0.530   8.641  22.283  0.00  0.00    +0.000 A 
ATOM     10  N   UNL     1       1.534   8.110  21.544  0.00  0.00    +0.000 NA
ATOM     11  C   UNL     1       1.553   8.397  20.208  0.00  0.00    +0.000 A 
ENDBRANCH   1   2
BRANCH   1  12
ATOM     12  C   UNL     1       2.191   5.348  20.296  0.00  0.00    +0.000 C 
BRANCH  12  13
ATOM     13  C   UNL     1       0.952   4.478  20.538  0.00  0.00    +0.000 C 
BRANCH  13  14
ATOM     14  C   UNL     1       1.172   2.970  20.421  0.00  0.00    +0.000 C 
BRANCH  14  15
ATOM     15  C   UNL     1       0.826   2.541  18.994  0.00  0.00    +0.000 C 
BRANCH  15  16
ATOM     16  N   UNL     1       1.821   1.634  18.443  0.00  0.00    +0.000 NA
ATOM     17  H   UNL     1       1.444   0.687  18.452  0.00  0.00    +0.000 HD
ATOM     18  H   UNL     1       2.647   1.622  19.039  0.00  0.00    +0.000 HD
ENDBRANCH  15  16
ENDBRANCH  14  15
ENDBRANCH  13  14
ENDBRANCH  12  13
ENDBRANCH   1  12
BRANCH   1  19
ATOM     19  C   UNL     1       3.152   5.512  18.087  0.00  0.00    +0.000 C 
BRANCH  19  20
ATOM     20  C   UNL     1       4.081   4.322  18.520  0.00  0.00    +0.000 C 
ATOM     21  C   UNL     1       4.982   3.644  17.456  0.00  0.00    +0.000 C 
ATOM     22  N   UNL     1       6.242   4.364  17.070  0.00  0.00    +0.000 NA
ATOM     23  C   UNL     1       6.964   4.834  18.304  0.00  0.00    +0.000 C 
ATOM     24  C   UNL     1       6.043   5.505  19.341  0.00  0.00    +0.000 C 
ATOM     25  N   UNL     1       4.892   4.671  19.723  0.00  0.00    +0.000 NA
ATOM     26  H   UNL     1       4.318   5.169  20.402  0.00  0.00    +0.000 HD
BRANCH  22  27
ATOM     27  S   UNL     1       6.182   5.563  15.882  0.00  0.00    +0.000 S 
ATOM     28  O   UNL     1       4.895   6.161  16.019  0.00  0.00    +0.000 OA
ATOM     29  O   UNL     1       7.361   6.387  16.122  0.00  0.00    +0.000 OA
BRANCH  27  30
ATOM     30  C   UNL     1       6.446   4.828  14.276  0.00  0.00    +0.000 A 
ATOM     31  C   UNL     1       7.538   5.143  13.469  0.00  0.00    +0.000 A 
ATOM     32  C   UNL     1       7.640   4.600  12.178  0.00  0.00    +0.000 A 
ATOM     33  C   UNL     1       6.693   3.688  11.717  0.00  0.00    +0.000 A 
ATOM     34  C   UNL     1       5.649   3.298  12.552  0.00  0.00    +0.000 A 
ATOM     35  C   UNL     1       5.524   3.868  13.822  0.00  0.00    +0.000 A 
ENDBRANCH  27  30
ENDBRANCH  22  27
ENDBRANCH  19  20
ENDBRANCH   1  19
TORSDOF 10
ENDMDL
MODEL 2
REMARK VINA RESULT:      -7.7      0.909      1.333
REMARK  Name = 
REMARK  10 active torsions:
REMARK  status: ('A' for Active; 'I' for Inactive)
REMARK    1  A    between atoms: N_1  and  C_2
REMARK    2  A    between atoms: C_2  and  C_3
REMARK    3  A    between atoms: C_3  and  C_4
REMARK    4  A    between atoms: C_4  and  C_5
REMARK    5  A    between atoms: C_5  and  N_6
REMARK    6  A    between atoms: N_6  and  C_7
REMARK    7  A    between atoms: N_6  and  C_23
REMARK    8  A    between atoms: C_7  and  C_8
REMARK    9  A    between atoms: N_10  and  S_11
REMARK   10  A    between atoms: S_11  and  C_14
REMARK                            x       y       z     vdW  Elec       q    Type
REMARK                         _______ _______ _______ _____ _____    ______ ____
ROOT
ATOM      1  N   UNL     1       2.286   6.983  19.060  0.00  0.00    +0.000 NA
ENDROOT
BRANCH   1   2
ATOM      2  C   UNL     1       2.253   8.500  19.220  0.00  0.00    +0.000 C 
ATOM      3  C   UNL     1       1.994   9.311  17.932  0.00  0.00    +0.000 C 
ATOM      4  C   UNL     1       0.521   9.368  17.551  0.00  0.00    +0.000 C 
ATOM      5  C   UNL     1      -0.314   9.992  18.661  0.00  0.00    +0.000 C 
ATOM      6  C   UNL     1       0.126   9.656  20.059  0.00  0.00    +0.000 A 
ATOM      7  C   UNL     1      -0.721   9.979  21.130  0.00  0.00    +0.000 A 
ATOM      8  C   UNL     1      -0.328   9.707  22.435  0.00  0.00    +0.000 A 
ATOM      9  C   UNL     1       0.944   9.196  22.633  0.00  0.00    +0.000 A 
ATOM     10  N   UNL     1       1.805   8.891  21.631  0.00  0.00    +0.000 NA
ATOM     11  C   UNL     1       1.362   9.053  20.348  0.00  0.00    +0.000 A 
ENDBRANCH   1   2
BRANCH   1  12
ATOM     12  C   UNL     1       2.048   6.281  20.341  0.00  0.00    +0.000 C 
BRANCH  12  13
ATOM     13  C   UNL     1       0.843   5.336  20.418  0.00  0.00    +0.000 C 
BRANCH  13  14
ATOM     14  C   UNL     1       1.164   3.846  20.299  0.00  0.00    +0.000 C 
BRANCH  14  15
ATOM     15  C   UNL     1       1.951   3.423  21.540  0.00  0.00    +0.000 C 
BRANCH  15  16
ATOM     16  N   UNL     1       3.082   2.572  21.202  0.00  0.00    +0.000 NA
ATOM     17  H   UNL     1       3.774   2.631  21.949  0.00  0.00    +0.000 HD
ATOM     18  H   UNL     1       3.537   2.918  20.359  0.00  0.00    +0.000 HD
ENDBRANCH  15  16
ENDBRANCH  14  15
ENDBRANCH  13  14
ENDBRANCH  12  13
ENDBRANCH   1  12
BRANCH   1  19
ATOM     19  C   UNL     1       3.547   6.475  18.458  0.00  0.00    +0.000 C 
BRANCH  19  20
ATOM     20  C   UNL     1       4.052   5.015  18.743  0.00  0.00    +0.000 C 
ATOM     21  C   UNL     1       4.530   4.139  17.557  0.00  0.00    +0.000 C 
ATOM     22  N   UNL     1       5.906   4.409  17.021  0.00  0.00    +0.000 NA
ATOM     23  C   UNL     1       6.887   4.527  18.156  0.00  0.00    +0.000 C 
ATOM     24  C   UNL     1       6.384   5.406  19.318  0.00  0.00    +0.000 C 
ATOM     25  N   UNL     1       5.069   4.991  19.834  0.00  0.00    +0.000 NA
ATOM     26  H   UNL     1       4.787   5.611  20.592  0.00  0.00    +0.000 HD
BRANCH  22  27
ATOM     27  S   UNL     1       6.125   5.628  15.873  0.00  0.00    +0.000 S 
ATOM     28  O   UNL     1       4.949   6.431  15.951  0.00  0.00    +0.000 OA
ATOM     29  O   UNL     1       7.406   6.237  16.213  0.00  0.00    +0.000 OA
BRANCH  27  30
ATOM     30  C   UNL     1       6.369   4.897  14.262  0.00  0.00    +0.000 A 
ATOM     31  C   UNL     1       5.501   3.949  13.721  0.00  0.00    +0.000 A 
ATOM     32  C   UNL     1       5.799   3.344  12.489  0.00  0.00    +0.000 A 
ATOM     33  C   UNL     1       6.921   3.735  11.761  0.00  0.00    +0.000 A 
ATOM     34  C   UNL     1       7.742   4.747  12.252  0.00  0.00    +0.000 A 
ATOM     35  C   UNL     1       7.469   5.321  13.497  0.00  0.00    +0.000 A 
ENDBRANCH  27  30
ENDBRANCH  22  27
ENDBRANCH  19  20
ENDBRANCH   1  19
TORSDOF 10
ENDMDL
MODEL 3
REMARK VINA RESULT:      -7.5      3.671      8.944
REMARK  Name = 
REMARK  10 active torsions:
REMARK  status: ('A' for Active; 'I' for Inactive)
REMARK    1  A    between atoms: N_1  and  C_2
REMARK    2  A    between atoms: C_2  and  C_3
REMARK    3  A    between atoms: C_3  and  C_4
REMARK    4  A    between atoms: C_4  and  C_5
REMARK    5  A    between atoms: C_5  and  N_6
REMARK    6  A    between atoms: N_6  and  C_7
REMARK    7  A    between atoms: N_6  and  C_23
REMARK    8  A    between atoms: C_7  and  C_8
REMARK    9  A    between atoms: N_10  and  S_11
REMARK   10  A    between atoms: S_11  and  C_14
REMARK                            x       y       z     vdW  Elec       q    Type
REMARK                         _______ _______ _______ _____ _____    ______ ____
ROOT
ATOM      1  N   UNL     1       2.651   6.971  18.171  0.00  0.00    +0.000 NA
ENDROOT
BRANCH   1   2
ATOM      2  C   UNL     1       3.028   5.976  19.264  0.00  0.00    +0.000 C 
ATOM      3  C   UNL     1       2.341   6.180  20.632  0.00  0.00    +0.000 C 
ATOM      4  C   UNL     1       0.927   5.617  20.676  0.00  0.00    +0.000 C 
ATOM      5  C   UNL     1       0.914   4.124  20.375  0.00  0.00    +0.000 C 
ATOM      6  C   UNL     1       1.911   3.671  19.344  0.00  0.00    +0.000 A 
ATOM      7  C   UNL     1       1.805   2.371  18.827  0.00  0.00    +0.000 A 
ATOM      8  C   UNL     1       2.730   1.915  17.895  0.00  0.00    +0.000 A 
ATOM      9  C   UNL     1       3.786   2.750  17.571  0.00  0.00    +0.000 A 
ATOM     10  N   UNL     1       3.942   4.004  18.062  0.00  0.00    +0.000 NA
ATOM     11  C   UNL     1       2.963   4.483  18.888  0.00  0.00    +0.000 A 
ENDBRANCH   1   2
BRANCH   1  12
ATOM     12  C   UNL     1       3.766   7.216  17.230  0.00  0.00    +0.000 C 
BRANCH  12  13
ATOM     13  C   UNL     1       5.191   7.179  17.795  0.00  0.00    +0.000 C 
BRANCH  13  14
ATOM     14  C   UNL     1       6.225   6.457  16.930  0.00  0.00    +0.000 C 
BRANCH  14  15
ATOM     15  C   UNL     1       7.255   5.807  17.855  0.00  0.00    +0.000 C 
BRANCH  15  16
ATOM     16  N   UNL     1       7.043   4.373  17.982  0.00  0.00    +0.000 NA
ATOM     17  H   UNL     1       7.432   3.909  17.161  0.00  0.00    +0.000 HD
ATOM     18  H   UNL     1       6.045   4.168  17.982  0.00  0.00    +0.000 HD
ENDBRANCH  15  16
ENDBRANCH  14  15
ENDBRANCH  13  14
ENDBRANCH  12  13
ENDBRANCH   1  12
BRANCH   1  19
ATOM     19  C   UNL     1       2.166   8.275  18.695  0.00  0.00    +0.000 C 
BRANCH  19  20
ATOM     20  C   UNL     1       1.335   9.255  17.790  0.00  0.00    +0.000 C 
ATOM     21  C   UNL     1      -0.020   9.795  18.312  0.00  0.00    +0.000 C 
ATOM     22  N   UNL     1       0.030  10.913  19.312  0.00  0.00    +0.000 NA
ATOM     23  C   UNL     1       0.999  11.970  18.855  0.00  0.00    +0.000 C 
ATOM     24  C   UNL     1       2.338  11.402  18.345  0.00  0.00    +0.000 C 
ATOM     25  N   UNL     1       2.175  10.384  17.294  0.00  0.00    +0.000 NA
ATOM     26  H   UNL     1       3.090  10.042  17.004  0.00  0.00    +0.000 HD
BRANCH  22  27
ATOM     27  S   UNL     1       0.223  10.552  20.951  0.00  0.00    +0.000 S 
ATOM     28  O   UNL     1      -0.308   9.238  21.109  0.00  0.00    +0.000 OA
ATOM     29  O   UNL     1       1.641  10.765  21.216  0.00  0.00    +0.000 OA
BRANCH  27  30
ATOM     30  C   UNL     1      -0.625  11.775  21.937  0.00  0.00    +0.000 A 
ATOM     31  C   UNL     1      -0.240  13.114  21.979  0.00  0.00    +0.000 A 
ATOM     32  C   UNL     1      -0.891  14.007  22.846  0.00  0.00    +0.000 A 
ATOM     33  C   UNL     1      -1.971  13.584  23.618  0.00  0.00    +0.000 A 
ATOM     34  C   UNL     1      -2.420  12.270  23.512  0.00  0.00    +0.000 A 
ATOM     35  C   UNL     1      -1.748  11.370  22.681  0.00  0.00    +0.000 A 
ENDBRANCH  27  30
ENDBRANCH  22  27
ENDBRANCH  19  20
ENDBRANCH   1  19
TORSDOF 10
ENDMDL
MODEL 4
REMARK VINA RESULT:      -7.5      3.453      9.005
REMARK  Name = 
REMARK  10 active torsions:
REMARK  status: ('A' for Active; 'I' for Inactive)
REMARK    1  A    between atoms: N_1  and  C_2
REMARK    2  A    between atoms: C_2  and  C_3
REMARK    3  A    between atoms: C_3  and  C_4
REMARK    4  A    between atoms: C_4  and  C_5
REMARK    5  A    between atoms: C_5  and  N_6
REMARK    6  A    between atoms: N_6  and  C_7
REMARK    7  A    between atoms: N_6  and  C_23
REMARK    8  A    between atoms: C_7  and  C_8
REMARK    9  A    between atoms: N_10  and  S_11
REMARK   10  A    between atoms: S_11  and  C_14
REMARK                            x       y       z     vdW  Elec       q    Type
REMARK                         _______ _______ _______ _____ _____    ______ ____
ROOT
ATOM      1  N   UNL     1       2.826   6.984  18.408  0.00  0.00    +0.000 NA
ENDROOT
BRANCH   1   2
ATOM      2  C   UNL     1       3.048   5.954  19.511  0.00  0.00    +0.000 C 
ATOM      3  C   UNL     1       2.120   6.068  20.740  0.00  0.00    +0.000 C 
ATOM      4  C   UNL     1       0.747   5.452  20.508  0.00  0.00    +0.000 C 
ATOM      5  C   UNL     1       0.856   3.975  20.151  0.00  0.00    +0.000 C 
ATOM      6  C   UNL     1       2.039   3.608  19.299  0.00  0.00    +0.000 A 
ATOM      7  C   UNL     1       2.085   2.330  18.720  0.00  0.00    +0.000 A 
ATOM      8  C   UNL     1       3.180   1.953  17.953  0.00  0.00    +0.000 A 
ATOM      9  C   UNL     1       4.238   2.841  17.857  0.00  0.00    +0.000 A 
ATOM     10  N   UNL     1       4.248   4.075  18.416  0.00  0.00    +0.000 NA
ATOM     11  C   UNL     1       3.118   4.479  19.071  0.00  0.00    +0.000 A 
ENDBRANCH   1   2
BRANCH   1  12
ATOM     12  C   UNL     1       4.095   7.401  17.770  0.00  0.00    +0.000 C 
BRANCH  12  13
ATOM     13  C   UNL     1       4.451   6.765  16.421  0.00  0.00    +0.000 C 
BRANCH  13  14
ATOM     14  C   UNL     1       5.935   6.468  16.203  0.00  0.00    +0.000 C 
BRANCH  14  15
ATOM     15  C   UNL     1       6.054   5.181  15.386  0.00  0.00    +0.000 C 
BRANCH  15  16
ATOM     16  N   UNL     1       7.441   4.808  15.157  0.00  0.00    +0.000 NA
ATOM     17  H   UNL     1       8.017   5.214  15.894  0.00  0.00    +0.000 HD
ATOM     18  H   UNL     1       7.768   5.210  14.280  0.00  0.00    +0.000 HD
ENDBRANCH  15  16
ENDBRANCH  14  15
ENDBRANCH  13  14
ENDBRANCH  12  13
ENDBRANCH   1  12
BRANCH   1  19
ATOM     19  C   UNL     1       2.094   8.195  18.862  0.00  0.00    +0.000 C 
BRANCH  19  20
ATOM     20  C   UNL     1       1.351   9.126  17.838  0.00  0.00    +0.000 C 
ATOM     21  C   UNL     1      -0.053   9.674  18.199  0.00  0.00    +0.000 C 
ATOM     22  N   UNL     1      -0.108  10.835  19.150  0.00  0.00    +0.000 NA
ATOM     23  C   UNL     1       0.895  11.881  18.744  0.00  0.00    +0.000 C 
ATOM     24  C   UNL     1       2.281  11.306  18.394  0.00  0.00    +0.000 C 
ATOM     25  N   UNL     1       2.229  10.242  17.378  0.00  0.00    +0.000 NA
ATOM     26  H   UNL     1       3.170   9.897  17.194  0.00  0.00    +0.000 HD
BRANCH  22  27
ATOM     27  S   UNL     1      -0.076  10.546  20.814  0.00  0.00    +0.000 S 
ATOM     28  O   UNL     1      -0.241   9.137  20.952  0.00  0.00    +0.000 OA
ATOM     29  O   UNL     1       1.170  11.149  21.274  0.00  0.00    +0.000 OA
BRANCH  27  30
ATOM     30  C   UNL     1      -1.370  11.485  21.609  0.00  0.00    +0.000 A 
ATOM     31  C   UNL     1      -1.589  11.458  22.986  0.00  0.00    +0.000 A 
ATOM     32  C   UNL     1      -2.682  12.146  23.539  0.00  0.00    +0.000 A 
ATOM     33  C   UNL     1      -3.512  12.921  22.732  0.00  0.00    +0.000 A 
ATOM     34  C   UNL     1      -3.244  13.027  21.370  0.00  0.00    +0.000 A 
ATOM     35  C   UNL     1      -2.183  12.310  20.811  0.00  0.00    +0.000 A 
ENDBRANCH  27  30
ENDBRANCH  22  27
ENDBRANCH  19  20
ENDBRANCH   1  19
TORSDOF 10
ENDMDL
MODEL 5
REMARK VINA RESULT:      -7.4      1.849      4.859
REMARK  Name = 
REMARK  10 active torsions:
REMARK  status: ('A' for Active; 'I' for Inactive)
REMARK    1  A    between atoms: N_1  and  C_2
REMARK    2  A    between atoms: C_2  and  C_3
REMARK    3  A    between atoms: C_3  and  C_4
REMARK    4  A    between atoms: C_4  and  C_5
REMARK    5  A    between atoms: C_5  and  N_6
REMARK    6  A    between atoms: N_6  and  C_7
REMARK    7  A    between atoms: N_6  and  C_23
REMARK    8  A    between atoms: C_7  and  C_8
REMARK    9  A    between atoms: N_10  and  S_11
REMARK   10  A    between atoms: S_11  and  C_14
REMARK                            x       y       z     vdW  Elec       q    Type
REMARK                         _______ _______ _______ _____ _____    ______ ____
ROOT
ATOM      1  N   UNL     1       3.175   5.486  20.237  0.00  0.00    +0.000 NA
ENDROOT
BRANCH   1   2
ATOM      2  C   UNL     1       2.388   4.186  20.366  0.00  0.00    +0.000 C 
ATOM      3  C   UNL     1       1.049   4.126  19.599  0.00  0.00    +0.000 C 
ATOM      4  C   UNL     1       1.225   3.815  18.119  0.00  0.00    +0.000 C 
ATOM      5  C   UNL     1       1.931   2.481  17.913  0.00  0.00    +0.000 C 
ATOM      6  C   UNL     1       3.003   2.162  18.918  0.00  0.00    +0.000 A 
ATOM      7  C   UNL     1       3.866   1.085  18.668  0.00  0.00    +0.000 A 
ATOM      8  C   UNL     1       4.847   0.749  19.593  0.00  0.00    +0.000 A 
ATOM      9  C   UNL     1       4.878   1.453  20.785  0.00  0.00    +0.000 A 
ATOM     10  N   UNL     1       4.051   2.485  21.081  0.00  0.00    +0.000 NA
ATOM     11  C   UNL     1       3.168   2.881  20.115  0.00  0.00    +0.000 A 
ENDBRANCH   1   2
BRANCH   1  12
ATOM     12  C   UNL     1       2.290   6.668  20.144  0.00  0.00    +0.000 C 
BRANCH  12  13
ATOM     13  C   UNL     1       2.375   7.518  18.871  0.00  0.00    +0.000 C 
BRANCH  13  14
ATOM     14  C   UNL     1       1.539   8.799  18.876  0.00  0.00    +0.000 C 
BRANCH  14  15
ATOM     15  C   UNL     1       2.144   9.772  17.862  0.00  0.00    +0.000 C 
BRANCH  15  16
ATOM     16  N   UNL     1       1.657  11.129  18.055  0.00  0.00    +0.000 NA
ATOM     17  H   UNL     1       1.589  11.316  19.055  0.00  0.00    +0.000 HD
ATOM     18  H   UNL     1       0.713  11.215  17.681  0.00  0.00    +0.000 HD
ENDBRANCH  15  16
ENDBRANCH  14  15
ENDBRANCH  13  14
ENDBRANCH  12  13
ENDBRANCH   1  12
BRANCH   1  19
ATOM     19  C   UNL     1       4.120   5.498  19.090  0.00  0.00    +0.000 C 
BRANCH  19  20
ATOM     20  C   UNL     1       5.558   4.879  19.216  0.00  0.00    +0.000 C 
ATOM     21  C   UNL     1       6.074   3.938  18.098  0.00  0.00    +0.000 C 
ATOM     22  N   UNL     1       6.567   4.584  16.835  0.00  0.00    +0.000 NA
ATOM     23  C   UNL     1       7.480   5.734  17.168  0.00  0.00    +0.000 C 
ATOM     24  C   UNL     1       6.938   6.652  18.280  0.00  0.00    +0.000 C 
ATOM     25  N   UNL     1       6.580   5.926  19.510  0.00  0.00    +0.000 NA
ATOM     26  H   UNL     1       6.223   6.582  20.203  0.00  0.00    +0.000 HD
BRANCH  22  27
ATOM     27  S   UNL     1       5.460   4.992  15.626  0.00  0.00    +0.000 S 
ATOM     28  O   UNL     1       4.250   4.331  15.988  0.00  0.00    +0.000 OA
ATOM     29  O   UNL     1       5.470   6.449  15.585  0.00  0.00    +0.000 OA
BRANCH  27  30
ATOM     30  C   UNL     1       6.093   4.476  14.038  0.00  0.00    +0.000 A 
ATOM     31  C   UNL     1       7.285   4.962  13.503  0.00  0.00    +0.000 A 
ATOM     32  C   UNL     1       7.681   4.588  12.209  0.00  0.00    +0.000 A 
ATOM     33  C   UNL     1       6.927   3.674  11.475  0.00  0.00    +0.000 A 
ATOM     34  C   UNL     1       5.784   3.114  12.039  0.00  0.00    +0.000 A 
ATOM     35  C   UNL     1       5.367   3.516  13.311  0.00  0.00    +0.000 A 
ENDBRANCH  27  30
ENDBRANCH  22  27
ENDBRANCH  19  20
ENDBRANCH   1  19
TORSDOF 10
ENDMDL
MODEL 6
REMARK VINA RESULT:      -7.3      3.780      9.088
REMARK  Name = 
REMARK  10 active torsions:
REMARK  status: ('A' for Active; 'I' for Inactive)
REMARK    1  A    between atoms: N_1  and  C_2
REMARK    2  A    between atoms: C_2  and  C_3
REMARK    3  A    between atoms: C_3  and  C_4
REMARK    4  A    between atoms: C_4  and  C_5
REMARK    5  A    between atoms: C_5  and  N_6
REMARK    6  A    between atoms: N_6  and  C_7
REMARK    7  A    between atoms: N_6  and  C_23
REMARK    8  A    between atoms: C_7  and  C_8
REMARK    9  A    between atoms: N_10  and  S_11
REMARK   10  A    between atoms: S_11  and  C_14
REMARK                            x       y       z     vdW  Elec       q    Type
REMARK                         _______ _______ _______ _____ _____    ______ ____
ROOT
ATOM      1  N   UNL     1       2.489   6.939  18.165  0.00  0.00    +0.000 NA
ENDROOT
BRANCH   1   2
ATOM      2  C   UNL     1       2.915   5.991  19.281  0.00  0.00    +0.000 C 
ATOM      3  C   UNL     1       2.188   6.164  20.632  0.00  0.00    +0.000 C 
ATOM      4  C   UNL     1       0.818   5.500  20.658  0.00  0.00    +0.000 C 
ATOM      5  C   UNL     1       0.920   4.007  20.381  0.00  0.00    +0.000 C 
ATOM      6  C   UNL     1       1.967   3.612  19.377  0.00  0.00    +0.000 A 
ATOM      7  C   UNL     1       1.966   2.300  18.879  0.00  0.00    +0.000 A 
ATOM      8  C   UNL     1       2.940   1.899  17.972  0.00  0.00    +0.000 A 
ATOM      9  C   UNL     1       3.939   2.804  17.655  0.00  0.00    +0.000 A 
ATOM     10  N   UNL     1       3.993   4.072  18.128  0.00  0.00    +0.000 NA
ATOM     11  C   UNL     1       2.966   4.492  18.927  0.00  0.00    +0.000 A 
ENDBRANCH   1   2
BRANCH   1  12
ATOM     12  C   UNL     1       3.564   7.151  17.170  0.00  0.00    +0.000 C 
BRANCH  12  13
ATOM     13  C   UNL     1       4.993   7.322  17.698  0.00  0.00    +0.000 C 
BRANCH  13  14
ATOM     14  C   UNL     1       6.087   6.639  16.876  0.00  0.00    +0.000 C 
BRANCH  14  15
ATOM     15  C   UNL     1       7.432   6.894  17.558  0.00  0.00    +0.000 C 
BRANCH  15  16
ATOM     16  N   UNL     1       7.883   8.264  17.375  0.00  0.00    +0.000 NA
ATOM     17  H   UNL     1       7.088   8.892  17.492  0.00  0.00    +0.000 HD
ATOM     18  H   UNL     1       8.216   8.396  16.421  0.00  0.00    +0.000 HD
ENDBRANCH  15  16
ENDBRANCH  14  15
ENDBRANCH  13  14
ENDBRANCH  12  13
ENDBRANCH   1  12
BRANCH   1  19
ATOM     19  C   UNL     1       2.017   8.261  18.655  0.00  0.00    +0.000 C 
BRANCH  19  20
ATOM     20  C   UNL     1       1.320   9.283  17.687  0.00  0.00    +0.000 C 
ATOM     21  C   UNL     1      -0.065   9.862  18.074  0.00  0.00    +0.000 C 
ATOM     22  N   UNL     1      -0.084  10.962  19.096  0.00  0.00    +0.000 NA
ATOM     23  C   UNL     1       0.963  11.991  18.764  0.00  0.00    +0.000 C 
ATOM     24  C   UNL     1       2.329  11.385  18.387  0.00  0.00    +0.000 C 
ATOM     25  N   UNL     1       2.244  10.390  17.305  0.00  0.00    +0.000 NA
ATOM     26  H   UNL     1       3.173  10.021  17.106  0.00  0.00    +0.000 HD
BRANCH  22  27
ATOM     27  S   UNL     1      -0.078  10.567  20.738  0.00  0.00    +0.000 S 
ATOM     28  O   UNL     1      -0.289   9.158  20.785  0.00  0.00    +0.000 OA
ATOM     29  O   UNL     1       1.182  11.098  21.246  0.00  0.00    +0.000 OA
BRANCH  27  30
ATOM     30  C   UNL     1      -1.349  11.496  21.581  0.00  0.00    +0.000 A 
ATOM     31  C   UNL     1      -2.200  12.383  20.925  0.00  0.00    +0.000 A 
ATOM     32  C   UNL     1      -3.118  13.152  21.659  0.00  0.00    +0.000 A 
ATOM     33  C   UNL     1      -3.238  12.986  23.037  0.00  0.00    +0.000 A 
ATOM     34  C   UNL     1      -2.455  12.035  23.686  0.00  0.00    +0.000 A 
ATOM     35  C   UNL     1      -1.513  11.298  22.964  0.00  0.00    +0.000 A 
ENDBRANCH  27  30
ENDBRANCH  22  27
ENDBRANCH  19  20
ENDBRANCH   1  19
TORSDOF 10
ENDMDL
MODEL 7
REMARK VINA RESULT:      -7.3      3.899      8.816
REMARK  Name = 
REMARK  10 active torsions:
REMARK  status: ('A' for Active; 'I' for Inactive)
REMARK    1  A    between atoms: N_1  and  C_2
REMARK    2  A    between atoms: C_2  and  C_3
REMARK    3  A    between atoms: C_3  and  C_4
REMARK    4  A    between atoms: C_4  and  C_5
REMARK    5  A    between atoms: C_5  and  N_6
REMARK    6  A    between atoms: N_6  and  C_7
REMARK    7  A    between atoms: N_6  and  C_23
REMARK    8  A    between atoms: C_7  and  C_8
REMARK    9  A    between atoms: N_10  and  S_11
REMARK   10  A    between atoms: S_11  and  C_14
REMARK                            x       y       z     vdW  Elec       q    Type
REMARK                         _______ _______ _______ _____ _____    ______ ____
ROOT
ATOM      1  N   UNL     1       2.598   6.962  19.488  0.00  0.00    +0.000 NA
ENDROOT
BRANCH   1   2
ATOM      2  C   UNL     1       2.824   6.496  18.053  0.00  0.00    +0.000 C 
ATOM      3  C   UNL     1       4.082   7.050  17.350  0.00  0.00    +0.000 C 
ATOM      4  C   UNL     1       5.354   6.310  17.739  0.00  0.00    +0.000 C 
ATOM      5  C   UNL     1       5.258   4.828  17.403  0.00  0.00    +0.000 C 
ATOM      6  C   UNL     1       3.899   4.214  17.598  0.00  0.00    +0.000 A 
ATOM      7  C   UNL     1       3.775   2.817  17.553  0.00  0.00    +0.000 A 
ATOM      8  C   UNL     1       2.527   2.225  17.701  0.00  0.00    +0.000 A 
ATOM      9  C   UNL     1       1.425   3.056  17.805  0.00  0.00    +0.000 A 
ATOM     10  N   UNL     1       1.494   4.410  17.830  0.00  0.00    +0.000 NA
ATOM     11  C   UNL     1       2.737   4.978  17.802  0.00  0.00    +0.000 A 
ENDBRANCH   1   2
BRANCH   1  12
ATOM     12  C   UNL     1       1.702   6.053  20.237  0.00  0.00    +0.000 C 
BRANCH  12  13
ATOM     13  C   UNL     1       2.350   4.903  21.016  0.00  0.00    +0.000 C 
BRANCH  13  14
ATOM     14  C   UNL     1       1.430   3.726  21.342  0.00  0.00    +0.000 C 
BRANCH  14  15
ATOM     15  C   UNL     1       2.286   2.464  21.462  0.00  0.00    +0.000 C 
BRANCH  15  16
ATOM     16  N   UNL     1       3.670   2.708  21.085  0.00  0.00    +0.000 NA
ATOM     17  H   UNL     1       4.258   2.614  21.913  0.00  0.00    +0.000 HD
ATOM     18  H   UNL     1       3.777   3.669  20.763  0.00  0.00    +0.000 HD
ENDBRANCH  15  16
ENDBRANCH  14  15
ENDBRANCH  13  14
ENDBRANCH  12  13
ENDBRANCH   1  12
BRANCH   1  19
ATOM     19  C   UNL     1       2.073   8.349  19.588  0.00  0.00    +0.000 C 
BRANCH  19  20
ATOM     20  C   UNL     1       1.267   8.998  18.405  0.00  0.00    +0.000 C 
ATOM     21  C   UNL     1      -0.145   9.573  18.682  0.00  0.00    +0.000 C 
ATOM     22  N   UNL     1      -0.216  10.919  19.344  0.00  0.00    +0.000 NA
ATOM     23  C   UNL     1       0.736  11.873  18.673  0.00  0.00    +0.000 C 
ATOM     24  C   UNL     1       2.131  11.273  18.414  0.00  0.00    +0.000 C 
ATOM     25  N   UNL     1       2.090  10.003  17.671  0.00  0.00    +0.000 NA
ATOM     26  H   UNL     1       3.037   9.653  17.537  0.00  0.00    +0.000 HD
BRANCH  22  27
ATOM     27  S   UNL     1      -0.126  11.021  21.027  0.00  0.00    +0.000 S 
ATOM     28  O   UNL     1       0.003   9.674  21.477  0.00  0.00    +0.000 OA
ATOM     29  O   UNL     1       0.968  11.949  21.287  0.00  0.00    +0.000 OA
BRANCH  27  30
ATOM     30  C   UNL     1      -1.586  11.834  21.656  0.00  0.00    +0.000 A 
ATOM     31  C   UNL     1      -2.423  12.612  20.858  0.00  0.00    +0.000 A 
ATOM     32  C   UNL     1      -3.504  13.301  21.433  0.00  0.00    +0.000 A 
ATOM     33  C   UNL     1      -3.795  13.157  22.787  0.00  0.00    +0.000 A 
ATOM     34  C   UNL     1      -3.018  12.309  23.572  0.00  0.00    +0.000 A 
ATOM     35  C   UNL     1      -1.918  11.655  23.011  0.00  0.00    +0.000 A 
ENDBRANCH  27  30
ENDBRANCH  22  27
ENDBRANCH  19  20
ENDBRANCH   1  19
TORSDOF 10
ENDMDL
MODEL 8
REMARK VINA RESULT:      -7.2      1.727      4.786
REMARK  Name = 
REMARK  10 active torsions:
REMARK  status: ('A' for Active; 'I' for Inactive)
REMARK    1  A    between atoms: N_1  and  C_2
REMARK    2  A    between atoms: C_2  and  C_3
REMARK    3  A    between atoms: C_3  and  C_4
REMARK    4  A    between atoms: C_4  and  C_5
REMARK    5  A    between atoms: C_5  and  N_6
REMARK    6  A    between atoms: N_6  and  C_7
REMARK    7  A    between atoms: N_6  and  C_23
REMARK    8  A    between atoms: C_7  and  C_8
REMARK    9  A    between atoms: N_10  and  S_11
REMARK   10  A    between atoms: S_11  and  C_14
REMARK                            x       y       z     vdW  Elec       q    Type
REMARK                         _______ _______ _______ _____ _____    ______ ____
ROOT
ATOM      1  N   UNL     1       3.084   5.565  20.139  0.00  0.00    +0.000 NA
ENDROOT
BRANCH   1   2
ATOM      2  C   UNL     1       2.290   4.267  20.251  0.00  0.00    +0.000 C 
ATOM      3  C   UNL     1       0.992   4.192  19.417  0.00  0.00    +0.000 C 
ATOM      4  C   UNL     1       1.245   3.854  17.954  0.00  0.00    +0.000 C 
ATOM      5  C   UNL     1       1.960   2.518  17.809  0.00  0.00    +0.000 C 
ATOM      6  C   UNL     1       2.978   2.218  18.874  0.00  0.00    +0.000 A 
ATOM      7  C   UNL     1       3.853   1.136  18.688  0.00  0.00    +0.000 A 
ATOM      8  C   UNL     1       4.784   0.818  19.669  0.00  0.00    +0.000 A 
ATOM      9  C   UNL     1       4.754   1.544  20.848  0.00  0.00    +0.000 A 
ATOM     10  N   UNL     1       3.913   2.580  21.081  0.00  0.00    +0.000 NA
ATOM     11  C   UNL     1       3.082   2.958  20.064  0.00  0.00    +0.000 A 
ENDBRANCH   1   2
BRANCH   1  12
ATOM     12  C   UNL     1       2.204   6.748  20.006  0.00  0.00    +0.000 C 
BRANCH  12  13
ATOM     13  C   UNL     1       1.450   7.213  21.257  0.00  0.00    +0.000 C 
BRANCH  13  14
ATOM     14  C   UNL     1       1.038   8.685  21.270  0.00  0.00    +0.000 C 
BRANCH  14  15
ATOM     15  C   UNL     1      -0.083   8.863  22.295  0.00  0.00    +0.000 C 
BRANCH  15  16
ATOM     16  N   UNL     1       0.216   9.919  23.250  0.00  0.00    +0.000 NA
ATOM     17  H   UNL     1       0.055   9.566  24.193  0.00  0.00    +0.000 HD
ATOM     18  H   UNL     1      -0.428  10.698  23.119  0.00  0.00    +0.000 HD
ENDBRANCH  15  16
ENDBRANCH  14  15
ENDBRANCH  13  14
ENDBRANCH  12  13
ENDBRANCH   1  12
BRANCH   1  19
ATOM     19  C   UNL     1       4.067   5.567  19.025  0.00  0.00    +0.000 C 
BRANCH  19  20
ATOM     20  C   UNL     1       5.481   4.902  19.190  0.00  0.00    +0.000 C 
ATOM     21  C   UNL     1       6.000   3.950  18.083  0.00  0.00    +0.000 C 
ATOM     22  N   UNL     1       6.549   4.585  16.838  0.00  0.00    +0.000 NA
ATOM     23  C   UNL     1       7.487   5.704  17.202  0.00  0.00    +0.000 C 
ATOM     24  C   UNL     1       6.942   6.635  18.302  0.00  0.00    +0.000 C 
ATOM     25  N   UNL     1       6.526   5.916  19.518  0.00  0.00    +0.000 NA
ATOM     26  H   UNL     1       6.170   6.581  20.203  0.00  0.00    +0.000 HD
BRANCH  22  27
ATOM     27  S   UNL     1       5.491   5.031  15.599  0.00  0.00    +0.000 S 
ATOM     28  O   UNL     1       4.256   4.391  15.913  0.00  0.00    +0.000 OA
ATOM     29  O   UNL     1       5.532   6.489  15.579  0.00  0.00    +0.000 OA
BRANCH  27  30
ATOM     30  C   UNL     1       6.164   4.523  14.025  0.00  0.00    +0.000 A 
ATOM     31  C   UNL     1       7.334   5.062  13.493  0.00  0.00    +0.000 A 
ATOM     32  C   UNL     1       7.761   4.687  12.208  0.00  0.00    +0.000 A 
ATOM     33  C   UNL     1       7.063   3.723  11.484  0.00  0.00    +0.000 A 
ATOM     34  C   UNL     1       5.945   3.114  12.047  0.00  0.00    +0.000 A 
ATOM     35  C   UNL     1       5.496   3.515  13.308  0.00  0.00    +0.000 A 
ENDBRANCH  27  30
ENDBRANCH  22  27
ENDBRANCH  19  20
ENDBRANCH   1  19
TORSDOF 10
ENDMDL
MODEL 9
REMARK VINA RESULT:      -7.2      3.880      8.873
REMARK  Name = 
REMARK  10 active torsions:
REMARK  status: ('A' for Active; 'I' for Inactive)
REMARK    1  A    between atoms: N_1  and  C_2
REMARK    2  A    between atoms: C_2  and  C_3
REMARK    3  A    between atoms: C_3  and  C_4
REMARK    4  A    between atoms: C_4  and  C_5
REMARK    5  A    between atoms: C_5  and  N_6
REMARK    6  A    between atoms: N_6  and  C_7
REMARK    7  A    between atoms: N_6  and  C_23
REMARK    8  A    between atoms: C_7  and  C_8
REMARK    9  A    between atoms: N_10  and  S_11
REMARK   10  A    between atoms: S_11  and  C_14
REMARK                            x       y       z     vdW  Elec       q    Type
REMARK                         _______ _______ _______ _____ _____    ______ ____
ROOT
ATOM      1  N   UNL     1       2.569   7.012  19.304  0.00  0.00    +0.000 NA
ENDROOT
BRANCH   1   2
ATOM      2  C   UNL     1       2.876   6.500  17.899  0.00  0.00    +0.000 C 
ATOM      3  C   UNL     1       4.136   7.087  17.225  0.00  0.00    +0.000 C 
ATOM      4  C   UNL     1       5.424   6.424  17.695  0.00  0.00    +0.000 C 
ATOM      5  C   UNL     1       5.410   4.927  17.417  0.00  0.00    +0.000 C 
ATOM      6  C   UNL     1       4.074   4.257  17.583  0.00  0.00    +0.000 A 
ATOM      7  C   UNL     1       4.017   2.855  17.591  0.00  0.00    +0.000 A 
ATOM      8  C   UNL     1       2.793   2.210  17.712  0.00  0.00    +0.000 A 
ATOM      9  C   UNL     1       1.650   2.991  17.738  0.00  0.00    +0.000 A 
ATOM     10  N   UNL     1       1.655   4.346  17.710  0.00  0.00    +0.000 NA
ATOM     11  C   UNL     1       2.870   4.971  17.708  0.00  0.00    +0.000 A 
ENDBRANCH   1   2
BRANCH   1  12
ATOM     12  C   UNL     1       1.444   6.283  19.930  0.00  0.00    +0.000 C 
BRANCH  12  13
ATOM     13  C   UNL     1       1.751   5.437  21.171  0.00  0.00    +0.000 C 
BRANCH  13  14
ATOM     14  C   UNL     1       2.832   4.370  20.991  0.00  0.00    +0.000 C 
BRANCH  14  15
ATOM     15  C   UNL     1       2.276   3.034  21.486  0.00  0.00    +0.000 C 
BRANCH  15  16
ATOM     16  N   UNL     1       0.869   2.874  21.156  0.00  0.00    +0.000 NA
ATOM     17  H   UNL     1       0.759   2.045  20.574  0.00  0.00    +0.000 HD
ATOM     18  H   UNL     1       0.552   3.664  20.596  0.00  0.00    +0.000 HD
ENDBRANCH  15  16
ENDBRANCH  14  15
ENDBRANCH  13  14
ENDBRANCH  12  13
ENDBRANCH   1  12
BRANCH   1  19
ATOM     19  C   UNL     1       2.291   8.471  19.358  0.00  0.00    +0.000 C 
BRANCH  19  20
ATOM     20  C   UNL     1       1.257   9.136  18.380  0.00  0.00    +0.000 C 
ATOM     21  C   UNL     1      -0.086   9.663  18.948  0.00  0.00    +0.000 C 
ATOM     22  N   UNL     1      -0.053  10.984  19.661  0.00  0.00    +0.000 NA
ATOM     23  C   UNL     1       0.730  11.985  18.855  0.00  0.00    +0.000 C 
ATOM     24  C   UNL     1       2.059  11.432  18.307  0.00  0.00    +0.000 C 
ATOM     25  N   UNL     1       1.899  10.187  17.538  0.00  0.00    +0.000 NA
ATOM     26  H   UNL     1       2.809   9.867  17.209  0.00  0.00    +0.000 HD
BRANCH  22  27
ATOM     27  S   UNL     1       0.362  11.033  21.297  0.00  0.00    +0.000 S 
ATOM     28  O   UNL     1       0.333   9.675  21.732  0.00  0.00    +0.000 OA
ATOM     29  O   UNL     1       1.632  11.749  21.340  0.00  0.00    +0.000 OA
BRANCH  27  30
ATOM     30  C   UNL     1      -0.790  12.076  22.176  0.00  0.00    +0.000 A 
ATOM     31  C   UNL     1      -1.853  11.569  22.924  0.00  0.00    +0.000 A 
ATOM     32  C   UNL     1      -2.778  12.445  23.516  0.00  0.00    +0.000 A 
ATOM     33  C   UNL     1      -2.606  13.824  23.425  0.00  0.00    +0.000 A 
ATOM     34  C   UNL     1      -1.496  14.337  22.757  0.00  0.00    +0.000 A 
ATOM     35  C   UNL     1      -0.597  13.468  22.134  0.00  0.00    +0.000 A 
ENDBRANCH  27  30
ENDBRANCH  22  27
ENDBRANCH  19  20
ENDBRANCH   1  19
TORSDOF 10
ENDMDL
