MODEL 1
REMARK VINA RESULT:      -6.7      0.000      0.000
REMARK  Name = 
REMARK  5 active torsions:
REMARK  status: ('A' for Active; 'I' for Inactive)
REMARK    1  A    between atoms: C_1  and  O_2
REMARK    2  A    between atoms: O_2  and  C_3
REMARK    3  A    between atoms: C_6  and  C_7
REMARK    4  A    between atoms: C_11  and  C_12
REMARK    5  A    between atoms: C_15  and  C_16
REMARK                            x       y       z     vdW  Elec       q    Type
REMARK                         _______ _______ _______ _____ _____    ______ ____
ROOT
ATOM      1  C   UNL     1       3.053   6.947  18.267  0.00  0.00    +0.000 C 
ATOM      2  O   UNL     1       3.947   7.267  17.486  0.00  0.00    +0.000 OA
ATOM      3  N   UNL     1       2.955   5.573  18.624  0.00  0.00    +0.000 N 
ATOM      4  N   UNL     1       2.071   5.194  19.589  0.00  0.00    +0.000 NA
ATOM      5  C   UNL     1       2.102   3.860  19.604  0.00  0.00    +0.000 A 
ATOM      6  C   UNL     1       1.174   3.117  20.489  0.00  0.00    +0.000 C 
ATOM      7  C   UNL     1       3.070   3.374  18.714  0.00  0.00    +0.000 A 
ATOM      8 BR   UNL     1       3.446   1.564  18.418  0.00  0.00    +0.000 Br
ATOM      9  C   UNL     1       3.656   4.473  18.131  0.00  0.00    +0.000 A 
ATOM     10  C   UNL     1       4.762   4.583  17.145  0.00  0.00    +0.000 C 
ENDROOT
BRANCH   1  14
ATOM     11  C   UNL     1       0.429  10.086  19.626  0.00  0.00    +0.000 A 
ATOM     12  C   UNL     1       0.920   9.155  20.539  0.00  0.00    +0.000 A 
ATOM     13  C   UNL     1       1.768   8.126  20.117  0.00  0.00    +0.000 A 
ATOM     14  C   UNL     1       2.146   8.023  18.774  0.00  0.00    +0.000 A 
ATOM     15  C   UNL     1       1.615   8.937  17.853  0.00  0.00    +0.000 A 
ATOM     16  C   UNL     1       0.762   9.965  18.278  0.00  0.00    +0.000 A 
BRANCH  11  18
ATOM     17  C   UNL     1      -1.533  11.375  19.365  0.00  0.00    +0.000 C 
ATOM     18  O   UNL     1      -0.404  11.030  20.158  0.00  0.00    +0.000 OA
ENDBRANCH  11  18
ENDBRANCH   1  14
TORSDOF 2
ENDMDL
MODEL 2
REMARK VINA RESULT:      -6.6      0.155      1.146
REMARK  Name = 
REMARK  5 active torsions:
REMARK  status: ('A' for Active; 'I' for Inactive)
REMARK    1  A    between atoms: C_1  and  O_2
REMARK    2  A    between atoms: O_2  and  C_3
REMARK    3  A    between atoms: C_6  and  C_7
REMARK    4  A    between atoms: C_11  and  C_12
REMARK    5  A    between atoms: C_15  and  C_16
REMARK                            x       y       z     vdW  Elec       q    Type
REMARK                         _______ _______ _______ _____ _____    ______ ____
ROOT
ATOM      1  C   UNL     1       3.126   6.910  18.204  0.00  0.00    +0.000 C 
ATOM      2  O   UNL     1       4.070   7.235  17.487  0.00  0.00    +0.000 OA
ATOM      3  N   UNL     1       3.002   5.533  18.542  0.00  0.00    +0.000 N 
ATOM      4  N   UNL     1       2.055   5.148  19.444  0.00  0.00    +0.000 NA
ATOM      5  C   UNL     1       2.083   3.814  19.449  0.00  0.00    +0.000 A 
ATOM      6  C   UNL     1       1.097   3.066  20.264  0.00  0.00    +0.000 C 
ATOM      7  C   UNL     1       3.107   3.333  18.622  0.00  0.00    +0.000 A 
ATOM      8 BR   UNL     1       3.498   1.525  18.335  0.00  0.00    +0.000 Br
ATOM      9  C   UNL     1       3.732   4.436  18.087  0.00  0.00    +0.000 A 
ATOM     10  C   UNL     1       4.901   4.551  17.178  0.00  0.00    +0.000 C 
ENDROOT
BRANCH   1  14
ATOM     11  C   UNL     1       0.432   9.967  19.616  0.00  0.00    +0.000 A 
ATOM     12  C   UNL     1       0.785   9.928  18.269  0.00  0.00    +0.000 A 
ATOM     13  C   UNL     1       1.661   8.948  17.792  0.00  0.00    +0.000 A 
ATOM     14  C   UNL     1       2.189   7.984  18.659  0.00  0.00    +0.000 A 
ATOM     15  C   UNL     1       1.864   8.054  20.021  0.00  0.00    +0.000 A 
ATOM     16  C   UNL     1       0.989   9.039  20.497  0.00  0.00    +0.000 A 
BRANCH  11  18
ATOM     17  C   UNL     1      -1.527  11.178  19.096  0.00  0.00    +0.000 C 
ATOM     18  O   UNL     1      -0.415  10.982  19.961  0.00  0.00    +0.000 OA
ENDBRANCH  11  18
ENDBRANCH   1  14
TORSDOF 2
ENDMDL
MODEL 3
REMARK VINA RESULT:      -6.6      3.824      5.488
REMARK  Name = 
REMARK  5 active torsions:
REMARK  status: ('A' for Active; 'I' for Inactive)
REMARK    1  A    between atoms: C_1  and  O_2
REMARK    2  A    between atoms: O_2  and  C_3
REMARK    3  A    between atoms: C_6  and  C_7
REMARK    4  A    between atoms: C_11  and  C_12
REMARK    5  A    between atoms: C_15  and  C_16
REMARK                            x       y       z     vdW  Elec       q    Type
REMARK                         _______ _______ _______ _____ _____    ______ ____
ROOT
ATOM      1  C   UNL     1       5.565   4.696  17.844  0.00  0.00    +0.000 C 
ATOM      2  O   UNL     1       5.974   3.761  17.157  0.00  0.00    +0.000 OA
ATOM      3  N   UNL     1       4.346   4.504  18.553  0.00  0.00    +0.000 N 
ATOM      4  N   UNL     1       3.927   5.457  19.433  0.00  0.00    +0.000 NA
ATOM      5  C   UNL     1       2.712   5.075  19.827  0.00  0.00    +0.000 A 
ATOM      6  C   UNL     1       1.925   5.951  20.727  0.00  0.00    +0.000 C 
ATOM      7  C   UNL     1       2.377   3.829  19.276  0.00  0.00    +0.000 A 
ATOM      8 BR   UNL     1       0.763   2.925  19.565  0.00  0.00    +0.000 Br
ATOM      9  C   UNL     1       3.448   3.438  18.508  0.00  0.00    +0.000 A 
ATOM     10  C   UNL     1       3.685   2.202  17.719  0.00  0.00    +0.000 C 
ENDROOT
BRANCH   1  14
ATOM     11  C   UNL     1       7.976   8.267  18.009  0.00  0.00    +0.000 A 
ATOM     12  C   UNL     1       6.869   8.220  17.164  0.00  0.00    +0.000 A 
ATOM     13  C   UNL     1       6.078   7.070  17.092  0.00  0.00    +0.000 A 
ATOM     14  C   UNL     1       6.378   5.951  17.876  0.00  0.00    +0.000 A 
ATOM     15  C   UNL     1       7.517   5.987  18.693  0.00  0.00    +0.000 A 
ATOM     16  C   UNL     1       8.311   7.141  18.761  0.00  0.00    +0.000 A 
BRANCH  11  18
ATOM     17  C   UNL     1       9.116   9.932  19.236  0.00  0.00    +0.000 C 
ATOM     18  O   UNL     1       8.678   9.438  17.976  0.00  0.00    +0.000 OA
ENDBRANCH  11  18
ENDBRANCH   1  14
TORSDOF 2
ENDMDL
MODEL 4
REMARK VINA RESULT:      -6.5      3.428      6.937
REMARK  Name = 
REMARK  5 active torsions:
REMARK  status: ('A' for Active; 'I' for Inactive)
REMARK    1  A    between atoms: C_1  and  O_2
REMARK    2  A    between atoms: O_2  and  C_3
REMARK    3  A    between atoms: C_6  and  C_7
REMARK    4  A    between atoms: C_11  and  C_12
REMARK    5  A    between atoms: C_15  and  C_16
REMARK                            x       y       z     vdW  Elec       q    Type
REMARK                         _______ _______ _______ _____ _____    ______ ____
ROOT
ATOM      1  C   UNL     1       4.539   4.569  18.133  0.00  0.00    +0.000 C 
ATOM      2  O   UNL     1       4.654   3.580  18.854  0.00  0.00    +0.000 OA
ATOM      3  N   UNL     1       3.731   5.639  18.610  0.00  0.00    +0.000 N 
ATOM      4  N   UNL     1       3.686   6.808  17.911  0.00  0.00    +0.000 NA
ATOM      5  C   UNL     1       2.756   7.552  18.510  0.00  0.00    +0.000 A 
ATOM      6  C   UNL     1       2.388   8.867  17.934  0.00  0.00    +0.000 C 
ATOM      7  C   UNL     1       2.260   6.907  19.652  0.00  0.00    +0.000 A 
ATOM      8 BR   UNL     1       0.939   7.594  20.787  0.00  0.00    +0.000 Br
ATOM      9  C   UNL     1       2.927   5.708  19.748  0.00  0.00    +0.000 A 
ATOM     10  C   UNL     1       2.853   4.627  20.763  0.00  0.00    +0.000 C 
ENDROOT
BRANCH   1  14
ATOM     11  C   UNL     1       6.693   4.591  14.397  0.00  0.00    +0.000 A 
ATOM     12  C   UNL     1       5.347   4.231  14.415  0.00  0.00    +0.000 A 
ATOM     13  C   UNL     1       4.632   4.213  15.616  0.00  0.00    +0.000 A 
ATOM     14  C   UNL     1       5.255   4.567  16.819  0.00  0.00    +0.000 A 
ATOM     15  C   UNL     1       6.620   4.887  16.802  0.00  0.00    +0.000 A 
ATOM     16  C   UNL     1       7.334   4.901  15.596  0.00  0.00    +0.000 A 
BRANCH  11  18
ATOM     17  C   UNL     1       6.685   3.675  12.220  0.00  0.00    +0.000 C 
ATOM     18  O   UNL     1       7.284   4.553  13.166  0.00  0.00    +0.000 OA
ENDBRANCH  11  18
ENDBRANCH   1  14
TORSDOF 2
ENDMDL
MODEL 5
REMARK VINA RESULT:      -6.4      3.823      5.390
REMARK  Name = 
REMARK  5 active torsions:
REMARK  status: ('A' for Active; 'I' for Inactive)
REMARK    1  A    between atoms: C_1  and  O_2
REMARK    2  A    between atoms: O_2  and  C_3
REMARK    3  A    between atoms: C_6  and  C_7
REMARK    4  A    between atoms: C_11  and  C_12
REMARK    5  A    between atoms: C_15  and  C_16
REMARK                            x       y       z     vdW  Elec       q    Type
REMARK                         _______ _______ _______ _____ _____    ______ ____
ROOT
ATOM      1  C   UNL     1       5.623   4.664  17.886  0.00  0.00    +0.000 C 
ATOM      2  O   UNL     1       6.036   3.716  17.221  0.00  0.00    +0.000 OA
ATOM      3  N   UNL     1       4.397   4.490  18.587  0.00  0.00    +0.000 N 
ATOM      4  N   UNL     1       3.972   5.461  19.444  0.00  0.00    +0.000 NA
ATOM      5  C   UNL     1       2.751   5.090  19.833  0.00  0.00    +0.000 A 
ATOM      6  C   UNL     1       1.959   5.986  20.708  0.00  0.00    +0.000 C 
ATOM      7  C   UNL     1       2.417   3.836  19.302  0.00  0.00    +0.000 A 
ATOM      8 BR   UNL     1       0.798   2.942  19.592  0.00  0.00    +0.000 Br
ATOM      9  C   UNL     1       3.495   3.426  18.552  0.00  0.00    +0.000 A 
ATOM     10  C   UNL     1       3.736   2.175  17.790  0.00  0.00    +0.000 C 
ENDROOT
BRANCH   1  14
ATOM     11  C   UNL     1       7.910   8.320  17.863  0.00  0.00    +0.000 A 
ATOM     12  C   UNL     1       8.297   7.269  18.693  0.00  0.00    +0.000 A 
ATOM     13  C   UNL     1       7.566   6.078  18.719  0.00  0.00    +0.000 A 
ATOM     14  C   UNL     1       6.440   5.917  17.903  0.00  0.00    +0.000 A 
ATOM     15  C   UNL     1       6.030   6.992  17.102  0.00  0.00    +0.000 A 
ATOM     16  C   UNL     1       6.763   8.187  17.081  0.00  0.00    +0.000 A 
BRANCH  11  18
ATOM     17  C   UNL     1       9.059   9.844  19.255  0.00  0.00    +0.000 C 
ATOM     18  O   UNL     1       8.695   9.435  17.941  0.00  0.00    +0.000 OA
ENDBRANCH  11  18
ENDBRANCH   1  14
TORSDOF 2
ENDMDL
MODEL 6
REMARK VINA RESULT:      -6.3      3.442      6.905
REMARK  Name = 
REMARK  5 active torsions:
REMARK  status: ('A' for Active; 'I' for Inactive)
REMARK    1  A    between atoms: C_1  and  O_2
REMARK    2  A    between atoms: O_2  and  C_3
REMARK    3  A    between atoms: C_6  and  C_7
REMARK    4  A    between atoms: C_11  and  C_12
REMARK    5  A    between atoms: C_15  and  C_16
REMARK                            x       y       z     vdW  Elec       q    Type
REMARK                         _______ _______ _______ _____ _____    ______ ____
ROOT
ATOM      1  C   UNL     1       4.622   4.587  18.138  0.00  0.00    +0.000 C 
ATOM      2  O   UNL     1       4.750   3.599  18.860  0.00  0.00    +0.000 OA
ATOM      3  N   UNL     1       3.791   5.640  18.611  0.00  0.00    +0.000 N 
ATOM      4  N   UNL     1       3.730   6.809  17.912  0.00  0.00    +0.000 NA
ATOM      5  C   UNL     1       2.781   7.535  18.505  0.00  0.00    +0.000 A 
ATOM      6  C   UNL     1       2.393   8.843  17.926  0.00  0.00    +0.000 C 
ATOM      7  C   UNL     1       2.288   6.880  19.642  0.00  0.00    +0.000 A 
ATOM      8 BR   UNL     1       0.947   7.542  20.768  0.00  0.00    +0.000 Br
ATOM      9  C   UNL     1       2.977   5.693  19.742  0.00  0.00    +0.000 A 
ATOM     10  C   UNL     1       2.915   4.610  20.756  0.00  0.00    +0.000 C 
ENDROOT
BRANCH   1  14
ATOM     11  C   UNL     1       6.623   4.586  14.319  0.00  0.00    +0.000 A 
ATOM     12  C   UNL     1       7.314   4.990  15.459  0.00  0.00    +0.000 A 
ATOM     13  C   UNL     1       6.682   5.003  16.706  0.00  0.00    +0.000 A 
ATOM     14  C   UNL     1       5.348   4.598  16.830  0.00  0.00    +0.000 A 
ATOM     15  C   UNL     1       4.644   4.233  15.674  0.00  0.00    +0.000 A 
ATOM     16  C   UNL     1       5.280   4.225  14.424  0.00  0.00    +0.000 A 
BRANCH  11  18
ATOM     17  C   UNL     1       6.879   3.801  12.106  0.00  0.00    +0.000 C 
ATOM     18  O   UNL     1       7.344   4.635  13.160  0.00  0.00    +0.000 OA
ENDBRANCH  11  18
ENDBRANCH   1  14
TORSDOF 2
ENDMDL
MODEL 7
REMARK VINA RESULT:      -6.2      1.667      1.985
REMARK  Name = 
REMARK  5 active torsions:
REMARK  status: ('A' for Active; 'I' for Inactive)
REMARK    1  A    between atoms: C_1  and  O_2
REMARK    2  A    between atoms: O_2  and  C_3
REMARK    3  A    between atoms: C_6  and  C_7
REMARK    4  A    between atoms: C_11  and  C_12
REMARK    5  A    between atoms: C_15  and  C_16
REMARK                            x       y       z     vdW  Elec       q    Type
REMARK                         _______ _______ _______ _____ _____    ______ ____
ROOT
ATOM      1  C   UNL     1       2.117   7.767  19.450  0.00  0.00    +0.000 C 
ATOM      2  O   UNL     1       2.690   8.345  18.529  0.00  0.00    +0.000 OA
ATOM      3  N   UNL     1       2.285   6.357  19.544  0.00  0.00    +0.000 N 
ATOM      4  N   UNL     1       1.784   5.694  20.625  0.00  0.00    +0.000 NA
ATOM      5  C   UNL     1       1.965   4.397  20.369  0.00  0.00    +0.000 A 
ATOM      6  C   UNL     1       1.439   3.385  21.315  0.00  0.00    +0.000 C 
ATOM      7  C   UNL     1       2.664   4.219  19.167  0.00  0.00    +0.000 A 
ATOM      8 BR   UNL     1       3.129   2.562  18.430  0.00  0.00    +0.000 Br
ATOM      9  C   UNL     1       2.919   5.475  18.670  0.00  0.00    +0.000 A 
ATOM     10  C   UNL     1       3.653   5.915  17.455  0.00  0.00    +0.000 C 
ENDROOT
BRANCH   1  14
ATOM     11  C   UNL     1      -0.304  10.183  22.076  0.00  0.00    +0.000 A 
ATOM     12  C   UNL     1       0.599   9.270  22.616  0.00  0.00    +0.000 A 
ATOM     13  C   UNL     1       1.389   8.473  21.782  0.00  0.00    +0.000 A 
ATOM     14  C   UNL     1       1.294   8.589  20.391  0.00  0.00    +0.000 A 
ATOM     15  C   UNL     1       0.353   9.478  19.852  0.00  0.00    +0.000 A 
ATOM     16  C   UNL     1      -0.440  10.273  20.691  0.00  0.00    +0.000 A 
BRANCH  11  18
ATOM     17  C   UNL     1      -1.114  12.290  22.770  0.00  0.00    +0.000 C 
ATOM     18  O   UNL     1      -1.030  10.888  22.994  0.00  0.00    +0.000 OA
ENDBRANCH  11  18
ENDBRANCH   1  14
TORSDOF 2
ENDMDL
MODEL 8
REMARK VINA RESULT:      -6.2      2.232      3.353
REMARK  Name = 
REMARK  5 active torsions:
REMARK  status: ('A' for Active; 'I' for Inactive)
REMARK    1  A    between atoms: C_1  and  O_2
REMARK    2  A    between atoms: O_2  and  C_3
REMARK    3  A    between atoms: C_6  and  C_7
REMARK    4  A    between atoms: C_11  and  C_12
REMARK    5  A    between atoms: C_15  and  C_16
REMARK                            x       y       z     vdW  Elec       q    Type
REMARK                         _______ _______ _______ _____ _____    ______ ____
ROOT
ATOM      1  C   UNL     1       2.665   6.320  18.052  0.00  0.00    +0.000 C 
ATOM      2  O   UNL     1       1.926   5.348  17.905  0.00  0.00    +0.000 OA
ATOM      3  N   UNL     1       4.019   6.184  17.636  0.00  0.00    +0.000 N 
ATOM      4  N   UNL     1       4.836   7.275  17.652  0.00  0.00    +0.000 NA
ATOM      5  C   UNL     1       6.053   6.818  17.354  0.00  0.00    +0.000 A 
ATOM      6  C   UNL     1       7.209   7.745  17.379  0.00  0.00    +0.000 C 
ATOM      7  C   UNL     1       6.013   5.449  17.055  0.00  0.00    +0.000 A 
ATOM      8 BR   UNL     1       7.496   4.406  16.587  0.00  0.00    +0.000 Br
ATOM      9  C   UNL     1       4.701   5.057  17.179  0.00  0.00    +0.000 A 
ATOM     10  C   UNL     1       4.048   3.743  16.952  0.00  0.00    +0.000 C 
ENDROOT
BRANCH   1  14
ATOM     11  C   UNL     1       0.988   9.844  19.887  0.00  0.00    +0.000 A 
ATOM     12  C   UNL     1       1.227   9.828  18.514  0.00  0.00    +0.000 A 
ATOM     13  C   UNL     1       1.775   8.698  17.901  0.00  0.00    +0.000 A 
ATOM     14  C   UNL     1       2.081   7.559  18.655  0.00  0.00    +0.000 A 
ATOM     15  C   UNL     1       1.879   7.595  20.042  0.00  0.00    +0.000 A 
ATOM     16  C   UNL     1       1.333   8.731  20.654  0.00  0.00    +0.000 A 
BRANCH  11  18
ATOM     17  C   UNL     1       0.777  12.181  19.620  0.00  0.00    +0.000 C 
ATOM     18  O   UNL     1       0.467  11.011  20.369  0.00  0.00    +0.000 OA
ENDBRANCH  11  18
ENDBRANCH   1  14
TORSDOF 2
ENDMDL
MODEL 9
REMARK VINA RESULT:      -6.2      2.232      3.154
REMARK  Name = 
REMARK  5 active torsions:
REMARK  status: ('A' for Active; 'I' for Inactive)
REMARK    1  A    between atoms: C_1  and  O_2
REMARK    2  A    between atoms: O_2  and  C_3
REMARK    3  A    between atoms: C_6  and  C_7
REMARK    4  A    between atoms: C_11  and  C_12
REMARK    5  A    between atoms: C_15  and  C_16
REMARK                            x       y       z     vdW  Elec       q    Type
REMARK                         _______ _______ _______ _____ _____    ______ ____
ROOT
ATOM      1  C   UNL     1       2.646   6.261  18.113  0.00  0.00    +0.000 C 
ATOM      2  O   UNL     1       1.907   5.290  17.961  0.00  0.00    +0.000 OA
ATOM      3  N   UNL     1       3.991   6.139  17.664  0.00  0.00    +0.000 N 
ATOM      4  N   UNL     1       4.806   7.232  17.685  0.00  0.00    +0.000 NA
ATOM      5  C   UNL     1       6.017   6.785  17.350  0.00  0.00    +0.000 A 
ATOM      6  C   UNL     1       7.170   7.716  17.369  0.00  0.00    +0.000 C 
ATOM      7  C   UNL     1       5.974   5.423  17.022  0.00  0.00    +0.000 A 
ATOM      8 BR   UNL     1       7.449   4.395  16.498  0.00  0.00    +0.000 Br
ATOM      9  C   UNL     1       4.666   5.024  17.167  0.00  0.00    +0.000 A 
ATOM     10  C   UNL     1       4.011   3.713  16.926  0.00  0.00    +0.000 C 
ENDROOT
BRANCH   1  14
ATOM     11  C   UNL     1       0.990   9.835  19.867  0.00  0.00    +0.000 A 
ATOM     12  C   UNL     1       1.283   8.740  20.678  0.00  0.00    +0.000 A 
ATOM     13  C   UNL     1       1.815   7.571  20.128  0.00  0.00    +0.000 A 
ATOM     14  C   UNL     1       2.074   7.485  18.756  0.00  0.00    +0.000 A 
ATOM     15  C   UNL     1       1.738   8.573  17.938  0.00  0.00    +0.000 A 
ATOM     16  C   UNL     1       1.201   9.743  18.492  0.00  0.00    +0.000 A 
BRANCH  11  18
ATOM     17  C   UNL     1      -0.364  10.608  21.641  0.00  0.00    +0.000 C 
ATOM     18  O   UNL     1       0.458  10.911  20.520  0.00  0.00    +0.000 OA
ENDBRANCH  11  18
ENDBRANCH   1  14
TORSDOF 2
ENDMDL
