MODEL 1
REMARK VINA RESULT:      -8.2      0.000      0.000
REMARK  Name = 
REMARK  4 active torsions:
REMARK  status: ('A' for Active; 'I' for Inactive)
REMARK    1  A    between atoms: C_1  and  C_2
REMARK    2  A    between atoms: C_5  and  N_6
REMARK    3  A    between atoms: N_9  and  C_10
REMARK    4  A    between atoms: C_10  and  C_11
REMARK                            x       y       z     vdW  Elec       q    Type
REMARK                         _______ _______ _______ _____ _____    ______ ____
ROOT
ATOM      1  N   UNL     1       1.280   7.623  20.213  0.00  0.00    +0.000 N 
ATOM      2  C   UNL     1       1.651   6.457  21.031  0.00  0.00    +0.000 C 
ATOM      3  C   UNL     1       1.805   5.207  20.138  0.00  0.00    +0.000 C 
ATOM      4  N   UNL     1       2.758   5.347  19.008  0.00  0.00    +0.000 NA
ATOM      5  C   UNL     1       2.381   6.553  18.235  0.00  0.00    +0.000 C 
ATOM      6  C   UNL     1       2.146   7.860  19.040  0.00  0.00    +0.000 C 
ENDROOT
BRANCH   1  11
ATOM      7  C   UNL     1      -0.862  12.369  22.633  0.00  0.00    +0.000 C 
ATOM      8  C   UNL     1      -0.249  11.134  22.042  0.00  0.00    +0.000 A 
ATOM      9  C   UNL     1      -0.079   9.969  22.798  0.00  0.00    +0.000 A 
ATOM     10  C   UNL     1       0.442   8.806  22.211  0.00  0.00    +0.000 A 
ATOM     11  C   UNL     1       0.817   8.774  20.861  0.00  0.00    +0.000 A 
ATOM     12  C   UNL     1       0.656   9.957  20.125  0.00  0.00    +0.000 A 
ATOM     13  C   UNL     1       0.127  11.118  20.699  0.00  0.00    +0.000 A 
ENDBRANCH   1  11
BRANCH   4  14
ATOM     14  C   UNL     1       4.159   5.408  19.452  0.00  0.00    +0.000 C 
BRANCH  14  15
ATOM     15  C   UNL     1       5.197   5.197  18.363  0.00  0.00    +0.000 A 
ATOM     16  C   UNL     1       6.454   5.818  18.501  0.00  0.00    +0.000 A 
ATOM     17  C   UNL     1       7.361   5.840  17.441  0.00  0.00    +0.000 A 
ATOM     18  C   UNL     1       7.024   5.205  16.252  0.00  0.00    +0.000 A 
ATOM     19  O   UNL     1       7.860   5.414  15.140  0.00  0.00    +0.000 OA
ATOM     20  C   UNL     1       7.385   5.052  13.885  0.00  0.00    +0.000 A 
ATOM     21  O   UNL     1       7.755   5.583  12.851  0.00  0.00    +0.000 OA
ATOM     22  C   UNL     1       6.436   3.921  13.871  0.00  0.00    +0.000 A 
ATOM     23  C   UNL     1       5.672   3.659  14.936  0.00  0.00    +0.000 A 
ATOM     24  C   UNL     1       5.850   4.466  16.135  0.00  0.00    +0.000 A 
ATOM     25  C   UNL     1       4.920   4.493  17.175  0.00  0.00    +0.000 A 
ENDBRANCH  14  15
ENDBRANCH   4  14
TORSDOF 3
ENDMDL
MODEL 2
REMARK VINA RESULT:      -7.8      0.903      1.077
REMARK  Name = 
REMARK  4 active torsions:
REMARK  status: ('A' for Active; 'I' for Inactive)
REMARK    1  A    between atoms: C_1  and  C_2
REMARK    2  A    between atoms: C_5  and  N_6
REMARK    3  A    between atoms: N_9  and  C_10
REMARK    4  A    between atoms: C_10  and  C_11
REMARK                            x       y       z     vdW  Elec       q    Type
REMARK                         _______ _______ _______ _____ _____    ______ ____
ROOT
ATOM      1  N   UNL     1       1.646   7.423  19.531  0.00  0.00    +0.000 N 
ATOM      2  C   UNL     1       1.891   6.525  20.671  0.00  0.00    +0.000 C 
ATOM      3  C   UNL     1       1.862   5.053  20.205  0.00  0.00    +0.000 C 
ATOM      4  N   UNL     1       2.794   4.719  19.097  0.00  0.00    +0.000 NA
ATOM      5  C   UNL     1       2.549   5.670  17.988  0.00  0.00    +0.000 C 
ATOM      6  C   UNL     1       2.502   7.179  18.353  0.00  0.00    +0.000 C 
ENDROOT
BRANCH   1  11
ATOM      7  C   UNL     1       0.192  12.918  20.350  0.00  0.00    +0.000 C 
ATOM      8  C   UNL     1       0.626  11.491  20.177  0.00  0.00    +0.000 A 
ATOM      9  C   UNL     1       0.624  10.592  21.248  0.00  0.00    +0.000 A 
ATOM     10  C   UNL     1       0.977   9.248  21.053  0.00  0.00    +0.000 A 
ATOM     11  C   UNL     1       1.349   8.766  19.791  0.00  0.00    +0.000 A 
ATOM     12  C   UNL     1       1.361   9.687  18.734  0.00  0.00    +0.000 A 
ATOM     13  C   UNL     1       1.001  11.027  18.917  0.00  0.00    +0.000 A 
ENDBRANCH   1  11
BRANCH   4  14
ATOM     14  C   UNL     1       4.203   4.732  19.518  0.00  0.00    +0.000 C 
BRANCH  14  15
ATOM     15  C   UNL     1       5.219   4.646  18.392  0.00  0.00    +0.000 A 
ATOM     16  C   UNL     1       6.491   5.219  18.589  0.00  0.00    +0.000 A 
ATOM     17  C   UNL     1       7.382   5.362  17.524  0.00  0.00    +0.000 A 
ATOM     18  C   UNL     1       7.014   4.896  16.269  0.00  0.00    +0.000 A 
ATOM     19  O   UNL     1       7.837   5.233  15.179  0.00  0.00    +0.000 OA
ATOM     20  C   UNL     1       7.336   5.048  13.896  0.00  0.00    +0.000 A 
ATOM     21  O   UNL     1       7.702   5.703  12.934  0.00  0.00    +0.000 OA
ATOM     22  C   UNL     1       6.362   3.947  13.750  0.00  0.00    +0.000 A 
ATOM     23  C   UNL     1       5.608   3.563  14.785  0.00  0.00    +0.000 A 
ATOM     24  C   UNL     1       5.822   4.202  16.077  0.00  0.00    +0.000 A 
ATOM     25  C   UNL     1       4.909   4.111  17.127  0.00  0.00    +0.000 A 
ENDBRANCH  14  15
ENDBRANCH   4  14
TORSDOF 3
ENDMDL
MODEL 3
REMARK VINA RESULT:      -7.7      1.392      2.177
REMARK  Name = 
REMARK  4 active torsions:
REMARK  status: ('A' for Active; 'I' for Inactive)
REMARK    1  A    between atoms: C_1  and  C_2
REMARK    2  A    between atoms: C_5  and  N_6
REMARK    3  A    between atoms: N_9  and  C_10
REMARK    4  A    between atoms: C_10  and  C_11
REMARK                            x       y       z     vdW  Elec       q    Type
REMARK                         _______ _______ _______ _____ _____    ______ ____
ROOT
ATOM      1  N   UNL     1       2.728   6.507  19.742  0.00  0.00    +0.000 N 
ATOM      2  C   UNL     1       3.959   6.552  18.938  0.00  0.00    +0.000 C 
ATOM      3  C   UNL     1       4.842   5.324  19.246  0.00  0.00    +0.000 C 
ATOM      4  N   UNL     1       4.180   4.006  19.069  0.00  0.00    +0.000 NA
ATOM      5  C   UNL     1       2.924   4.013  19.855  0.00  0.00    +0.000 C 
ATOM      6  C   UNL     1       1.983   5.233  19.665  0.00  0.00    +0.000 C 
ENDROOT
BRANCH   1  11
ATOM      7  C   UNL     1      -0.675  11.132  19.794  0.00  0.00    +0.000 C 
ATOM      8  C   UNL     1       0.253   9.953  19.828  0.00  0.00    +0.000 A 
ATOM      9  C   UNL     1       0.380   9.155  20.969  0.00  0.00    +0.000 A 
ATOM     10  C   UNL     1       1.209   8.023  20.961  0.00  0.00    +0.000 A 
ATOM     11  C   UNL     1       1.939   7.660  19.822  0.00  0.00    +0.000 A 
ATOM     12  C   UNL     1       1.812   8.483  18.693  0.00  0.00    +0.000 A 
ATOM     13  C   UNL     1       0.980   9.608  18.689  0.00  0.00    +0.000 A 
ENDBRANCH   1  11
BRANCH   4  14
ATOM     14  C   UNL     1       3.930   3.681  17.656  0.00  0.00    +0.000 C 
BRANCH  14  15
ATOM     15  C   UNL     1       5.108   3.897  16.721  0.00  0.00    +0.000 A 
ATOM     16  C   UNL     1       6.291   4.455  17.247  0.00  0.00    +0.000 A 
ATOM     17  C   UNL     1       7.319   4.875  16.402  0.00  0.00    +0.000 A 
ATOM     18  C   UNL     1       7.179   4.700  15.031  0.00  0.00    +0.000 A 
ATOM     19  O   UNL     1       8.131   5.312  14.194  0.00  0.00    +0.000 OA
ATOM     20  C   UNL     1       7.844   5.412  12.838  0.00  0.00    +0.000 A 
ATOM     21  O   UNL     1       8.302   6.286  12.121  0.00  0.00    +0.000 OA
ATOM     22  C   UNL     1       6.987   4.340  12.292  0.00  0.00    +0.000 A 
ATOM     23  C   UNL     1       6.116   3.698  13.077  0.00  0.00    +0.000 A 
ATOM     24  C   UNL     1       6.085   4.027  14.496  0.00  0.00    +0.000 A 
ATOM     25  C   UNL     1       5.033   3.660  15.336  0.00  0.00    +0.000 A 
ENDBRANCH  14  15
ENDBRANCH   4  14
TORSDOF 3
ENDMDL
MODEL 4
REMARK VINA RESULT:      -7.6      1.206      2.345
REMARK  Name = 
REMARK  4 active torsions:
REMARK  status: ('A' for Active; 'I' for Inactive)
REMARK    1  A    between atoms: C_1  and  C_2
REMARK    2  A    between atoms: C_5  and  N_6
REMARK    3  A    between atoms: N_9  and  C_10
REMARK    4  A    between atoms: C_10  and  C_11
REMARK                            x       y       z     vdW  Elec       q    Type
REMARK                         _______ _______ _______ _____ _____    ______ ____
ROOT
ATOM      1  N   UNL     1       2.626   6.308  19.729  0.00  0.00    +0.000 N 
ATOM      2  C   UNL     1       3.880   6.411  18.966  0.00  0.00    +0.000 C 
ATOM      3  C   UNL     1       4.729   5.136  19.162  0.00  0.00    +0.000 C 
ATOM      4  N   UNL     1       4.046   3.860  18.829  0.00  0.00    +0.000 NA
ATOM      5  C   UNL     1       2.769   3.813  19.579  0.00  0.00    +0.000 C 
ATOM      6  C   UNL     1       1.858   5.068  19.497  0.00  0.00    +0.000 C 
ENDROOT
BRANCH   1  11
ATOM      7  C   UNL     1      -0.341  11.114  20.769  0.00  0.00    +0.000 C 
ATOM      8  C   UNL     1       0.389   9.843  20.448  0.00  0.00    +0.000 A 
ATOM      9  C   UNL     1       1.026   9.656  19.216  0.00  0.00    +0.000 A 
ATOM     10  C   UNL     1       1.753   8.484  18.957  0.00  0.00    +0.000 A 
ATOM     11  C   UNL     1       1.860   7.465  19.912  0.00  0.00    +0.000 A 
ATOM     12  C   UNL     1       1.200   7.663  21.134  0.00  0.00    +0.000 A 
ATOM     13  C   UNL     1       0.481   8.832  21.405  0.00  0.00    +0.000 A 
ENDBRANCH   1  11
BRANCH   4  14
ATOM     14  C   UNL     1       3.829   3.694  17.383  0.00  0.00    +0.000 C 
BRANCH  14  15
ATOM     15  C   UNL     1       5.048   3.935  16.511  0.00  0.00    +0.000 A 
ATOM     16  C   UNL     1       6.180   4.543  17.089  0.00  0.00    +0.000 A 
ATOM     17  C   UNL     1       7.239   4.984  16.295  0.00  0.00    +0.000 A 
ATOM     18  C   UNL     1       7.181   4.782  14.922  0.00  0.00    +0.000 A 
ATOM     19  O   UNL     1       8.157   5.413  14.127  0.00  0.00    +0.000 OA
ATOM     20  C   UNL     1       7.942   5.479  12.755  0.00  0.00    +0.000 A 
ATOM     21  O   UNL     1       8.409   6.357  12.048  0.00  0.00    +0.000 OA
ATOM     22  C   UNL     1       7.154   4.370  12.184  0.00  0.00    +0.000 A 
ATOM     23  C   UNL     1       6.263   3.711  12.932  0.00  0.00    +0.000 A 
ATOM     24  C   UNL     1       6.142   4.062  14.340  0.00  0.00    +0.000 A 
ATOM     25  C   UNL     1       5.058   3.672  15.127  0.00  0.00    +0.000 A 
ENDBRANCH  14  15
ENDBRANCH   4  14
TORSDOF 3
ENDMDL
MODEL 5
REMARK VINA RESULT:      -7.5      2.956      4.187
REMARK  Name = 
REMARK  4 active torsions:
REMARK  status: ('A' for Active; 'I' for Inactive)
REMARK    1  A    between atoms: C_1  and  C_2
REMARK    2  A    between atoms: C_5  and  N_6
REMARK    3  A    between atoms: N_9  and  C_10
REMARK    4  A    between atoms: C_10  and  C_11
REMARK                            x       y       z     vdW  Elec       q    Type
REMARK                         _______ _______ _______ _____ _____    ______ ____
ROOT
ATOM      1  N   UNL     1      -0.488  10.305  18.693  0.00  0.00    +0.000 N 
ATOM      2  C   UNL     1       0.182   9.446  17.704  0.00  0.00    +0.000 C 
ATOM      3  C   UNL     1       1.684   9.321  18.037  0.00  0.00    +0.000 C 
ATOM      4  N   UNL     1       1.993   8.837  19.407  0.00  0.00    +0.000 NA
ATOM      5  C   UNL     1       1.267   9.696  20.372  0.00  0.00    +0.000 C 
ATOM      6  C   UNL     1      -0.243   9.936  20.102  0.00  0.00    +0.000 C 
ENDROOT
BRANCH   1  11
ATOM      7  C   UNL     1      -5.881  11.894  17.526  0.00  0.00    +0.000 C 
ATOM      8  C   UNL     1      -4.452  11.543  17.818  0.00  0.00    +0.000 A 
ATOM      9  C   UNL     1      -3.773  12.093  18.909  0.00  0.00    +0.000 A 
ATOM     10  C   UNL     1      -2.455  11.707  19.200  0.00  0.00    +0.000 A 
ATOM     11  C   UNL     1      -1.776  10.771  18.408  0.00  0.00    +0.000 A 
ATOM     12  C   UNL     1      -2.468  10.244  17.308  0.00  0.00    +0.000 A 
ATOM     13  C   UNL     1      -3.786  10.615  17.017  0.00  0.00    +0.000 A 
ENDBRANCH   1  11
BRANCH   4  14
ATOM     14  C   UNL     1       1.662   7.416  19.595  0.00  0.00    +0.000 C 
BRANCH  14  15
ATOM     15  C   UNL     1       2.700   6.434  19.080  0.00  0.00    +0.000 A 
ATOM     16  C   UNL     1       3.053   5.339  19.895  0.00  0.00    +0.000 A 
ATOM     17  C   UNL     1       4.146   4.533  19.575  0.00  0.00    +0.000 A 
ATOM     18  C   UNL     1       4.864   4.800  18.417  0.00  0.00    +0.000 A 
ATOM     19  O   UNL     1       6.075   4.108  18.224  0.00  0.00    +0.000 OA
ATOM     20  C   UNL     1       6.948   4.574  17.248  0.00  0.00    +0.000 A 
ATOM     21  O   UNL     1       8.155   4.401  17.295  0.00  0.00    +0.000 OA
ATOM     22  C   UNL     1       6.312   5.247  16.098  0.00  0.00    +0.000 A 
ATOM     23  C   UNL     1       5.132   5.861  16.236  0.00  0.00    +0.000 A 
ATOM     24  C   UNL     1       4.455   5.786  17.523  0.00  0.00    +0.000 A 
ATOM     25  C   UNL     1       3.398   6.626  17.872  0.00  0.00    +0.000 A 
ENDBRANCH  14  15
ENDBRANCH   4  14
TORSDOF 3
ENDMDL
MODEL 6
REMARK VINA RESULT:      -7.5      0.746      1.216
REMARK  Name = 
REMARK  4 active torsions:
REMARK  status: ('A' for Active; 'I' for Inactive)
REMARK    1  A    between atoms: C_1  and  C_2
REMARK    2  A    between atoms: C_5  and  N_6
REMARK    3  A    between atoms: N_9  and  C_10
REMARK    4  A    between atoms: C_10  and  C_11
REMARK                            x       y       z     vdW  Elec       q    Type
REMARK                         _______ _______ _______ _____ _____    ______ ____
ROOT
ATOM      1  N   UNL     1       1.017   8.410  19.926  0.00  0.00    +0.000 N 
ATOM      2  C   UNL     1       1.576   7.308  20.726  0.00  0.00    +0.000 C 
ATOM      3  C   UNL     1       1.814   6.071  19.834  0.00  0.00    +0.000 C 
ATOM      4  N   UNL     1       2.667   6.302  18.641  0.00  0.00    +0.000 NA
ATOM      5  C   UNL     1       2.101   7.445  17.886  0.00  0.00    +0.000 C 
ATOM      6  C   UNL     1       1.770   8.728  18.696  0.00  0.00    +0.000 C 
ENDROOT
BRANCH   1  11
ATOM      7  C   UNL     1      -1.009  12.868  22.926  0.00  0.00    +0.000 C 
ATOM      8  C   UNL     1      -0.533  11.709  22.101  0.00  0.00    +0.000 A 
ATOM      9  C   UNL     1      -0.129  11.875  20.772  0.00  0.00    +0.000 A 
ATOM     10  C   UNL     1       0.368  10.789  20.035  0.00  0.00    +0.000 A 
ATOM     11  C   UNL     1       0.468   9.510  20.596  0.00  0.00    +0.000 A 
ATOM     12  C   UNL     1       0.042   9.359  21.924  0.00  0.00    +0.000 A 
ATOM     13  C   UNL     1      -0.446  10.438  22.670  0.00  0.00    +0.000 A 
ENDBRANCH   1  11
BRANCH   4  14
ATOM     14  C   UNL     1       4.078   6.531  18.988  0.00  0.00    +0.000 C 
BRANCH  14  15
ATOM     15  C   UNL     1       5.088   6.020  17.975  0.00  0.00    +0.000 A 
ATOM     16  C   UNL     1       6.421   6.469  18.069  0.00  0.00    +0.000 A 
ATOM     17  C   UNL     1       7.336   6.209  17.048  0.00  0.00    +0.000 A 
ATOM     18  C   UNL     1       6.926   5.466  15.949  0.00  0.00    +0.000 A 
ATOM     19  O   UNL     1       7.799   5.392  14.847  0.00  0.00    +0.000 OA
ATOM     20  C   UNL     1       7.294   4.925  13.640  0.00  0.00    +0.000 A 
ATOM     21  O   UNL     1       7.752   5.245  12.555  0.00  0.00    +0.000 OA
ATOM     22  C   UNL     1       6.190   3.951  13.750  0.00  0.00    +0.000 A 
ATOM     23  C   UNL     1       5.381   3.956  14.814  0.00  0.00    +0.000 A 
ATOM     24  C   UNL     1       5.658   4.893  15.895  0.00  0.00    +0.000 A 
ATOM     25  C   UNL     1       4.728   5.201  16.888  0.00  0.00    +0.000 A 
ENDBRANCH  14  15
ENDBRANCH   4  14
TORSDOF 3
ENDMDL
MODEL 7
REMARK VINA RESULT:      -7.5      3.488      8.634
REMARK  Name = 
REMARK  4 active torsions:
REMARK  status: ('A' for Active; 'I' for Inactive)
REMARK    1  A    between atoms: C_1  and  C_2
REMARK    2  A    between atoms: C_5  and  N_6
REMARK    3  A    between atoms: N_9  and  C_10
REMARK    4  A    between atoms: C_10  and  C_11
REMARK                            x       y       z     vdW  Elec       q    Type
REMARK                         _______ _______ _______ _____ _____    ______ ____
ROOT
ATOM      1  N   UNL     1       5.294   4.325  17.121  0.00  0.00    +0.000 N 
ATOM      2  C   UNL     1       4.228   3.351  17.401  0.00  0.00    +0.000 C 
ATOM      3  C   UNL     1       3.967   3.267  18.920  0.00  0.00    +0.000 C 
ATOM      4  N   UNL     1       3.648   4.558  19.582  0.00  0.00    +0.000 NA
ATOM      5  C   UNL     1       4.718   5.525  19.242  0.00  0.00    +0.000 C 
ATOM      6  C   UNL     1       5.102   5.652  17.743  0.00  0.00    +0.000 C 
ENDROOT
BRANCH   1  11
ATOM      7  C   UNL     1       7.363   4.483  11.767  0.00  0.00    +0.000 C 
ATOM      8  C   UNL     1       6.879   4.409  13.185  0.00  0.00    +0.000 A 
ATOM      9  C   UNL     1       7.540   5.079  14.219  0.00  0.00    +0.000 A 
ATOM     10  C   UNL     1       7.038   5.045  15.529  0.00  0.00    +0.000 A 
ATOM     11  C   UNL     1       5.872   4.337  15.846  0.00  0.00    +0.000 A 
ATOM     12  C   UNL     1       5.233   3.656  14.799  0.00  0.00    +0.000 A 
ATOM     13  C   UNL     1       5.720   3.693  13.488  0.00  0.00    +0.000 A 
ENDBRANCH   1  11
BRANCH   4  14
ATOM     14  C   UNL     1       2.320   5.072  19.213  0.00  0.00    +0.000 C 
BRANCH  14  15
ATOM     15  C   UNL     1       2.055   6.519  19.589  0.00  0.00    +0.000 A 
ATOM     16  C   UNL     1       1.644   6.808  20.906  0.00  0.00    +0.000 A 
ATOM     17  C   UNL     1       1.180   8.079  21.247  0.00  0.00    +0.000 A 
ATOM     18  C   UNL     1       1.164   9.073  20.277  0.00  0.00    +0.000 A 
ATOM     19  O   UNL     1       0.506  10.279  20.587  0.00  0.00    +0.000 OA
ATOM     20  C   UNL     1       0.212  11.152  19.547  0.00  0.00    +0.000 A 
ATOM     21  O   UNL     1      -0.719  11.939  19.579  0.00  0.00    +0.000 OA
ATOM     22  C   UNL     1       1.149  11.115  18.406  0.00  0.00    +0.000 A 
ATOM     23  C   UNL     1       1.835  10.003  18.123  0.00  0.00    +0.000 A 
ATOM     24  C   UNL     1       1.694   8.855  19.009  0.00  0.00    +0.000 A 
ATOM     25  C   UNL     1       2.104   7.570  18.653  0.00  0.00    +0.000 A 
ENDBRANCH  14  15
ENDBRANCH   4  14
TORSDOF 3
ENDMDL
MODEL 8
REMARK VINA RESULT:      -7.4      3.846      5.961
REMARK  Name = 
REMARK  4 active torsions:
REMARK  status: ('A' for Active; 'I' for Inactive)
REMARK    1  A    between atoms: C_1  and  C_2
REMARK    2  A    between atoms: C_5  and  N_6
REMARK    3  A    between atoms: N_9  and  C_10
REMARK    4  A    between atoms: C_10  and  C_11
REMARK                            x       y       z     vdW  Elec       q    Type
REMARK                         _______ _______ _______ _____ _____    ______ ____
ROOT
ATOM      1  N   UNL     1      -1.564  11.339  18.833  0.00  0.00    +0.000 N 
ATOM      2  C   UNL     1      -1.066  10.098  18.219  0.00  0.00    +0.000 C 
ATOM      3  C   UNL     1       0.476  10.057  18.275  0.00  0.00    +0.000 C 
ATOM      4  N   UNL     1       1.067  10.214  19.628  0.00  0.00    +0.000 NA
ATOM      5  C   UNL     1       0.510  11.447  20.233  0.00  0.00    +0.000 C 
ATOM      6  C   UNL     1      -1.032  11.620  20.183  0.00  0.00    +0.000 C 
ENDROOT
BRANCH   1  11
ATOM      7  C   UNL     1      -7.115  12.481  17.910  0.00  0.00    +0.000 C 
ATOM      8  C   UNL     1      -5.653  12.250  18.154  0.00  0.00    +0.000 A 
ATOM      9  C   UNL     1      -5.046  12.617  19.359  0.00  0.00    +0.000 A 
ATOM     10  C   UNL     1      -3.690  12.339  19.590  0.00  0.00    +0.000 A 
ATOM     11  C   UNL     1      -2.901  11.697  18.627  0.00  0.00    +0.000 A 
ATOM     12  C   UNL     1      -3.523  11.354  17.418  0.00  0.00    +0.000 A 
ATOM     13  C   UNL     1      -4.877  11.617  17.183  0.00  0.00    +0.000 A 
ENDBRANCH   1  11
BRANCH   4  14
ATOM     14  C   UNL     1       0.838   9.042  20.487  0.00  0.00    +0.000 C 
BRANCH  14  15
ATOM     15  C   UNL     1       1.614   7.794  20.104  0.00  0.00    +0.000 A 
ATOM     16  C   UNL     1       2.384   7.816  18.924  0.00  0.00    +0.000 A 
ATOM     17  C   UNL     1       2.938   6.643  18.410  0.00  0.00    +0.000 A 
ATOM     18  C   UNL     1       2.753   5.451  19.099  0.00  0.00    +0.000 A 
ATOM     19  O   UNL     1       3.143   4.259  18.461  0.00  0.00    +0.000 OA
ATOM     20  C   UNL     1       2.693   3.055  18.989  0.00  0.00    +0.000 A 
ATOM     21  O   UNL     1       2.542   2.047  18.318  0.00  0.00    +0.000 OA
ATOM     22  C   UNL     1       2.463   3.050  20.447  0.00  0.00    +0.000 A 
ATOM     23  C   UNL     1       2.151   4.178  21.092  0.00  0.00    +0.000 A 
ATOM     24  C   UNL     1       2.117   5.424  20.337  0.00  0.00    +0.000 A 
ATOM     25  C   UNL     1       1.515   6.586  20.820  0.00  0.00    +0.000 A 
ENDBRANCH  14  15
ENDBRANCH   4  14
TORSDOF 3
ENDMDL
MODEL 9
REMARK VINA RESULT:      -7.4      3.378      4.889
REMARK  Name = 
REMARK  4 active torsions:
REMARK  status: ('A' for Active; 'I' for Inactive)
REMARK    1  A    between atoms: C_1  and  C_2
REMARK    2  A    between atoms: C_5  and  N_6
REMARK    3  A    between atoms: N_9  and  C_10
REMARK    4  A    between atoms: C_10  and  C_11
REMARK                            x       y       z     vdW  Elec       q    Type
REMARK                         _______ _______ _______ _____ _____    ______ ____
ROOT
ATOM      1  N   UNL     1      -1.129  10.962  18.626  0.00  0.00    +0.000 N 
ATOM      2  C   UNL     1      -0.596   9.851  17.821  0.00  0.00    +0.000 C 
ATOM      3  C   UNL     1       0.944   9.813  17.919  0.00  0.00    +0.000 C 
ATOM      4  N   UNL     1       1.492   9.737  19.297  0.00  0.00    +0.000 NA
ATOM      5  C   UNL     1       0.900  10.841  20.089  0.00  0.00    +0.000 C 
ATOM      6  C   UNL     1      -0.642  11.008  20.020  0.00  0.00    +0.000 C 
ENDROOT
BRANCH   1  11
ATOM      7  C   UNL     1      -6.677  12.187  17.791  0.00  0.00    +0.000 C 
ATOM      8  C   UNL     1      -5.214  11.934  18.013  0.00  0.00    +0.000 A 
ATOM      9  C   UNL     1      -4.588  12.275  19.216  0.00  0.00    +0.000 A 
ATOM     10  C   UNL     1      -3.232  11.976  19.426  0.00  0.00    +0.000 A 
ATOM     11  C   UNL     1      -2.464  11.340  18.442  0.00  0.00    +0.000 A 
ATOM     12  C   UNL     1      -3.106  11.023  17.236  0.00  0.00    +0.000 A 
ATOM     13  C   UNL     1      -4.459  11.307  17.022  0.00  0.00    +0.000 A 
ENDBRANCH   1  11
BRANCH   4  14
ATOM     14  C   UNL     1       1.252   8.431  19.931  0.00  0.00    +0.000 C 
BRANCH  14  15
ATOM     15  C   UNL     1       2.153   7.303  19.457  0.00  0.00    +0.000 A 
ATOM     16  C   UNL     1       2.221   6.127  20.229  0.00  0.00    +0.000 A 
ATOM     17  C   UNL     1       3.186   5.154  19.965  0.00  0.00    +0.000 A 
ATOM     18  C   UNL     1       4.059   5.341  18.901  0.00  0.00    +0.000 A 
ATOM     19  O   UNL     1       5.144   4.453  18.782  0.00  0.00    +0.000 OA
ATOM     20  C   UNL     1       6.184   4.799  17.928  0.00  0.00    +0.000 A 
ATOM     21  O   UNL     1       7.331   4.412  18.080  0.00  0.00    +0.000 OA
ATOM     22  C   UNL     1       5.801   5.629  16.768  0.00  0.00    +0.000 A 
ATOM     23  C   UNL     1       4.738   6.437  16.830  0.00  0.00    +0.000 A 
ATOM     24  C   UNL     1       3.925   6.425  18.038  0.00  0.00    +0.000 A 
ATOM     25  C   UNL     1       2.998   7.424  18.337  0.00  0.00    +0.000 A 
ENDBRANCH  14  15
ENDBRANCH   4  14
TORSDOF 3
ENDMDL
