MODEL 1
REMARK VINA RESULT:      -7.1      0.000      0.000
REMARK  Name = 
REMARK  8 active torsions:
REMARK  status: ('A' for Active; 'I' for Inactive)
REMARK    1  A    between atoms: C_1  and  C_2
REMARK    2  A    between atoms: N_10  and  C_11
REMARK    3  A    between atoms: C_11  and  C_12
REMARK    4  A    between atoms: C_12  and  C_13
REMARK    5  A    between atoms: C_12  and  C_14
REMARK    6  A    between atoms: C_12  and  C_15
REMARK    7  A    between atoms: C_15  and  S_16
REMARK    8  A    between atoms: S_16  and  C_17
REMARK                            x       y       z     vdW  Elec       q    Type
REMARK                         _______ _______ _______ _____ _____    ______ ____
ROOT
ATOM      1  C   UNL     1       2.958   2.332  17.243  0.00  0.00    +0.000 C 
ATOM      2  C   UNL     1       2.196   2.912  18.370  0.00  0.00    +0.000 A 
ATOM      3  N   UNL     1       1.286   2.181  19.027  0.00  0.00    +0.000 NA
ATOM      4  O   UNL     1       0.784   3.017  20.018  0.00  0.00    +0.000 OA
ATOM      5  C   UNL     1       1.399   4.232  19.950  0.00  0.00    +0.000 A 
ATOM      6  N   UNL     1       1.126   5.255  20.772  0.00  0.00    +0.000 NA
ATOM      7  C   UNL     1       1.922   6.298  20.511  0.00  0.00    +0.000 A 
ATOM      8  N   UNL     1       2.897   6.382  19.583  0.00  0.00    +0.000 NA
ATOM      9  C   UNL     1       3.078   5.364  18.711  0.00  0.00    +0.000 A 
ATOM     10  N   UNL     1       3.974   5.471  17.664  0.00  0.00    +0.000 N 
ATOM     11  C   UNL     1       2.313   4.212  18.915  0.00  0.00    +0.000 A 
ATOM     12  H   UNL     1       3.697   5.035  16.795  0.00  0.00    +0.000 HD
ENDROOT
BRANCH  10  13
ATOM     13  C   UNL     1       5.028   6.472  17.617  0.00  0.00    +0.000 C 
BRANCH  13  14
ATOM     14  C   UNL     1       6.484   5.945  17.806  0.00  0.00    +0.000 C 
ATOM     15  C   UNL     1       7.493   7.072  17.519  0.00  0.00    +0.000 C 
ATOM     16  C   UNL     1       6.687   5.445  19.241  0.00  0.00    +0.000 C 
BRANCH  14  17
ATOM     17  C   UNL     1       6.655   4.775  16.788  0.00  0.00    +0.000 C 
BRANCH  17  18
ATOM     18  S   UNL     1       6.563   5.206  15.043  0.00  0.00    +0.000 S 
ATOM     19  C   UNL     1       6.110   3.685  14.259  0.00  0.00    +0.000 C 
ATOM     20  O   UNL     1       5.447   6.121  14.853  0.00  0.00    +0.000 OA
ATOM     21  O   UNL     1       7.888   5.532  14.566  0.00  0.00    +0.000 OA
ENDBRANCH  17  18
ENDBRANCH  14  17
ENDBRANCH  13  14
ENDBRANCH  10  13
TORSDOF 4
ENDMDL
MODEL 2
REMARK VINA RESULT:      -6.9      0.925      2.354
REMARK  Name = 
REMARK  8 active torsions:
REMARK  status: ('A' for Active; 'I' for Inactive)
REMARK    1  A    between atoms: C_1  and  C_2
REMARK    2  A    between atoms: N_10  and  C_11
REMARK    3  A    between atoms: C_11  and  C_12
REMARK    4  A    between atoms: C_12  and  C_13
REMARK    5  A    between atoms: C_12  and  C_14
REMARK    6  A    between atoms: C_12  and  C_15
REMARK    7  A    between atoms: C_15  and  S_16
REMARK    8  A    between atoms: S_16  and  C_17
REMARK                            x       y       z     vdW  Elec       q    Type
REMARK                         _______ _______ _______ _____ _____    ______ ____
ROOT
ATOM      1  C   UNL     1       2.004   5.985  21.036  0.00  0.00    +0.000 C 
ATOM      2  C   UNL     1       1.960   4.606  20.502  0.00  0.00    +0.000 A 
ATOM      3  N   UNL     1       1.044   3.733  20.941  0.00  0.00    +0.000 NA
ATOM      4  O   UNL     1       1.274   2.563  20.228  0.00  0.00    +0.000 OA
ATOM      5  C   UNL     1       2.315   2.746  19.367  0.00  0.00    +0.000 A 
ATOM      6  N   UNL     1       2.781   1.796  18.543  0.00  0.00    +0.000 NA
ATOM      7  C   UNL     1       3.766   2.277  17.776  0.00  0.00    +0.000 A 
ATOM      8  N   UNL     1       4.265   3.528  17.758  0.00  0.00    +0.000 NA
ATOM      9  C   UNL     1       3.834   4.432  18.668  0.00  0.00    +0.000 A 
ATOM     10  N   UNL     1       4.419   5.680  18.767  0.00  0.00    +0.000 N 
ATOM     11  C   UNL     1       2.784   4.038  19.503  0.00  0.00    +0.000 A 
ATOM     12  H   UNL     1       4.508   6.057  19.701  0.00  0.00    +0.000 HD
ENDROOT
BRANCH  10  13
ATOM     13  C   UNL     1       5.243   6.260  17.718  0.00  0.00    +0.000 C 
BRANCH  13  14
ATOM     14  C   UNL     1       6.783   6.073  17.874  0.00  0.00    +0.000 C 
ATOM     15  C   UNL     1       7.509   7.394  17.558  0.00  0.00    +0.000 C 
ATOM     16  C   UNL     1       7.126   5.646  19.307  0.00  0.00    +0.000 C 
BRANCH  14  17
ATOM     17  C   UNL     1       7.190   4.960  16.858  0.00  0.00    +0.000 C 
BRANCH  17  18
ATOM     18  S   UNL     1       6.771   5.255  15.133  0.00  0.00    +0.000 S 
ATOM     19  C   UNL     1       6.163   3.689  14.576  0.00  0.00    +0.000 C 
ATOM     20  O   UNL     1       5.649   6.180  15.082  0.00  0.00    +0.000 OA
ATOM     21  O   UNL     1       7.985   5.509  14.390  0.00  0.00    +0.000 OA
ENDBRANCH  17  18
ENDBRANCH  14  17
ENDBRANCH  13  14
ENDBRANCH  10  13
TORSDOF 4
ENDMDL
MODEL 3
REMARK VINA RESULT:      -6.9      1.798      2.600
REMARK  Name = 
REMARK  8 active torsions:
REMARK  status: ('A' for Active; 'I' for Inactive)
REMARK    1  A    between atoms: C_1  and  C_2
REMARK    2  A    between atoms: N_10  and  C_11
REMARK    3  A    between atoms: C_11  and  C_12
REMARK    4  A    between atoms: C_12  and  C_13
REMARK    5  A    between atoms: C_12  and  C_14
REMARK    6  A    between atoms: C_12  and  C_15
REMARK    7  A    between atoms: C_15  and  S_16
REMARK    8  A    between atoms: S_16  and  C_17
REMARK                            x       y       z     vdW  Elec       q    Type
REMARK                         _______ _______ _______ _____ _____    ______ ____
ROOT
ATOM      1  C   UNL     1       2.613   1.868  18.142  0.00  0.00    +0.000 C 
ATOM      2  C   UNL     1       2.122   2.834  19.149  0.00  0.00    +0.000 A 
ATOM      3  N   UNL     1       1.433   2.415  20.218  0.00  0.00    +0.000 NA
ATOM      4  O   UNL     1       1.150   3.562  20.950  0.00  0.00    +0.000 OA
ATOM      5  C   UNL     1       1.674   4.651  20.320  0.00  0.00    +0.000 A 
ATOM      6  N   UNL     1       1.564   5.906  20.778  0.00  0.00    +0.000 NA
ATOM      7  C   UNL     1       2.225   6.759  19.987  0.00  0.00    +0.000 A 
ATOM      8  N   UNL     1       2.940   6.476  18.880  0.00  0.00    +0.000 NA
ATOM      9  C   UNL     1       2.950   5.212  18.397  0.00  0.00    +0.000 A 
ATOM     10  N   UNL     1       3.558   4.913  17.193  0.00  0.00    +0.000 N 
ATOM     11  C   UNL     1       2.309   4.236  19.166  0.00  0.00    +0.000 A 
ATOM     12  H   UNL     1       3.099   4.215  16.623  0.00  0.00    +0.000 HD
ENDROOT
BRANCH  10  13
ATOM     13  C   UNL     1       4.524   5.790  16.548  0.00  0.00    +0.000 C 
BRANCH  13  14
ATOM     14  C   UNL     1       5.736   5.089  15.862  0.00  0.00    +0.000 C 
ATOM     15  C   UNL     1       5.644   3.565  16.059  0.00  0.00    +0.000 C 
ATOM     16  C   UNL     1       5.751   5.398  14.360  0.00  0.00    +0.000 C 
BRANCH  14  17
ATOM     17  C   UNL     1       7.014   5.661  16.552  0.00  0.00    +0.000 C 
BRANCH  17  18
ATOM     18  S   UNL     1       7.476   4.923  18.127  0.00  0.00    +0.000 S 
ATOM     19  C   UNL     1       8.090   6.291  19.067  0.00  0.00    +0.000 C 
ATOM     20  O   UNL     1       6.266   4.467  18.796  0.00  0.00    +0.000 OA
ATOM     21  O   UNL     1       8.597   4.033  17.921  0.00  0.00    +0.000 OA
ENDBRANCH  17  18
ENDBRANCH  14  17
ENDBRANCH  13  14
ENDBRANCH  10  13
TORSDOF 4
ENDMDL
MODEL 4
REMARK VINA RESULT:      -6.8      1.353      1.359
REMARK  Name = 
REMARK  8 active torsions:
REMARK  status: ('A' for Active; 'I' for Inactive)
REMARK    1  A    between atoms: C_1  and  C_2
REMARK    2  A    between atoms: N_10  and  C_11
REMARK    3  A    between atoms: C_11  and  C_12
REMARK    4  A    between atoms: C_12  and  C_13
REMARK    5  A    between atoms: C_12  and  C_14
REMARK    6  A    between atoms: C_12  and  C_15
REMARK    7  A    between atoms: C_15  and  S_16
REMARK    8  A    between atoms: S_16  and  C_17
REMARK                            x       y       z     vdW  Elec       q    Type
REMARK                         _______ _______ _______ _____ _____    ______ ____
ROOT
ATOM      1  C   UNL     1       4.598   2.159  20.195  0.00  0.00    +0.000 C 
ATOM      2  C   UNL     1       3.371   2.904  20.557  0.00  0.00    +0.000 A 
ATOM      3  N   UNL     1       2.425   2.334  21.314  0.00  0.00    +0.000 NA
ATOM      4  O   UNL     1       1.441   3.303  21.471  0.00  0.00    +0.000 OA
ATOM      5  C   UNL     1       1.808   4.441  20.816  0.00  0.00    +0.000 A 
ATOM      6  N   UNL     1       1.064   5.556  20.777  0.00  0.00    +0.000 NA
ATOM      7  C   UNL     1       1.700   6.527  20.114  0.00  0.00    +0.000 A 
ATOM      8  N   UNL     1       2.924   6.480  19.551  0.00  0.00    +0.000 NA
ATOM      9  C   UNL     1       3.604   5.311  19.529  0.00  0.00    +0.000 A 
ATOM     10  N   UNL     1       4.798   5.192  18.843  0.00  0.00    +0.000 N 
ATOM     11  C   UNL     1       3.037   4.236  20.220  0.00  0.00    +0.000 A 
ATOM     12  H   UNL     1       4.958   4.309  18.378  0.00  0.00    +0.000 HD
ENDROOT
BRANCH  10  13
ATOM     13  C   UNL     1       5.594   6.336  18.424  0.00  0.00    +0.000 C 
BRANCH  13  14
ATOM     14  C   UNL     1       7.063   6.031  18.000  0.00  0.00    +0.000 C 
ATOM     15  C   UNL     1       7.693   7.277  17.350  0.00  0.00    +0.000 C 
ATOM     16  C   UNL     1       7.898   5.629  19.222  0.00  0.00    +0.000 C 
BRANCH  14  17
ATOM     17  C   UNL     1       6.983   4.853  16.980  0.00  0.00    +0.000 C 
BRANCH  17  18
ATOM     18  S   UNL     1       6.655   5.294  15.266  0.00  0.00    +0.000 S 
ATOM     19  C   UNL     1       6.020   3.799  14.563  0.00  0.00    +0.000 C 
ATOM     20  O   UNL     1       5.567   6.261  15.239  0.00  0.00    +0.000 OA
ATOM     21  O   UNL     1       7.909   5.559  14.598  0.00  0.00    +0.000 OA
ENDBRANCH  17  18
ENDBRANCH  14  17
ENDBRANCH  13  14
ENDBRANCH  10  13
TORSDOF 4
ENDMDL
MODEL 5
REMARK VINA RESULT:      -6.8      1.715      3.405
REMARK  Name = 
REMARK  8 active torsions:
REMARK  status: ('A' for Active; 'I' for Inactive)
REMARK    1  A    between atoms: C_1  and  C_2
REMARK    2  A    between atoms: N_10  and  C_11
REMARK    3  A    between atoms: C_11  and  C_12
REMARK    4  A    between atoms: C_12  and  C_13
REMARK    5  A    between atoms: C_12  and  C_14
REMARK    6  A    between atoms: C_12  and  C_15
REMARK    7  A    between atoms: C_15  and  S_16
REMARK    8  A    between atoms: S_16  and  C_17
REMARK                            x       y       z     vdW  Elec       q    Type
REMARK                         _______ _______ _______ _____ _____    ______ ____
ROOT
ATOM      1  C   UNL     1       2.790   6.869  19.079  0.00  0.00    +0.000 C 
ATOM      2  C   UNL     1       2.220   5.601  19.585  0.00  0.00    +0.000 A 
ATOM      3  N   UNL     1       1.290   5.608  20.549  0.00  0.00    +0.000 NA
ATOM      4  O   UNL     1       0.971   4.272  20.766  0.00  0.00    +0.000 OA
ATOM      5  C   UNL     1       1.704   3.483  19.930  0.00  0.00    +0.000 A 
ATOM      6  N   UNL     1       1.624   2.144  19.903  0.00  0.00    +0.000 NA
ATOM      7  C   UNL     1       2.412   1.642  18.946  0.00  0.00    +0.000 A 
ATOM      8  N   UNL     1       3.192   2.317  18.078  0.00  0.00    +0.000 NA
ATOM      9  C   UNL     1       3.318   3.658  18.198  0.00  0.00    +0.000 A 
ATOM     10  N   UNL     1       4.212   4.364  17.415  0.00  0.00    +0.000 N 
ATOM     11  C   UNL     1       2.514   4.287  19.153  0.00  0.00    +0.000 A 
ATOM     12  H   UNL     1       4.682   5.138  17.863  0.00  0.00    +0.000 HD
ENDROOT
BRANCH  10  13
ATOM     13  C   UNL     1       4.793   3.832  16.191  0.00  0.00    +0.000 C 
BRANCH  13  14
ATOM     14  C   UNL     1       5.880   4.716  15.507  0.00  0.00    +0.000 C 
ATOM     15  C   UNL     1       6.381   4.033  14.221  0.00  0.00    +0.000 C 
ATOM     16  C   UNL     1       5.301   6.091  15.149  0.00  0.00    +0.000 C 
BRANCH  14  17
ATOM     17  C   UNL     1       7.036   4.861  16.545  0.00  0.00    +0.000 C 
BRANCH  17  18
ATOM     18  S   UNL     1       7.080   6.391  17.492  0.00  0.00    +0.000 S 
ATOM     19  C   UNL     1       7.954   5.947  18.965  0.00  0.00    +0.000 C 
ATOM     20  O   UNL     1       7.917   7.348  16.783  0.00  0.00    +0.000 OA
ATOM     21  O   UNL     1       5.736   6.731  17.901  0.00  0.00    +0.000 OA
ENDBRANCH  17  18
ENDBRANCH  14  17
ENDBRANCH  13  14
ENDBRANCH  10  13
TORSDOF 4
ENDMDL
MODEL 6
REMARK VINA RESULT:      -6.7      3.303      5.341
REMARK  Name = 
REMARK  8 active torsions:
REMARK  status: ('A' for Active; 'I' for Inactive)
REMARK    1  A    between atoms: C_1  and  C_2
REMARK    2  A    between atoms: N_10  and  C_11
REMARK    3  A    between atoms: C_11  and  C_12
REMARK    4  A    between atoms: C_12  and  C_13
REMARK    5  A    between atoms: C_12  and  C_14
REMARK    6  A    between atoms: C_12  and  C_15
REMARK    7  A    between atoms: C_15  and  S_16
REMARK    8  A    between atoms: S_16  and  C_17
REMARK                            x       y       z     vdW  Elec       q    Type
REMARK                         _______ _______ _______ _____ _____    ______ ____
ROOT
ATOM      1  C   UNL     1       3.395   7.441  17.442  0.00  0.00    +0.000 C 
ATOM      2  C   UNL     1       2.497   8.433  18.072  0.00  0.00    +0.000 A 
ATOM      3  N   UNL     1       2.214   9.587  17.454  0.00  0.00    +0.000 NA
ATOM      4  O   UNL     1       1.344  10.260  18.304  0.00  0.00    +0.000 OA
ATOM      5  C   UNL     1       1.109   9.504  19.414  0.00  0.00    +0.000 A 
ATOM      6  N   UNL     1       0.313   9.884  20.424  0.00  0.00    +0.000 NA
ATOM      7  C   UNL     1       0.225   8.920  21.347  0.00  0.00    +0.000 A 
ATOM      8  N   UNL     1       0.807   7.704  21.331  0.00  0.00    +0.000 NA
ATOM      9  C   UNL     1       1.677   7.394  20.342  0.00  0.00    +0.000 A 
ATOM     10  N   UNL     1       2.394   6.212  20.367  0.00  0.00    +0.000 N 
ATOM     11  C   UNL     1       1.821   8.326  19.310  0.00  0.00    +0.000 A 
ATOM     12  H   UNL     1       3.343   6.260  20.022  0.00  0.00    +0.000 HD
ENDROOT
BRANCH  10  13
ATOM     13  C   UNL     1       2.029   5.076  21.199  0.00  0.00    +0.000 C 
BRANCH  13  14
ATOM     14  C   UNL     1       2.142   3.672  20.530  0.00  0.00    +0.000 C 
ATOM     15  C   UNL     1       2.550   2.620  21.578  0.00  0.00    +0.000 C 
ATOM     16  C   UNL     1       0.797   3.266  19.913  0.00  0.00    +0.000 C 
BRANCH  14  17
ATOM     17  C   UNL     1       3.234   3.806  19.423  0.00  0.00    +0.000 C 
BRANCH  17  18
ATOM     18  S   UNL     1       2.749   3.339  17.754  0.00  0.00    +0.000 S 
ATOM     19  C   UNL     1       4.136   3.818  16.765  0.00  0.00    +0.000 C 
ATOM     20  O   UNL     1       2.671   1.887  17.686  0.00  0.00    +0.000 OA
ATOM     21  O   UNL     1       1.642   4.168  17.334  0.00  0.00    +0.000 OA
ENDBRANCH  17  18
ENDBRANCH  14  17
ENDBRANCH  13  14
ENDBRANCH  10  13
TORSDOF 4
ENDMDL
MODEL 7
REMARK VINA RESULT:      -6.6      0.769      1.043
REMARK  Name = 
REMARK  8 active torsions:
REMARK  status: ('A' for Active; 'I' for Inactive)
REMARK    1  A    between atoms: C_1  and  C_2
REMARK    2  A    between atoms: N_10  and  C_11
REMARK    3  A    between atoms: C_11  and  C_12
REMARK    4  A    between atoms: C_12  and  C_13
REMARK    5  A    between atoms: C_12  and  C_14
REMARK    6  A    between atoms: C_12  and  C_15
REMARK    7  A    between atoms: C_15  and  S_16
REMARK    8  A    between atoms: S_16  and  C_17
REMARK                            x       y       z     vdW  Elec       q    Type
REMARK                         _______ _______ _______ _____ _____    ______ ____
ROOT
ATOM      1  C   UNL     1       3.399   1.390  18.338  0.00  0.00    +0.000 C 
ATOM      2  C   UNL     1       2.401   2.275  18.979  0.00  0.00    +0.000 A 
ATOM      3  N   UNL     1       1.179   1.819  19.281  0.00  0.00    +0.000 NA
ATOM      4  O   UNL     1       0.520   2.888  19.876  0.00  0.00    +0.000 OA
ATOM      5  C   UNL     1       1.352   3.967  19.932  0.00  0.00    +0.000 A 
ATOM      6  N   UNL     1       1.004   5.155  20.448  0.00  0.00    +0.000 NA
ATOM      7  C   UNL     1       2.037   6.003  20.423  0.00  0.00    +0.000 A 
ATOM      8  N   UNL     1       3.287   5.771  19.975  0.00  0.00    +0.000 NA
ATOM      9  C   UNL     1       3.574   4.593  19.376  0.00  0.00    +0.000 A 
ATOM     10  N   UNL     1       4.804   4.372  18.785  0.00  0.00    +0.000 N 
ATOM     11  C   UNL     1       2.567   3.622  19.374  0.00  0.00    +0.000 A 
ATOM     12  H   UNL     1       4.798   3.826  17.934  0.00  0.00    +0.000 HD
ENDROOT
BRANCH  10  13
ATOM     13  C   UNL     1       5.979   5.183  19.065  0.00  0.00    +0.000 C 
BRANCH  13  14
ATOM     14  C   UNL     1       6.610   5.921  17.844  0.00  0.00    +0.000 C 
ATOM     15  C   UNL     1       5.613   6.949  17.278  0.00  0.00    +0.000 C 
ATOM     16  C   UNL     1       7.892   6.649  18.266  0.00  0.00    +0.000 C 
BRANCH  14  17
ATOM     17  C   UNL     1       6.928   4.817  16.789  0.00  0.00    +0.000 C 
BRANCH  17  18
ATOM     18  S   UNL     1       6.696   5.265  15.061  0.00  0.00    +0.000 S 
ATOM     19  C   UNL     1       6.255   3.735  14.288  0.00  0.00    +0.000 C 
ATOM     20  O   UNL     1       5.530   6.132  14.962  0.00  0.00    +0.000 OA
ATOM     21  O   UNL     1       7.969   5.655  14.499  0.00  0.00    +0.000 OA
ENDBRANCH  17  18
ENDBRANCH  14  17
ENDBRANCH  13  14
ENDBRANCH  10  13
TORSDOF 4
ENDMDL
MODEL 8
REMARK VINA RESULT:      -6.6      2.622      5.792
REMARK  Name = 
REMARK  8 active torsions:
REMARK  status: ('A' for Active; 'I' for Inactive)
REMARK    1  A    between atoms: C_1  and  C_2
REMARK    2  A    between atoms: N_10  and  C_11
REMARK    3  A    between atoms: C_11  and  C_12
REMARK    4  A    between atoms: C_12  and  C_13
REMARK    5  A    between atoms: C_12  and  C_14
REMARK    6  A    between atoms: C_12  and  C_15
REMARK    7  A    between atoms: C_15  and  S_16
REMARK    8  A    between atoms: S_16  and  C_17
REMARK                            x       y       z     vdW  Elec       q    Type
REMARK                         _______ _______ _______ _____ _____    ______ ____
ROOT
ATOM      1  C   UNL     1       5.343   4.064  15.181  0.00  0.00    +0.000 C 
ATOM      2  C   UNL     1       6.307   4.909  15.920  0.00  0.00    +0.000 A 
ATOM      3  N   UNL     1       7.121   5.747  15.266  0.00  0.00    +0.000 NA
ATOM      4  O   UNL     1       7.865   6.385  16.251  0.00  0.00    +0.000 OA
ATOM      5  C   UNL     1       7.488   5.931  17.480  0.00  0.00    +0.000 A 
ATOM      6  N   UNL     1       8.027   6.353  18.633  0.00  0.00    +0.000 NA
ATOM      7  C   UNL     1       7.421   5.780  19.678  0.00  0.00    +0.000 A 
ATOM      8  N   UNL     1       6.395   4.906  19.661  0.00  0.00    +0.000 NA
ATOM      9  C   UNL     1       5.941   4.432  18.478  0.00  0.00    +0.000 A 
ATOM     10  N   UNL     1       4.985   3.435  18.428  0.00  0.00    +0.000 N 
ATOM     11  C   UNL     1       6.491   4.989  17.320  0.00  0.00    +0.000 A 
ATOM     12  H   UNL     1       5.088   2.756  17.687  0.00  0.00    +0.000 HD
ENDROOT
BRANCH  10  13
ATOM     13  C   UNL     1       4.139   3.084  19.559  0.00  0.00    +0.000 C 
BRANCH  13  14
ATOM     14  C   UNL     1       2.623   3.420  19.412  0.00  0.00    +0.000 C 
ATOM     15  C   UNL     1       2.233   3.453  17.923  0.00  0.00    +0.000 C 
ATOM     16  C   UNL     1       1.772   2.363  20.128  0.00  0.00    +0.000 C 
BRANCH  14  17
ATOM     17  C   UNL     1       2.425   4.821  20.069  0.00  0.00    +0.000 C 
BRANCH  17  18
ATOM     18  S   UNL     1       2.428   6.238  18.959  0.00  0.00    +0.000 S 
ATOM     19  C   UNL     1       1.961   7.589  20.003  0.00  0.00    +0.000 C 
ATOM     20  O   UNL     1       3.799   6.491  18.539  0.00  0.00    +0.000 OA
ATOM     21  O   UNL     1       1.366   6.082  17.992  0.00  0.00    +0.000 OA
ENDBRANCH  17  18
ENDBRANCH  14  17
ENDBRANCH  13  14
ENDBRANCH  10  13
TORSDOF 4
ENDMDL
MODEL 9
REMARK VINA RESULT:      -6.5      1.671      2.535
REMARK  Name = 
REMARK  8 active torsions:
REMARK  status: ('A' for Active; 'I' for Inactive)
REMARK    1  A    between atoms: C_1  and  C_2
REMARK    2  A    between atoms: N_10  and  C_11
REMARK    3  A    between atoms: C_11  and  C_12
REMARK    4  A    between atoms: C_12  and  C_13
REMARK    5  A    between atoms: C_12  and  C_14
REMARK    6  A    between atoms: C_12  and  C_15
REMARK    7  A    between atoms: C_15  and  S_16
REMARK    8  A    between atoms: S_16  and  C_17
REMARK                            x       y       z     vdW  Elec       q    Type
REMARK                         _______ _______ _______ _____ _____    ______ ____
ROOT
ATOM      1  C   UNL     1       1.988   6.083  17.845  0.00  0.00    +0.000 C 
ATOM      2  C   UNL     1       1.975   4.622  18.077  0.00  0.00    +0.000 A 
ATOM      3  N   UNL     1       0.931   3.878  17.691  0.00  0.00    +0.000 NA
ATOM      4  O   UNL     1       1.255   2.573  18.041  0.00  0.00    +0.000 OA
ATOM      5  C   UNL     1       2.487   2.545  18.623  0.00  0.00    +0.000 A 
ATOM      6  N   UNL     1       3.077   1.429  19.074  0.00  0.00    +0.000 NA
ATOM      7  C   UNL     1       4.302   1.695  19.540  0.00  0.00    +0.000 A 
ATOM      8  N   UNL     1       4.934   2.885  19.571  0.00  0.00    +0.000 NA
ATOM      9  C   UNL     1       4.272   4.003  19.195  0.00  0.00    +0.000 A 
ATOM     10  N   UNL     1       4.841   5.254  19.341  0.00  0.00    +0.000 N 
ATOM     11  C   UNL     1       2.990   3.831  18.665  0.00  0.00    +0.000 A 
ATOM     12  H   UNL     1       4.212   6.001  19.605  0.00  0.00    +0.000 HD
ENDROOT
BRANCH  10  13
ATOM     13  C   UNL     1       6.267   5.463  19.541  0.00  0.00    +0.000 C 
BRANCH  13  14
ATOM     14  C   UNL     1       7.087   5.852  18.273  0.00  0.00    +0.000 C 
ATOM     15  C   UNL     1       8.196   6.852  18.651  0.00  0.00    +0.000 C 
ATOM     16  C   UNL     1       7.729   4.606  17.650  0.00  0.00    +0.000 C 
BRANCH  14  17
ATOM     17  C   UNL     1       6.071   6.500  17.282  0.00  0.00    +0.000 C 
BRANCH  17  18
ATOM     18  S   UNL     1       6.069   5.860  15.600  0.00  0.00    +0.000 S 
ATOM     19  C   UNL     1       5.253   4.296  15.748  0.00  0.00    +0.000 C 
ATOM     20  O   UNL     1       5.206   6.704  14.786  0.00  0.00    +0.000 OA
ATOM     21  O   UNL     1       7.429   5.575  15.201  0.00  0.00    +0.000 OA
ENDBRANCH  17  18
ENDBRANCH  14  17
ENDBRANCH  13  14
ENDBRANCH  10  13
TORSDOF 4
ENDMDL
