MODEL 1
REMARK VINA RESULT:      -4.9      0.000      0.000
REMARK  Name = 
REMARK  7 active torsions:
REMARK  status: ('A' for Active; 'I' for Inactive)
REMARK    1  A    between atoms: C_2  and  C_3
REMARK    2  A    between atoms: N_5  and  C_6
REMARK    3  A    between atoms: C_6  and  C_7
REMARK    4  A    between atoms: C_7  and  O_8
REMARK    5  A    between atoms: O_8  and  P_9
REMARK    6  A    between atoms: P_9  and  O_11
REMARK    7  A    between atoms: P_9  and  O_12
REMARK                            x       y       z     vdW  Elec       q    Type
REMARK                         _______ _______ _______ _____ _____    ______ ____
ROOT
ATOM      1  C   UNL     1       7.545   4.636  17.771  0.00  0.00    +0.000 C 
ENDROOT
BRANCH   1   2
ATOM      2  C   UNL     1       6.321   4.918  18.640  0.00  0.00    +0.000 C 
BRANCH   2   5
ATOM      3  O   UNL     1       3.817   4.556  17.398  0.00  0.00    +0.000 OA
ATOM      4  C   UNL     1       4.221   3.697  18.176  0.00  0.00    +0.000 C 
ATOM      5  N   UNL     1       5.459   3.758  18.784  0.00  0.00    +0.000 N 
ATOM      6  H   UNL     1       5.605   3.183  19.606  0.00  0.00    +0.000 HD
BRANCH   4   7
ATOM      7  C   UNL     1       3.428   2.443  18.485  0.00  0.00    +0.000 C 
ATOM      8  I   UNL     1       2.028   2.856  20.020  0.00  0.00    +0.000 I 
ENDBRANCH   4   7
ENDBRANCH   2   5
ENDBRANCH   1   2
BRANCH   1   9
ATOM      9  O   UNL     1       7.530   5.511  16.648  0.00  0.00    +0.000 OA
BRANCH   9  10
ATOM     10  P   UNL     1       6.751   5.037  15.337  0.00  0.00    +0.000 P 
ATOM     11  O   UNL     1       6.315   3.613  15.315  0.00  0.00    +0.000 OA
BRANCH  10  12
ATOM     12  O   UNL     1       5.519   6.038  15.192  0.00  0.00    +0.000 OA
ATOM     13  H   UNL     1       4.729   5.669  15.629  0.00  0.00    +0.000 HD
ENDBRANCH  10  12
BRANCH  10  14
ATOM     14  O   UNL     1       7.671   5.421  14.093  0.00  0.00    +0.000 OA
ATOM     15  H   UNL     1       8.606   5.230  14.283  0.00  0.00    +0.000 HD
ENDBRANCH  10  14
ENDBRANCH   9  10
ENDBRANCH   1   9
TORSDOF 7
ENDMDL
MODEL 2
REMARK VINA RESULT:      -4.8      2.753      3.442
REMARK  Name = 
REMARK  7 active torsions:
REMARK  status: ('A' for Active; 'I' for Inactive)
REMARK    1  A    between atoms: C_2  and  C_3
REMARK    2  A    between atoms: N_5  and  C_6
REMARK    3  A    between atoms: C_6  and  C_7
REMARK    4  A    between atoms: C_7  and  O_8
REMARK    5  A    between atoms: O_8  and  P_9
REMARK    6  A    between atoms: P_9  and  O_11
REMARK    7  A    between atoms: P_9  and  O_12
REMARK                            x       y       z     vdW  Elec       q    Type
REMARK                         _______ _______ _______ _____ _____    ______ ____
ROOT
ATOM      1  C   UNL     1       4.302   5.522  17.323  0.00  0.00    +0.000 C 
ENDROOT
BRANCH   1   2
ATOM      2  C   UNL     1       3.012   5.784  18.098  0.00  0.00    +0.000 C 
BRANCH   2   5
ATOM      3  O   UNL     1       0.980   4.051  17.197  0.00  0.00    +0.000 OA
ATOM      4  C   UNL     1       1.488   3.846  18.295  0.00  0.00    +0.000 C 
ATOM      5  N   UNL     1       2.530   4.603  18.793  0.00  0.00    +0.000 N 
ATOM      6  H   UNL     1       2.703   4.561  19.791  0.00  0.00    +0.000 HD
BRANCH   4   7
ATOM      7  C   UNL     1       1.071   2.688  19.180  0.00  0.00    +0.000 C 
ATOM      8  I   UNL     1       1.797   3.007  21.145  0.00  0.00    +0.000 I 
ENDBRANCH   4   7
ENDBRANCH   2   5
ENDBRANCH   1   2
BRANCH   1   9
ATOM      9  O   UNL     1       5.413   5.900  18.130  0.00  0.00    +0.000 OA
BRANCH   9  10
ATOM     10  P   UNL     1       6.219   4.745  18.885  0.00  0.00    +0.000 P 
ATOM     11  O   UNL     1       5.398   3.639  19.451  0.00  0.00    +0.000 OA
BRANCH  10  12
ATOM     12  O   UNL     1       7.285   4.214  17.827  0.00  0.00    +0.000 OA
ATOM     13  H   UNL     1       7.727   3.412  18.164  0.00  0.00    +0.000 HD
ENDBRANCH  10  12
BRANCH  10  14
ATOM     14  O   UNL     1       7.129   5.463  19.980  0.00  0.00    +0.000 OA
ATOM     15  H   UNL     1       6.853   6.388  20.107  0.00  0.00    +0.000 HD
ENDBRANCH  10  14
ENDBRANCH   9  10
ENDBRANCH   1   9
TORSDOF 7
ENDMDL
MODEL 3
REMARK VINA RESULT:      -4.8      2.730      3.241
REMARK  Name = 
REMARK  7 active torsions:
REMARK  status: ('A' for Active; 'I' for Inactive)
REMARK    1  A    between atoms: C_2  and  C_3
REMARK    2  A    between atoms: N_5  and  C_6
REMARK    3  A    between atoms: C_6  and  C_7
REMARK    4  A    between atoms: C_7  and  O_8
REMARK    5  A    between atoms: O_8  and  P_9
REMARK    6  A    between atoms: P_9  and  O_11
REMARK    7  A    between atoms: P_9  and  O_12
REMARK                            x       y       z     vdW  Elec       q    Type
REMARK                         _______ _______ _______ _____ _____    ______ ____
ROOT
ATOM      1  C   UNL     1       4.934   6.182  17.942  0.00  0.00    +0.000 C 
ENDROOT
BRANCH   1   2
ATOM      2  C   UNL     1       3.687   5.387  17.561  0.00  0.00    +0.000 C 
BRANCH   2   5
ATOM      3  O   UNL     1       1.480   3.636  17.474  0.00  0.00    +0.000 OA
ATOM      4  C   UNL     1       2.358   3.441  18.310  0.00  0.00    +0.000 C 
ATOM      5  N   UNL     1       3.503   4.207  18.389  0.00  0.00    +0.000 N 
ATOM      6  H   UNL     1       4.030   4.172  19.254  0.00  0.00    +0.000 HD
BRANCH   4   7
ATOM      7  C   UNL     1       2.304   2.285  19.290  0.00  0.00    +0.000 C 
ATOM      8  I   UNL     1       1.910   3.029  21.234  0.00  0.00    +0.000 I 
ENDBRANCH   4   7
ENDBRANCH   2   5
ENDBRANCH   1   2
BRANCH   1   9
ATOM      9  O   UNL     1       5.716   5.413  18.849  0.00  0.00    +0.000 OA
BRANCH   9  10
ATOM     10  P   UNL     1       7.304   5.586  18.806  0.00  0.00    +0.000 P 
ATOM     11  O   UNL     1       7.807   6.837  18.175  0.00  0.00    +0.000 OA
BRANCH  10  12
ATOM     12  O   UNL     1       7.785   5.447  20.318  0.00  0.00    +0.000 OA
ATOM     13  H   UNL     1       8.205   4.579  20.463  0.00  0.00    +0.000 HD
ENDBRANCH  10  12
BRANCH  10  14
ATOM     14  O   UNL     1       7.890   4.270  18.122  0.00  0.00    +0.000 OA
ATOM     15  H   UNL     1       8.791   4.425  17.789  0.00  0.00    +0.000 HD
ENDBRANCH  10  14
ENDBRANCH   9  10
ENDBRANCH   1   9
TORSDOF 7
ENDMDL
MODEL 4
REMARK VINA RESULT:      -4.8      0.765      1.353
REMARK  Name = 
REMARK  7 active torsions:
REMARK  status: ('A' for Active; 'I' for Inactive)
REMARK    1  A    between atoms: C_2  and  C_3
REMARK    2  A    between atoms: N_5  and  C_6
REMARK    3  A    between atoms: C_6  and  C_7
REMARK    4  A    between atoms: C_7  and  O_8
REMARK    5  A    between atoms: O_8  and  P_9
REMARK    6  A    between atoms: P_9  and  O_11
REMARK    7  A    between atoms: P_9  and  O_12
REMARK                            x       y       z     vdW  Elec       q    Type
REMARK                         _______ _______ _______ _____ _____    ______ ____
ROOT
ATOM      1  C   UNL     1       7.462   5.115  17.696  0.00  0.00    +0.000 C 
ENDROOT
BRANCH   1   2
ATOM      2  C   UNL     1       6.394   5.117  18.788  0.00  0.00    +0.000 C 
BRANCH   2   5
ATOM      3  O   UNL     1       3.641   4.750  18.307  0.00  0.00    +0.000 OA
ATOM      4  C   UNL     1       4.312   3.787  18.668  0.00  0.00    +0.000 C 
ATOM      5  N   UNL     1       5.676   3.856  18.868  0.00  0.00    +0.000 N 
ATOM      6  H   UNL     1       6.105   3.124  19.423  0.00  0.00    +0.000 HD
BRANCH   4   7
ATOM      7  C   UNL     1       3.716   2.405  18.853  0.00  0.00    +0.000 C 
ATOM      8  I   UNL     1       1.602   2.541  18.829  0.00  0.00    +0.000 I 
ENDBRANCH   4   7
ENDBRANCH   2   5
ENDBRANCH   1   2
BRANCH   1   9
ATOM      9  O   UNL     1       7.093   4.181  16.688  0.00  0.00    +0.000 OA
BRANCH   9  10
ATOM     10  P   UNL     1       6.558   4.752  15.295  0.00  0.00    +0.000 P 
ATOM     11  O   UNL     1       5.368   5.644  15.369  0.00  0.00    +0.000 OA
BRANCH  10  12
ATOM     12  O   UNL     1       7.808   5.482  14.630  0.00  0.00    +0.000 OA
ATOM     13  H   UNL     1       8.628   4.986  14.811  0.00  0.00    +0.000 HD
ENDBRANCH  10  12
BRANCH  10  14
ATOM     14  O   UNL     1       6.330   3.495  14.341  0.00  0.00    +0.000 OA
ATOM     15  H   UNL     1       7.180   3.154  14.009  0.00  0.00    +0.000 HD
ENDBRANCH  10  14
ENDBRANCH   9  10
ENDBRANCH   1   9
TORSDOF 7
ENDMDL
MODEL 5
REMARK VINA RESULT:      -4.8      1.642      2.224
REMARK  Name = 
REMARK  7 active torsions:
REMARK  status: ('A' for Active; 'I' for Inactive)
REMARK    1  A    between atoms: C_2  and  C_3
REMARK    2  A    between atoms: N_5  and  C_6
REMARK    3  A    between atoms: C_6  and  C_7
REMARK    4  A    between atoms: C_7  and  O_8
REMARK    5  A    between atoms: O_8  and  P_9
REMARK    6  A    between atoms: P_9  and  O_11
REMARK    7  A    between atoms: P_9  and  O_12
REMARK                            x       y       z     vdW  Elec       q    Type
REMARK                         _______ _______ _______ _____ _____    ______ ____
ROOT
ATOM      1  C   UNL     1       4.945   5.399  17.963  0.00  0.00    +0.000 C 
ENDROOT
BRANCH   1   2
ATOM      2  C   UNL     1       5.082   4.414  19.122  0.00  0.00    +0.000 C 
BRANCH   2   5
ATOM      3  O   UNL     1       3.903   2.171  17.890  0.00  0.00    +0.000 OA
ATOM      4  C   UNL     1       3.293   2.740  18.790  0.00  0.00    +0.000 C 
ATOM      5  N   UNL     1       3.815   3.808  19.492  0.00  0.00    +0.000 N 
ATOM      6  H   UNL     1       3.166   4.391  20.008  0.00  0.00    +0.000 HD
BRANCH   4   7
ATOM      7  C   UNL     1       1.933   2.274  19.271  0.00  0.00    +0.000 C 
ATOM      8  I   UNL     1       1.638   2.908  21.271  0.00  0.00    +0.000 I 
ENDBRANCH   4   7
ENDBRANCH   2   5
ENDBRANCH   1   2
BRANCH   1   9
ATOM      9  O   UNL     1       6.243   5.757  17.501  0.00  0.00    +0.000 OA
BRANCH   9  10
ATOM     10  P   UNL     1       6.961   4.787  16.453  0.00  0.00    +0.000 P 
ATOM     11  O   UNL     1       7.449   5.426  15.201  0.00  0.00    +0.000 OA
BRANCH  10  12
ATOM     12  O   UNL     1       8.142   4.089  17.264  0.00  0.00    +0.000 OA
ATOM     13  H   UNL     1       8.620   3.460  16.694  0.00  0.00    +0.000 HD
ENDBRANCH  10  12
BRANCH  10  14
ATOM     14  O   UNL     1       5.954   3.581  16.181  0.00  0.00    +0.000 OA
ATOM     15  H   UNL     1       5.225   3.864  15.601  0.00  0.00    +0.000 HD
ENDBRANCH  10  14
ENDBRANCH   9  10
ENDBRANCH   1   9
TORSDOF 7
ENDMDL
MODEL 6
REMARK VINA RESULT:      -4.8      2.061      2.671
REMARK  Name = 
REMARK  7 active torsions:
REMARK  status: ('A' for Active; 'I' for Inactive)
REMARK    1  A    between atoms: C_2  and  C_3
REMARK    2  A    between atoms: N_5  and  C_6
REMARK    3  A    between atoms: C_6  and  C_7
REMARK    4  A    between atoms: C_7  and  O_8
REMARK    5  A    between atoms: O_8  and  P_9
REMARK    6  A    between atoms: P_9  and  O_11
REMARK    7  A    between atoms: P_9  and  O_12
REMARK                            x       y       z     vdW  Elec       q    Type
REMARK                         _______ _______ _______ _____ _____    ______ ____
ROOT
ATOM      1  C   UNL     1       4.759   6.036  18.076  0.00  0.00    +0.000 C 
ENDROOT
BRANCH   1   2
ATOM      2  C   UNL     1       3.397   5.477  17.671  0.00  0.00    +0.000 C 
BRANCH   2   5
ATOM      3  O   UNL     1       1.044   3.962  17.332  0.00  0.00    +0.000 OA
ATOM      4  C   UNL     1       1.853   3.614  18.187  0.00  0.00    +0.000 C 
ATOM      5  N   UNL     1       3.059   4.257  18.384  0.00  0.00    +0.000 N 
ATOM      6  H   UNL     1       3.534   4.101  19.266  0.00  0.00    +0.000 HD
BRANCH   4   7
ATOM      7  C   UNL     1       1.639   2.393  19.060  0.00  0.00    +0.000 C 
ATOM      8  I   UNL     1       1.748   2.959  21.099  0.00  0.00    +0.000 I 
ENDBRANCH   4   7
ENDBRANCH   2   5
ENDBRANCH   1   2
BRANCH   1   9
ATOM      9  O   UNL     1       5.692   5.791  17.030  0.00  0.00    +0.000 OA
BRANCH   9  10
ATOM     10  P   UNL     1       6.524   4.428  17.070  0.00  0.00    +0.000 P 
ATOM     11  O   UNL     1       7.966   4.533  16.715  0.00  0.00    +0.000 OA
BRANCH  10  12
ATOM     12  O   UNL     1       6.314   3.848  18.539  0.00  0.00    +0.000 OA
ATOM     13  H   UNL     1       6.709   2.959  18.614  0.00  0.00    +0.000 HD
ENDBRANCH  10  12
BRANCH  10  14
ATOM     14  O   UNL     1       5.737   3.383  16.158  0.00  0.00    +0.000 OA
ATOM     15  H   UNL     1       5.128   2.845  16.695  0.00  0.00    +0.000 HD
ENDBRANCH  10  14
ENDBRANCH   9  10
ENDBRANCH   1   9
TORSDOF 7
ENDMDL
MODEL 7
REMARK VINA RESULT:      -4.7      0.908      1.551
REMARK  Name = 
REMARK  7 active torsions:
REMARK  status: ('A' for Active; 'I' for Inactive)
REMARK    1  A    between atoms: C_2  and  C_3
REMARK    2  A    between atoms: N_5  and  C_6
REMARK    3  A    between atoms: C_6  and  C_7
REMARK    4  A    between atoms: C_7  and  O_8
REMARK    5  A    between atoms: O_8  and  P_9
REMARK    6  A    between atoms: P_9  and  O_11
REMARK    7  A    between atoms: P_9  and  O_12
REMARK                            x       y       z     vdW  Elec       q    Type
REMARK                         _______ _______ _______ _____ _____    ______ ____
ROOT
ATOM      1  C   UNL     1       7.393   4.846  17.545  0.00  0.00    +0.000 C 
ENDROOT
BRANCH   1   2
ATOM      2  C   UNL     1       6.405   5.012  18.698  0.00  0.00    +0.000 C 
BRANCH   2   5
ATOM      3  O   UNL     1       3.595   4.794  18.686  0.00  0.00    +0.000 OA
ATOM      4  C   UNL     1       4.263   3.809  18.984  0.00  0.00    +0.000 C 
ATOM      5  N   UNL     1       5.644   3.802  18.958  0.00  0.00    +0.000 N 
ATOM      6  H   UNL     1       6.117   3.069  19.474  0.00  0.00    +0.000 HD
BRANCH   4   7
ATOM      7  C   UNL     1       3.633   2.475  19.335  0.00  0.00    +0.000 C 
ATOM      8  I   UNL     1       1.562   2.537  18.891  0.00  0.00    +0.000 I 
ENDBRANCH   4   7
ENDBRANCH   2   5
ENDBRANCH   1   2
BRANCH   1   9
ATOM      9  O   UNL     1       6.782   4.073  16.517  0.00  0.00    +0.000 OA
BRANCH   9  10
ATOM     10  P   UNL     1       6.676   4.715  15.058  0.00  0.00    +0.000 P 
ATOM     11  O   UNL     1       7.869   5.473  14.590  0.00  0.00    +0.000 OA
BRANCH  10  12
ATOM     12  O   UNL     1       6.326   3.500  14.087  0.00  0.00    +0.000 OA
ATOM     13  H   UNL     1       6.397   3.779  13.155  0.00  0.00    +0.000 HD
ENDBRANCH  10  12
BRANCH  10  14
ATOM     14  O   UNL     1       5.341   5.586  15.035  0.00  0.00    +0.000 OA
ATOM     15  H   UNL     1       5.484   6.425  14.563  0.00  0.00    +0.000 HD
ENDBRANCH  10  14
ENDBRANCH   9  10
ENDBRANCH   1   9
TORSDOF 7
ENDMDL
MODEL 8
REMARK VINA RESULT:      -4.7      2.043      2.522
REMARK  Name = 
REMARK  7 active torsions:
REMARK  status: ('A' for Active; 'I' for Inactive)
REMARK    1  A    between atoms: C_2  and  C_3
REMARK    2  A    between atoms: N_5  and  C_6
REMARK    3  A    between atoms: C_6  and  C_7
REMARK    4  A    between atoms: C_7  and  O_8
REMARK    5  A    between atoms: O_8  and  P_9
REMARK    6  A    between atoms: P_9  and  O_11
REMARK    7  A    between atoms: P_9  and  O_12
REMARK                            x       y       z     vdW  Elec       q    Type
REMARK                         _______ _______ _______ _____ _____    ______ ____
ROOT
ATOM      1  C   UNL     1       4.425   4.659  17.192  0.00  0.00    +0.000 C 
ENDROOT
BRANCH   1   2
ATOM      2  C   UNL     1       3.432   5.544  17.942  0.00  0.00    +0.000 C 
BRANCH   2   5
ATOM      3  O   UNL     1       1.187   3.942  17.362  0.00  0.00    +0.000 OA
ATOM      4  C   UNL     1       1.524   4.087  18.534  0.00  0.00    +0.000 C 
ATOM      5  N   UNL     1       2.643   4.802  18.910  0.00  0.00    +0.000 N 
ATOM      6  H   UNL     1       2.699   5.111  19.874  0.00  0.00    +0.000 HD
BRANCH   4   7
ATOM      7  C   UNL     1       0.783   3.426  19.680  0.00  0.00    +0.000 C 
ATOM      8  I   UNL     1       2.139   3.028  21.258  0.00  0.00    +0.000 I 
ENDBRANCH   4   7
ENDBRANCH   2   5
ENDBRANCH   1   2
BRANCH   1   9
ATOM      9  O   UNL     1       5.749   5.074  17.509  0.00  0.00    +0.000 OA
BRANCH   9  10
ATOM     10  P   UNL     1       6.905   4.769  16.449  0.00  0.00    +0.000 P 
ATOM     11  O   UNL     1       6.507   3.967  15.261  0.00  0.00    +0.000 OA
BRANCH  10  12
ATOM     12  O   UNL     1       7.485   6.195  16.037  0.00  0.00    +0.000 OA
ATOM     13  H   UNL     1       8.460   6.193  16.087  0.00  0.00    +0.000 HD
ENDBRANCH  10  12
BRANCH  10  14
ATOM     14  O   UNL     1       8.111   4.115  17.262  0.00  0.00    +0.000 OA
ATOM     15  H   UNL     1       8.319   4.640  18.055  0.00  0.00    +0.000 HD
ENDBRANCH  10  14
ENDBRANCH   9  10
ENDBRANCH   1   9
TORSDOF 7
ENDMDL
MODEL 9
REMARK VINA RESULT:      -4.7      1.835      2.632
REMARK  Name = 
REMARK  7 active torsions:
REMARK  status: ('A' for Active; 'I' for Inactive)
REMARK    1  A    between atoms: C_2  and  C_3
REMARK    2  A    between atoms: N_5  and  C_6
REMARK    3  A    between atoms: C_6  and  C_7
REMARK    4  A    between atoms: C_7  and  O_8
REMARK    5  A    between atoms: O_8  and  P_9
REMARK    6  A    between atoms: P_9  and  O_11
REMARK    7  A    between atoms: P_9  and  O_12
REMARK                            x       y       z     vdW  Elec       q    Type
REMARK                         _______ _______ _______ _____ _____    ______ ____
ROOT
ATOM      1  C   UNL     1       4.795   4.566  17.837  0.00  0.00    +0.000 C 
ENDROOT
BRANCH   1   2
ATOM      2  C   UNL     1       3.965   3.471  17.170  0.00  0.00    +0.000 C 
BRANCH   2   5
ATOM      3  O   UNL     1       1.232   4.123  17.393  0.00  0.00    +0.000 OA
ATOM      4  C   UNL     1       1.704   3.286  18.156  0.00  0.00    +0.000 C 
ATOM      5  N   UNL     1       3.015   2.858  18.083  0.00  0.00    +0.000 N 
ATOM      6  H   UNL     1       3.401   2.394  18.897  0.00  0.00    +0.000 HD
BRANCH   4   7
ATOM      7  C   UNL     1       0.869   2.580  19.207  0.00  0.00    +0.000 C 
ATOM      8  I   UNL     1       1.687   2.955  21.124  0.00  0.00    +0.000 I 
ENDBRANCH   4   7
ENDBRANCH   2   5
ENDBRANCH   1   2
BRANCH   1   9
ATOM      9  O   UNL     1       5.414   5.358  16.829  0.00  0.00    +0.000 OA
BRANCH   9  10
ATOM     10  P   UNL     1       7.009   5.347  16.739  0.00  0.00    +0.000 P 
ATOM     11  O   UNL     1       7.679   6.670  16.870  0.00  0.00    +0.000 OA
BRANCH  10  12
ATOM     12  O   UNL     1       7.487   4.324  17.863  0.00  0.00    +0.000 OA
ATOM     13  H   UNL     1       8.436   4.122  17.757  0.00  0.00    +0.000 HD
ENDBRANCH  10  12
BRANCH  10  14
ATOM     14  O   UNL     1       7.387   4.593  15.386  0.00  0.00    +0.000 OA
ATOM     15  H   UNL     1       7.541   5.231  14.667  0.00  0.00    +0.000 HD
ENDBRANCH  10  14
ENDBRANCH   9  10
ENDBRANCH   1   9
TORSDOF 7
ENDMDL
