MODEL 1
REMARK VINA RESULT:      -7.3      0.000      0.000
REMARK  Name = 
REMARK  4 active torsions:
REMARK  status: ('A' for Active; 'I' for Inactive)
REMARK    1  A    between atoms: C_2  and  C_16
REMARK    2  A    between atoms: N_3  and  C_4
REMARK    3  A    between atoms: C_4  and  C_5
REMARK    4  A    between atoms: C_5  and  C_6
REMARK                            x       y       z     vdW  Elec       q    Type
REMARK                         _______ _______ _______ _____ _____    ______ ____
ROOT
ATOM      1  C   UNL     1       7.427   4.755  17.855  0.00  0.00    +0.000 C 
ENDROOT
BRANCH   1   4
ATOM      2  O   UNL     1       5.478   3.649  16.138  0.00  0.00    +0.000 OA
ATOM      3  C   UNL     1       6.486   4.148  15.651  0.00  0.00    +0.000 C 
ATOM      4  N   UNL     1       7.488   4.725  16.406  0.00  0.00    +0.000 N 
ATOM      5  H   UNL     1       8.188   5.293  15.950  0.00  0.00    +0.000 HD
BRANCH   3   6
ATOM      6  C   UNL     1       6.671   4.198  14.173  0.00  0.00    +0.000 A 
ATOM      7  C   UNL     1       7.569   5.131  13.641  0.00  0.00    +0.000 A 
ATOM      8  C   UNL     1       7.779   5.194  12.262  0.00  0.00    +0.000 A 
ATOM      9  C   UNL     1       7.084   4.337  11.410  0.00  0.00    +0.000 A 
ATOM     10  C   UNL     1       6.170   3.422  11.932  0.00  0.00    +0.000 A 
ATOM     11  C   UNL     1       5.957   3.354  13.310  0.00  0.00    +0.000 A 
ENDBRANCH   3   6
ENDBRANCH   1   4
BRANCH   1  12
ATOM     12  C   UNL     1       6.808   6.045  18.393  0.00  0.00    +0.000 C 
BRANCH  12  13
ATOM     13  C   UNL     1       5.322   5.926  18.498  0.00  0.00    +0.000 A 
ATOM     14  C   UNL     1       4.396   6.688  17.810  0.00  0.00    +0.000 A 
ATOM     15  S   UNL     1       2.808   6.149  18.163  0.00  0.00    +0.000 S 
ATOM     16  C   UNL     1       3.463   4.977  19.213  0.00  0.00    +0.000 A 
ATOM     17  N   UNL     1       2.616   4.099  19.902  0.00  0.00    +0.000 N 
ATOM     18  C   UNL     1       2.969   3.145  20.836  0.00  0.00    +0.000 A 
ATOM     19  C   UNL     1       1.814   2.507  21.221  0.00  0.00    +0.000 A 
ATOM     20  C   UNL     1       0.804   3.129  20.469  0.00  0.00    +0.000 A 
ATOM     21  N   UNL     1       1.271   4.097  19.681  0.00  0.00    +0.000 NA
ATOM     22  N   UNL     1       4.778   4.951  19.325  0.00  0.00    +0.000 NA
ENDBRANCH  12  13
ENDBRANCH   1  12
TORSDOF 4
ENDMDL
MODEL 2
REMARK VINA RESULT:      -7.3      0.148      1.066
REMARK  Name = 
REMARK  4 active torsions:
REMARK  status: ('A' for Active; 'I' for Inactive)
REMARK    1  A    between atoms: C_2  and  C_16
REMARK    2  A    between atoms: N_3  and  C_4
REMARK    3  A    between atoms: C_4  and  C_5
REMARK    4  A    between atoms: C_5  and  C_6
REMARK                            x       y       z     vdW  Elec       q    Type
REMARK                         _______ _______ _______ _____ _____    ______ ____
ROOT
ATOM      1  C   UNL     1       7.461   4.736  17.990  0.00  0.00    +0.000 C 
ENDROOT
BRANCH   1   4
ATOM      2  O   UNL     1       5.569   3.614  16.220  0.00  0.00    +0.000 OA
ATOM      3  C   UNL     1       6.562   4.164  15.759  0.00  0.00    +0.000 C 
ATOM      4  N   UNL     1       7.536   4.754  16.542  0.00  0.00    +0.000 N 
ATOM      5  H   UNL     1       8.218   5.361  16.110  0.00  0.00    +0.000 HD
BRANCH   3   6
ATOM      6  C   UNL     1       6.758   4.268  14.285  0.00  0.00    +0.000 A 
ATOM      7  C   UNL     1       6.043   3.400  13.452  0.00  0.00    +0.000 A 
ATOM      8  C   UNL     1       6.189   3.481  12.065  0.00  0.00    +0.000 A 
ATOM      9  C   UNL     1       7.060   4.417  11.508  0.00  0.00    +0.000 A 
ATOM     10  C   UNL     1       7.793   5.269  12.335  0.00  0.00    +0.000 A 
ATOM     11  C   UNL     1       7.649   5.193  13.722  0.00  0.00    +0.000 A 
ENDBRANCH   3   6
ENDBRANCH   1   4
BRANCH   1  12
ATOM     12  C   UNL     1       6.816   5.997  18.563  0.00  0.00    +0.000 C 
BRANCH  12  13
ATOM     13  C   UNL     1       5.329   5.868  18.609  0.00  0.00    +0.000 A 
ATOM     14  C   UNL     1       4.428   6.565  17.824  0.00  0.00    +0.000 A 
ATOM     15  S   UNL     1       2.831   6.035  18.143  0.00  0.00    +0.000 S 
ATOM     16  C   UNL     1       3.446   4.952  19.307  0.00  0.00    +0.000 A 
ATOM     17  N   UNL     1       2.576   4.118  20.020  0.00  0.00    +0.000 N 
ATOM     18  C   UNL     1       2.893   3.240  21.039  0.00  0.00    +0.000 A 
ATOM     19  C   UNL     1       1.727   2.619  21.417  0.00  0.00    +0.000 A 
ATOM     20  C   UNL     1       0.749   3.170  20.575  0.00  0.00    +0.000 A 
ATOM     21  N   UNL     1       1.243   4.083  19.738  0.00  0.00    +0.000 NA
ATOM     22  N   UNL     1       4.755   4.951  19.481  0.00  0.00    +0.000 NA
ENDBRANCH  12  13
ENDBRANCH   1  12
TORSDOF 4
ENDMDL
MODEL 3
REMARK VINA RESULT:      -7.3      0.918      1.373
REMARK  Name = 
REMARK  4 active torsions:
REMARK  status: ('A' for Active; 'I' for Inactive)
REMARK    1  A    between atoms: C_2  and  C_16
REMARK    2  A    between atoms: N_3  and  C_4
REMARK    3  A    between atoms: C_4  and  C_5
REMARK    4  A    between atoms: C_5  and  C_6
REMARK                            x       y       z     vdW  Elec       q    Type
REMARK                         _______ _______ _______ _____ _____    ______ ____
ROOT
ATOM      1  C   UNL     1       7.446   4.615  17.931  0.00  0.00    +0.000 C 
ENDROOT
BRANCH   1   4
ATOM      2  O   UNL     1       7.737   6.087  15.540  0.00  0.00    +0.000 OA
ATOM      3  C   UNL     1       7.170   5.001  15.505  0.00  0.00    +0.000 C 
ATOM      4  N   UNL     1       6.992   4.201  16.617  0.00  0.00    +0.000 N 
ATOM      5  H   UNL     1       6.704   3.240  16.496  0.00  0.00    +0.000 HD
BRANCH   3   6
ATOM      6  C   UNL     1       6.667   4.447  14.216  0.00  0.00    +0.000 A 
ATOM      7  C   UNL     1       5.366   3.931  14.170  0.00  0.00    +0.000 A 
ATOM      8  C   UNL     1       4.857   3.420  12.975  0.00  0.00    +0.000 A 
ATOM      9  C   UNL     1       5.648   3.410  11.826  0.00  0.00    +0.000 A 
ATOM     10  C   UNL     1       6.953   3.901  11.871  0.00  0.00    +0.000 A 
ATOM     11  C   UNL     1       7.466   4.414  13.064  0.00  0.00    +0.000 A 
ENDBRANCH   3   6
ENDBRANCH   1   4
BRANCH   1  12
ATOM     12  C   UNL     1       6.812   5.929  18.387  0.00  0.00    +0.000 C 
BRANCH  12  13
ATOM     13  C   UNL     1       5.325   5.811  18.466  0.00  0.00    +0.000 A 
ATOM     14  C   UNL     1       4.412   6.530  17.716  0.00  0.00    +0.000 A 
ATOM     15  S   UNL     1       2.818   6.006  18.064  0.00  0.00    +0.000 S 
ATOM     16  C   UNL     1       3.453   4.897  19.192  0.00  0.00    +0.000 A 
ATOM     17  N   UNL     1       2.593   4.058  19.912  0.00  0.00    +0.000 N 
ATOM     18  C   UNL     1       2.927   3.159  20.906  0.00  0.00    +0.000 A 
ATOM     19  C   UNL     1       1.765   2.540  21.301  0.00  0.00    +0.000 A 
ATOM     20  C   UNL     1       0.771   3.114  20.494  0.00  0.00    +0.000 A 
ATOM     21  N   UNL     1       1.253   4.038  19.661  0.00  0.00    +0.000 NA
ATOM     22  N   UNL     1       4.765   4.883  19.335  0.00  0.00    +0.000 NA
ENDBRANCH  12  13
ENDBRANCH   1  12
TORSDOF 4
ENDMDL
MODEL 4
REMARK VINA RESULT:      -7.3      3.620      5.576
REMARK  Name = 
REMARK  4 active torsions:
REMARK  status: ('A' for Active; 'I' for Inactive)
REMARK    1  A    between atoms: C_2  and  C_16
REMARK    2  A    between atoms: N_3  and  C_4
REMARK    3  A    between atoms: C_4  and  C_5
REMARK    4  A    between atoms: C_5  and  C_6
REMARK                            x       y       z     vdW  Elec       q    Type
REMARK                         _______ _______ _______ _____ _____    ______ ____
ROOT
ATOM      1  C   UNL     1       8.063   6.088  18.588  0.00  0.00    +0.000 C 
ENDROOT
BRANCH   1   4
ATOM      2  O   UNL     1       7.395   8.338  17.019  0.00  0.00    +0.000 OA
ATOM      3  C   UNL     1       8.116   8.488  17.998  0.00  0.00    +0.000 C 
ATOM      4  N   UNL     1       8.487   7.453  18.835  0.00  0.00    +0.000 N 
ATOM      5  H   UNL     1       8.908   7.664  19.728  0.00  0.00    +0.000 HD
BRANCH   3   6
ATOM      6  C   UNL     1       8.611   9.842  18.376  0.00  0.00    +0.000 A 
ATOM      7  C   UNL     1       9.348   9.980  19.558  0.00  0.00    +0.000 A 
ATOM      8  C   UNL     1       9.841  11.231  19.935  0.00  0.00    +0.000 A 
ATOM      9  C   UNL     1       9.590  12.349  19.140  0.00  0.00    +0.000 A 
ATOM     10  C   UNL     1       8.836  12.222  17.973  0.00  0.00    +0.000 A 
ATOM     11  C   UNL     1       8.341  10.973  17.592  0.00  0.00    +0.000 A 
ENDBRANCH   3   6
ENDBRANCH   1   4
BRANCH   1  12
ATOM     12  C   UNL     1       6.941   5.640  19.524  0.00  0.00    +0.000 C 
BRANCH  12  13
ATOM     13  C   UNL     1       5.846   4.964  18.766  0.00  0.00    +0.000 A 
ATOM     14  C   UNL     1       5.895   4.578  17.439  0.00  0.00    +0.000 A 
ATOM     15  S   UNL     1       4.456   3.754  17.009  0.00  0.00    +0.000 S 
ATOM     16  C   UNL     1       3.871   3.995  18.592  0.00  0.00    +0.000 A 
ATOM     17  N   UNL     1       2.608   3.512  18.956  0.00  0.00    +0.000 N 
ATOM     18  C   UNL     1       1.955   3.678  20.162  0.00  0.00    +0.000 A 
ATOM     19  C   UNL     1       0.758   3.009  20.072  0.00  0.00    +0.000 A 
ATOM     20  C   UNL     1       0.763   2.457  18.781  0.00  0.00    +0.000 A 
ATOM     21  N   UNL     1       1.864   2.762  18.094  0.00  0.00    +0.000 NA
ATOM     22  N   UNL     1       4.664   4.645  19.423  0.00  0.00    +0.000 NA
ENDBRANCH  12  13
ENDBRANCH   1  12
TORSDOF 4
ENDMDL
MODEL 5
REMARK VINA RESULT:      -7.2      2.887      7.205
REMARK  Name = 
REMARK  4 active torsions:
REMARK  status: ('A' for Active; 'I' for Inactive)
REMARK    1  A    between atoms: C_2  and  C_16
REMARK    2  A    between atoms: N_3  and  C_4
REMARK    3  A    between atoms: C_4  and  C_5
REMARK    4  A    between atoms: C_5  and  C_6
REMARK                            x       y       z     vdW  Elec       q    Type
REMARK                         _______ _______ _______ _____ _____    ______ ____
ROOT
ATOM      1  C   UNL     1       3.147   3.907  18.952  0.00  0.00    +0.000 C 
ENDROOT
BRANCH   1   4
ATOM      2  O   UNL     1       2.242   5.707  20.929  0.00  0.00    +0.000 OA
ATOM      3  C   UNL     1       2.332   6.093  19.769  0.00  0.00    +0.000 C 
ATOM      4  N   UNL     1       2.777   5.292  18.735  0.00  0.00    +0.000 N 
ATOM      5  H   UNL     1       3.020   5.715  17.851  0.00  0.00    +0.000 HD
BRANCH   3   6
ATOM      6  C   UNL     1       1.996   7.499  19.408  0.00  0.00    +0.000 A 
ATOM      7  C   UNL     1       2.427   7.995  18.172  0.00  0.00    +0.000 A 
ATOM      8  C   UNL     1       2.117   9.303  17.795  0.00  0.00    +0.000 A 
ATOM      9  C   UNL     1       1.388  10.124  18.655  0.00  0.00    +0.000 A 
ATOM     10  C   UNL     1       0.976   9.643  19.898  0.00  0.00    +0.000 A 
ATOM     11  C   UNL     1       1.284   8.336  20.280  0.00  0.00    +0.000 A 
ENDBRANCH   3   6
ENDBRANCH   1   4
BRANCH   1  12
ATOM     12  C   UNL     1       4.627   3.739  19.295  0.00  0.00    +0.000 C 
BRANCH  12  13
ATOM     13  C   UNL     1       5.490   4.501  18.343  0.00  0.00    +0.000 A 
ATOM     14  C   UNL     1       6.332   5.549  18.670  0.00  0.00    +0.000 A 
ATOM     15  S   UNL     1       7.201   6.064  17.286  0.00  0.00    +0.000 S 
ATOM     16  C   UNL     1       6.381   4.889  16.362  0.00  0.00    +0.000 A 
ATOM     17  N   UNL     1       6.652   4.755  14.994  0.00  0.00    +0.000 N 
ATOM     18  C   UNL     1       6.037   3.912  14.089  0.00  0.00    +0.000 A 
ATOM     19  C   UNL     1       6.648   4.105  12.874  0.00  0.00    +0.000 A 
ATOM     20  C   UNL     1       7.629   5.077  13.126  0.00  0.00    +0.000 A 
ATOM     21  N   UNL     1       7.635   5.486  14.396  0.00  0.00    +0.000 NA
ATOM     22  N   UNL     1       5.506   4.137  17.003  0.00  0.00    +0.000 NA
ENDBRANCH  12  13
ENDBRANCH   1  12
TORSDOF 4
ENDMDL
MODEL 6
REMARK VINA RESULT:      -7.1      4.585      6.531
REMARK  Name = 
REMARK  4 active torsions:
REMARK  status: ('A' for Active; 'I' for Inactive)
REMARK    1  A    between atoms: C_2  and  C_16
REMARK    2  A    between atoms: N_3  and  C_4
REMARK    3  A    between atoms: C_4  and  C_5
REMARK    4  A    between atoms: C_5  and  C_6
REMARK                            x       y       z     vdW  Elec       q    Type
REMARK                         _______ _______ _______ _____ _____    ______ ____
ROOT
ATOM      1  C   UNL     1       7.593   7.968  17.728  0.00  0.00    +0.000 C 
ENDROOT
BRANCH   1   4
ATOM      2  O   UNL     1       7.811  10.763  17.399  0.00  0.00    +0.000 OA
ATOM      3  C   UNL     1       8.629  10.180  18.100  0.00  0.00    +0.000 C 
ATOM      4  N   UNL     1       8.599   8.819  18.333  0.00  0.00    +0.000 N 
ATOM      5  H   UNL     1       9.168   8.429  19.071  0.00  0.00    +0.000 HD
BRANCH   3   6
ATOM      6  C   UNL     1       9.709  10.937  18.795  0.00  0.00    +0.000 A 
ATOM      7  C   UNL     1      10.814  11.366  18.050  0.00  0.00    +0.000 A 
ATOM      8  C   UNL     1      11.836  12.091  18.665  0.00  0.00    +0.000 A 
ATOM      9  C   UNL     1      11.765  12.378  20.028  0.00  0.00    +0.000 A 
ATOM     10  C   UNL     1      10.679  11.933  20.781  0.00  0.00    +0.000 A 
ATOM     11  C   UNL     1       9.654  11.208  20.170  0.00  0.00    +0.000 A 
ENDBRANCH   3   6
ENDBRANCH   1   4
BRANCH   1  12
ATOM     12  C   UNL     1       7.620   6.541  18.276  0.00  0.00    +0.000 C 
BRANCH  12  13
ATOM     13  C   UNL     1       6.515   5.721  17.695  0.00  0.00    +0.000 A 
ATOM     14  C   UNL     1       6.543   5.064  16.478  0.00  0.00    +0.000 A 
ATOM     15  S   UNL     1       5.100   4.169  16.255  0.00  0.00    +0.000 S 
ATOM     16  C   UNL     1       4.540   4.738  17.761  0.00  0.00    +0.000 A 
ATOM     17  N   UNL     1       3.284   4.343  18.240  0.00  0.00    +0.000 N 
ATOM     18  C   UNL     1       2.651   4.760  19.394  0.00  0.00    +0.000 A 
ATOM     19  C   UNL     1       1.455   4.087  19.467  0.00  0.00    +0.000 A 
ATOM     20  C   UNL     1       1.440   3.276  18.321  0.00  0.00    +0.000 A 
ATOM     21  N   UNL     1       2.529   3.429  17.567  0.00  0.00    +0.000 NA
ATOM     22  N   UNL     1       5.345   5.548  18.424  0.00  0.00    +0.000 NA
ENDBRANCH  12  13
ENDBRANCH   1  12
TORSDOF 4
ENDMDL
MODEL 7
REMARK VINA RESULT:      -7.1      4.758      6.649
REMARK  Name = 
REMARK  4 active torsions:
REMARK  status: ('A' for Active; 'I' for Inactive)
REMARK    1  A    between atoms: C_2  and  C_16
REMARK    2  A    between atoms: N_3  and  C_4
REMARK    3  A    between atoms: C_4  and  C_5
REMARK    4  A    between atoms: C_5  and  C_6
REMARK                            x       y       z     vdW  Elec       q    Type
REMARK                         _______ _______ _______ _____ _____    ______ ____
ROOT
ATOM      1  C   UNL     1       7.705   8.107  17.862  0.00  0.00    +0.000 C 
ENDROOT
BRANCH   1   4
ATOM      2  O   UNL     1       7.880  10.894  17.453  0.00  0.00    +0.000 OA
ATOM      3  C   UNL     1       8.760  10.330  18.093  0.00  0.00    +0.000 C 
ATOM      4  N   UNL     1       8.756   8.974  18.358  0.00  0.00    +0.000 N 
ATOM      5  H   UNL     1       9.388   8.603  19.051  0.00  0.00    +0.000 HD
BRANCH   3   6
ATOM      6  C   UNL     1       9.893  11.104  18.673  0.00  0.00    +0.000 A 
ATOM      7  C   UNL     1       9.927  11.306  20.058  0.00  0.00    +0.000 A 
ATOM      8  C   UNL     1      10.982  12.013  20.638  0.00  0.00    +0.000 A 
ATOM      9  C   UNL     1      11.998  12.533  19.836  0.00  0.00    +0.000 A 
ATOM     10  C   UNL     1      11.957  12.356  18.452  0.00  0.00    +0.000 A 
ATOM     11  C   UNL     1      10.904  11.649  17.869  0.00  0.00    +0.000 A 
ENDBRANCH   3   6
ENDBRANCH   1   4
BRANCH   1  12
ATOM     12  C   UNL     1       7.801   6.685  18.417  0.00  0.00    +0.000 C 
BRANCH  12  13
ATOM     13  C   UNL     1       6.777   5.794  17.795  0.00  0.00    +0.000 A 
ATOM     14  C   UNL     1       6.651   5.521  16.445  0.00  0.00    +0.000 A 
ATOM     15  S   UNL     1       5.403   4.375  16.187  0.00  0.00    +0.000 S 
ATOM     16  C   UNL     1       5.108   4.352  17.866  0.00  0.00    +0.000 A 
ATOM     17  N   UNL     1       4.104   3.530  18.392  0.00  0.00    +0.000 N 
ATOM     18  C   UNL     1       3.688   3.440  19.706  0.00  0.00    +0.000 A 
ATOM     19  C   UNL     1       2.700   2.485  19.755  0.00  0.00    +0.000 A 
ATOM     20  C   UNL     1       2.580   2.038  18.430  0.00  0.00    +0.000 A 
ATOM     21  N   UNL     1       3.410   2.667  17.597  0.00  0.00    +0.000 NA
ATOM     22  N   UNL     1       5.868   5.133  18.611  0.00  0.00    +0.000 NA
ENDBRANCH  12  13
ENDBRANCH   1  12
TORSDOF 4
ENDMDL
MODEL 8
REMARK VINA RESULT:      -7.1      2.286      3.342
REMARK  Name = 
REMARK  4 active torsions:
REMARK  status: ('A' for Active; 'I' for Inactive)
REMARK    1  A    between atoms: C_2  and  C_16
REMARK    2  A    between atoms: N_3  and  C_4
REMARK    3  A    between atoms: C_4  and  C_5
REMARK    4  A    between atoms: C_5  and  C_6
REMARK                            x       y       z     vdW  Elec       q    Type
REMARK                         _______ _______ _______ _____ _____    ______ ____
ROOT
ATOM      1  C   UNL     1       6.070   4.579  18.282  0.00  0.00    +0.000 C 
ENDROOT
BRANCH   1   4
ATOM      2  O   UNL     1       5.993   6.411  16.136  0.00  0.00    +0.000 OA
ATOM      3  C   UNL     1       6.185   5.224  15.899  0.00  0.00    +0.000 C 
ATOM      4  N   UNL     1       6.253   4.255  16.881  0.00  0.00    +0.000 N 
ATOM      5  H   UNL     1       6.610   3.339  16.649  0.00  0.00    +0.000 HD
BRANCH   3   6
ATOM      6  C   UNL     1       6.404   4.754  14.502  0.00  0.00    +0.000 A 
ATOM      7  C   UNL     1       7.513   5.237  13.798  0.00  0.00    +0.000 A 
ATOM      8  C   UNL     1       7.758   4.805  12.493  0.00  0.00    +0.000 A 
ATOM      9  C   UNL     1       6.888   3.902  11.882  0.00  0.00    +0.000 A 
ATOM     10  C   UNL     1       5.767   3.436  12.569  0.00  0.00    +0.000 A 
ATOM     11  C   UNL     1       5.519   3.864  13.875  0.00  0.00    +0.000 A 
ENDBRANCH   3   6
ENDBRANCH   1   4
BRANCH   1  12
ATOM     12  C   UNL     1       4.956   3.762  18.937  0.00  0.00    +0.000 C 
BRANCH  12  13
ATOM     13  C   UNL     1       3.833   4.641  19.379  0.00  0.00    +0.000 A 
ATOM     14  C   UNL     1       2.953   4.378  20.413  0.00  0.00    +0.000 A 
ATOM     15  S   UNL     1       1.885   5.699  20.632  0.00  0.00    +0.000 S 
ATOM     16  C   UNL     1       2.644   6.500  19.332  0.00  0.00    +0.000 A 
ATOM     17  N   UNL     1       2.210   7.773  18.941  0.00  0.00    +0.000 N 
ATOM     18  C   UNL     1       2.660   8.528  17.876  0.00  0.00    +0.000 A 
ATOM     19  C   UNL     1       1.968   9.715  17.898  0.00  0.00    +0.000 A 
ATOM     20  C   UNL     1       1.121   9.605  19.012  0.00  0.00    +0.000 A 
ATOM     21  N   UNL     1       1.247   8.436  19.642  0.00  0.00    +0.000 NA
ATOM     22  N   UNL     1       3.636   5.860  18.742  0.00  0.00    +0.000 NA
ENDBRANCH  12  13
ENDBRANCH   1  12
TORSDOF 4
ENDMDL
MODEL 9
REMARK VINA RESULT:      -7.1      1.594      1.829
REMARK  Name = 
REMARK  4 active torsions:
REMARK  status: ('A' for Active; 'I' for Inactive)
REMARK    1  A    between atoms: C_2  and  C_16
REMARK    2  A    between atoms: N_3  and  C_4
REMARK    3  A    between atoms: C_4  and  C_5
REMARK    4  A    between atoms: C_5  and  C_6
REMARK                            x       y       z     vdW  Elec       q    Type
REMARK                         _______ _______ _______ _____ _____    ______ ____
ROOT
ATOM      1  C   UNL     1       7.141   5.324  16.765  0.00  0.00    +0.000 C 
ENDROOT
BRANCH   1   4
ATOM      2  O   UNL     1       7.971   5.602  14.082  0.00  0.00    +0.000 OA
ATOM      3  C   UNL     1       7.057   4.829  14.345  0.00  0.00    +0.000 C 
ATOM      4  N   UNL     1       6.590   4.614  15.627  0.00  0.00    +0.000 N 
ATOM      5  H   UNL     1       5.982   3.828  15.808  0.00  0.00    +0.000 HD
BRANCH   3   6
ATOM      6  C   UNL     1       6.410   4.024  13.271  0.00  0.00    +0.000 A 
ATOM      7  C   UNL     1       7.225   3.314  12.382  0.00  0.00    +0.000 A 
ATOM      8  C   UNL     1       6.652   2.536  11.374  0.00  0.00    +0.000 A 
ATOM      9  C   UNL     1       5.265   2.476  11.242  0.00  0.00    +0.000 A 
ATOM     10  C   UNL     1       4.448   3.201  12.110  0.00  0.00    +0.000 A 
ATOM     11  C   UNL     1       5.016   3.979  13.120  0.00  0.00    +0.000 A 
ENDBRANCH   3   6
ENDBRANCH   1   4
BRANCH   1  12
ATOM     12  C   UNL     1       6.402   6.629  17.061  0.00  0.00    +0.000 C 
BRANCH  12  13
ATOM     13  C   UNL     1       5.002   6.365  17.508  0.00  0.00    +0.000 A 
ATOM     14  C   UNL     1       3.989   7.303  17.605  0.00  0.00    +0.000 A 
ATOM     15  S   UNL     1       2.524   6.546  18.067  0.00  0.00    +0.000 S 
ATOM     16  C   UNL     1       3.342   5.051  18.131  0.00  0.00    +0.000 A 
ATOM     17  N   UNL     1       2.649   3.885  18.481  0.00  0.00    +0.000 N 
ATOM     18  C   UNL     1       3.165   2.615  18.649  0.00  0.00    +0.000 A 
ATOM     19  C   UNL     1       2.113   1.788  18.963  0.00  0.00    +0.000 A 
ATOM     20  C   UNL     1       0.992   2.632  18.960  0.00  0.00    +0.000 A 
ATOM     21  N   UNL     1       1.301   3.900  18.684  0.00  0.00    +0.000 NA
ATOM     22  N   UNL     1       4.628   5.068  17.834  0.00  0.00    +0.000 NA
ENDBRANCH  12  13
ENDBRANCH   1  12
TORSDOF 4
ENDMDL
