MODEL 1
REMARK VINA RESULT:      -8.5      0.000      0.000
REMARK  Name = 
REMARK  4 active torsions:
REMARK  status: ('A' for Active; 'I' for Inactive)
REMARK    1  A    between atoms: C_1  and  C_2
REMARK    2  A    between atoms: C_4  and  O_5
REMARK    3  A    between atoms: O_5  and  C_6
REMARK    4  A    between atoms: C_17  and  C_18
REMARK                            x       y       z     vdW  Elec       q    Type
REMARK                         _______ _______ _______ _____ _____    ______ ____
ROOT
ATOM      1  C   UNL     1       0.839   8.389  21.268  0.00  0.00    +0.000 C 
ATOM      2  C   UNL     1       1.578   8.109  19.986  0.00  0.00    +0.000 A 
ATOM      3  C   UNL     1       2.274   6.896  19.842  0.00  0.00    +0.000 A 
ATOM      4  C   UNL     1       2.974   6.601  18.666  0.00  0.00    +0.000 A 
ATOM      5  C   UNL     1       2.941   7.507  17.604  0.00  0.00    +0.000 A 
ATOM      6  C   UNL     1       2.272   8.724  17.742  0.00  0.00    +0.000 A 
ATOM      7  C   UNL     1       1.591   9.037  18.926  0.00  0.00    +0.000 A 
ENDROOT
BRANCH   7   8
ATOM      8  C   UNL     1       0.887  10.327  18.996  0.00  0.00    +0.000 A 
ATOM      9  C   UNL     1       1.442  11.365  19.662  0.00  0.00    +0.000 A 
ATOM     10  N   UNL     1       0.855  12.615  19.809  0.00  0.00    +0.000 NA
ATOM     11  C   UNL     1      -0.315  12.800  19.258  0.00  0.00    +0.000 A 
ATOM     12  C   UNL     1      -0.975  11.760  18.520  0.00  0.00    +0.000 A 
ATOM     13  N   UNL     1      -2.133  11.807  17.901  0.00  0.00    +0.000 NA
ATOM     14  C   UNL     1      -2.280  10.550  17.367  0.00  0.00    +0.000 A 
ATOM     15  C   UNL     1      -1.202   9.746  17.676  0.00  0.00    +0.000 A 
ATOM     16  N   UNL     1      -0.358  10.539  18.410  0.00  0.00    +0.000 N 
ENDBRANCH   7   8
BRANCH   4  17
ATOM     17  O   UNL     1       3.586   5.368  18.605  0.00  0.00    +0.000 OA
BRANCH  17  18
ATOM     18  C   UNL     1       4.970   5.315  18.482  0.00  0.00    +0.000 A 
ATOM     19  N   UNL     1       5.761   5.576  19.560  0.00  0.00    +0.000 NA
ATOM     20  C   UNL     1       7.102   5.534  19.421  0.00  0.00    +0.000 A 
ATOM     21  C   UNL     1       7.770   5.206  18.252  0.00  0.00    +0.000 A 
ATOM     22  C   UNL     1       6.950   4.902  17.170  0.00  0.00    +0.000 A 
ATOM     23  N   UNL     1       7.272   4.526  15.883  0.00  0.00    +0.000 N 
ATOM     24  C   UNL     1       6.132   4.328  15.152  0.00  0.00    +0.000 A 
ATOM     25  C   UNL     1       5.055   4.579  15.972  0.00  0.00    +0.000 A 
ATOM     26  C   UNL     1       5.556   4.942  17.258  0.00  0.00    +0.000 A 
ATOM     27  H   UNL     1       8.215   4.416  15.535  0.00  0.00    +0.000 HD
ENDBRANCH  17  18
ENDBRANCH   4  17
TORSDOF 3
ENDMDL
MODEL 2
REMARK VINA RESULT:      -8.4      1.698      2.309
REMARK  Name = 
REMARK  4 active torsions:
REMARK  status: ('A' for Active; 'I' for Inactive)
REMARK    1  A    between atoms: C_1  and  C_2
REMARK    2  A    between atoms: C_4  and  O_5
REMARK    3  A    between atoms: O_5  and  C_6
REMARK    4  A    between atoms: C_17  and  C_18
REMARK                            x       y       z     vdW  Elec       q    Type
REMARK                         _______ _______ _______ _____ _____    ______ ____
ROOT
ATOM      1  C   UNL     1       0.068   9.429  21.491  0.00  0.00    +0.000 C 
ATOM      2  C   UNL     1       0.928   8.829  20.411  0.00  0.00    +0.000 A 
ATOM      3  C   UNL     1       1.619   7.631  20.665  0.00  0.00    +0.000 A 
ATOM      4  C   UNL     1       2.429   7.044  19.686  0.00  0.00    +0.000 A 
ATOM      5  C   UNL     1       2.516   7.635  18.425  0.00  0.00    +0.000 A 
ATOM      6  C   UNL     1       1.854   8.836  18.166  0.00  0.00    +0.000 A 
ATOM      7  C   UNL     1       1.061   9.442  19.150  0.00  0.00    +0.000 A 
ENDROOT
BRANCH   7   8
ATOM      8  C   UNL     1       0.371  10.695  18.803  0.00  0.00    +0.000 A 
ATOM      9  C   UNL     1       1.004  11.880  18.959  0.00  0.00    +0.000 A 
ATOM     10  N   UNL     1       0.440  13.120  18.686  0.00  0.00    +0.000 NA
ATOM     11  C   UNL     1      -0.788  13.137  18.240  0.00  0.00    +0.000 A 
ATOM     12  C   UNL     1      -1.534  11.929  18.031  0.00  0.00    +0.000 A 
ATOM     13  N   UNL     1      -2.758  11.793  17.574  0.00  0.00    +0.000 NA
ATOM     14  C   UNL     1      -2.969  10.435  17.577  0.00  0.00    +0.000 A 
ATOM     15  C   UNL     1      -1.862   9.757  18.045  0.00  0.00    +0.000 A 
ATOM     16  N   UNL     1      -0.935  10.729  18.324  0.00  0.00    +0.000 N 
ENDBRANCH   7   8
BRANCH   4  17
ATOM     17  O   UNL     1       3.027   5.847  20.018  0.00  0.00    +0.000 OA
BRANCH  17  18
ATOM     18  C   UNL     1       2.953   4.792  19.115  0.00  0.00    +0.000 A 
ATOM     19  N   UNL     1       1.815   4.050  19.024  0.00  0.00    +0.000 NA
ATOM     20  C   UNL     1       1.764   3.021  18.153  0.00  0.00    +0.000 A 
ATOM     21  C   UNL     1       2.785   2.660  17.288  0.00  0.00    +0.000 A 
ATOM     22  C   UNL     1       3.927   3.452  17.363  0.00  0.00    +0.000 A 
ATOM     23  N   UNL     1       5.107   3.387  16.652  0.00  0.00    +0.000 N 
ATOM     24  C   UNL     1       5.959   4.377  17.063  0.00  0.00    +0.000 A 
ATOM     25  C   UNL     1       5.327   5.093  18.055  0.00  0.00    +0.000 A 
ATOM     26  C   UNL     1       4.035   4.521  18.256  0.00  0.00    +0.000 A 
ATOM     27  H   UNL     1       5.308   2.705  15.932  0.00  0.00    +0.000 HD
ENDBRANCH  17  18
ENDBRANCH   4  17
TORSDOF 3
ENDMDL
MODEL 3
REMARK VINA RESULT:      -8.3      2.080      2.757
REMARK  Name = 
REMARK  4 active torsions:
REMARK  status: ('A' for Active; 'I' for Inactive)
REMARK    1  A    between atoms: C_1  and  C_2
REMARK    2  A    between atoms: C_4  and  O_5
REMARK    3  A    between atoms: O_5  and  C_6
REMARK    4  A    between atoms: C_17  and  C_18
REMARK                            x       y       z     vdW  Elec       q    Type
REMARK                         _______ _______ _______ _____ _____    ______ ____
ROOT
ATOM      1  C   UNL     1       0.049   9.575  21.566  0.00  0.00    +0.000 C 
ATOM      2  C   UNL     1       0.893   8.912  20.511  0.00  0.00    +0.000 A 
ATOM      3  C   UNL     1       1.566   7.715  20.817  0.00  0.00    +0.000 A 
ATOM      4  C   UNL     1       2.361   7.069  19.863  0.00  0.00    +0.000 A 
ATOM      5  C   UNL     1       2.451   7.600  18.575  0.00  0.00    +0.000 A 
ATOM      6  C   UNL     1       1.807   8.798  18.264  0.00  0.00    +0.000 A 
ATOM      7  C   UNL     1       1.029   9.462  19.222  0.00  0.00    +0.000 A 
ENDROOT
BRANCH   7   8
ATOM      8  C   UNL     1       0.358  10.709  18.820  0.00  0.00    +0.000 A 
ATOM      9  C   UNL     1       1.014  11.888  18.909  0.00  0.00    +0.000 A 
ATOM     10  N   UNL     1       0.469  13.123  18.580  0.00  0.00    +0.000 NA
ATOM     11  C   UNL     1      -0.764  13.141  18.148  0.00  0.00    +0.000 A 
ATOM     12  C   UNL     1      -1.534  11.938  18.008  0.00  0.00    +0.000 A 
ATOM     13  N   UNL     1      -2.766  11.802  17.574  0.00  0.00    +0.000 NA
ATOM     14  C   UNL     1      -3.002  10.450  17.647  0.00  0.00    +0.000 A 
ATOM     15  C   UNL     1      -1.902   9.776  18.136  0.00  0.00    +0.000 A 
ATOM     16  N   UNL     1      -0.954  10.743  18.355  0.00  0.00    +0.000 N 
ENDBRANCH   7   8
BRANCH   4  17
ATOM     17  O   UNL     1       2.941   5.880  20.247  0.00  0.00    +0.000 OA
BRANCH  17  18
ATOM     18  C   UNL     1       3.336   4.982  19.262  0.00  0.00    +0.000 A 
ATOM     19  N   UNL     1       4.528   5.150  18.624  0.00  0.00    +0.000 NA
ATOM     20  C   UNL     1       4.891   4.278  17.660  0.00  0.00    +0.000 A 
ATOM     21  C   UNL     1       4.154   3.170  17.272  0.00  0.00    +0.000 A 
ATOM     22  C   UNL     1       2.959   2.987  17.961  0.00  0.00    +0.000 A 
ATOM     23  N   UNL     1       2.004   2.000  17.845  0.00  0.00    +0.000 N 
ATOM     24  C   UNL     1       0.986   2.224  18.732  0.00  0.00    +0.000 A 
ATOM     25  C   UNL     1       1.281   3.371  19.433  0.00  0.00    +0.000 A 
ATOM     26  C   UNL     1       2.531   3.868  18.958  0.00  0.00    +0.000 A 
ATOM     27  H   UNL     1       2.053   1.225  17.196  0.00  0.00    +0.000 HD
ENDBRANCH  17  18
ENDBRANCH   4  17
TORSDOF 3
ENDMDL
MODEL 4
REMARK VINA RESULT:      -8.3      1.104      1.668
REMARK  Name = 
REMARK  4 active torsions:
REMARK  status: ('A' for Active; 'I' for Inactive)
REMARK    1  A    between atoms: C_1  and  C_2
REMARK    2  A    between atoms: C_4  and  O_5
REMARK    3  A    between atoms: O_5  and  C_6
REMARK    4  A    between atoms: C_17  and  C_18
REMARK                            x       y       z     vdW  Elec       q    Type
REMARK                         _______ _______ _______ _____ _____    ______ ____
ROOT
ATOM      1  C   UNL     1       2.233   9.640  17.725  0.00  0.00    +0.000 C 
ATOM      2  C   UNL     1       2.154   8.406  18.582  0.00  0.00    +0.000 A 
ATOM      3  C   UNL     1       2.817   7.236  18.169  0.00  0.00    +0.000 A 
ATOM      4  C   UNL     1       2.765   6.068  18.939  0.00  0.00    +0.000 A 
ATOM      5  C   UNL     1       2.082   6.079  20.156  0.00  0.00    +0.000 A 
ATOM      6  C   UNL     1       1.401   7.226  20.567  0.00  0.00    +0.000 A 
ATOM      7  C   UNL     1       1.428   8.391  19.789  0.00  0.00    +0.000 A 
ENDROOT
BRANCH   7   8
ATOM      8  C   UNL     1       0.708   9.572  20.293  0.00  0.00    +0.000 A 
ATOM      9  C   UNL     1       1.081  10.143  21.461  0.00  0.00    +0.000 A 
ATOM     10  N   UNL     1       0.458  11.243  22.037  0.00  0.00    +0.000 NA
ATOM     11  C   UNL     1      -0.557  11.763  21.400  0.00  0.00    +0.000 A 
ATOM     12  C   UNL     1      -1.015  11.232  20.147  0.00  0.00    +0.000 A 
ATOM     13  N   UNL     1      -2.001  11.659  19.391  0.00  0.00    +0.000 NA
ATOM     14  C   UNL     1      -2.003  10.796  18.322  0.00  0.00    +0.000 A 
ATOM     15  C   UNL     1      -1.013   9.842  18.447  0.00  0.00    +0.000 A 
ATOM     16  N   UNL     1      -0.372  10.139  19.623  0.00  0.00    +0.000 N 
ENDBRANCH   7   8
BRANCH   4  17
ATOM     17  O   UNL     1       3.485   4.989  18.471  0.00  0.00    +0.000 OA
BRANCH  17  18
ATOM     18  C   UNL     1       4.870   5.091  18.402  0.00  0.00    +0.000 A 
ATOM     19  N   UNL     1       5.586   5.413  19.515  0.00  0.00    +0.000 NA
ATOM     20  C   UNL     1       6.929   5.522  19.429  0.00  0.00    +0.000 A 
ATOM     21  C   UNL     1       7.673   5.293  18.283  0.00  0.00    +0.000 A 
ATOM     22  C   UNL     1       6.932   4.925  17.164  0.00  0.00    +0.000 A 
ATOM     23  N   UNL     1       7.342   4.614  15.885  0.00  0.00    +0.000 N 
ATOM     24  C   UNL     1       6.259   4.308  15.105  0.00  0.00    +0.000 A 
ATOM     25  C   UNL     1       5.131   4.422  15.886  0.00  0.00    +0.000 A 
ATOM     26  C   UNL     1       5.540   4.810  17.196  0.00  0.00    +0.000 A 
ATOM     27  H   UNL     1       8.304   4.614  15.572  0.00  0.00    +0.000 HD
ENDBRANCH  17  18
ENDBRANCH   4  17
TORSDOF 3
ENDMDL
MODEL 5
REMARK VINA RESULT:      -8.3      2.482      3.546
REMARK  Name = 
REMARK  4 active torsions:
REMARK  status: ('A' for Active; 'I' for Inactive)
REMARK    1  A    between atoms: C_1  and  C_2
REMARK    2  A    between atoms: C_4  and  O_5
REMARK    3  A    between atoms: O_5  and  C_6
REMARK    4  A    between atoms: C_17  and  C_18
REMARK                            x       y       z     vdW  Elec       q    Type
REMARK                         _______ _______ _______ _____ _____    ______ ____
ROOT
ATOM      1  C   UNL     1       0.106   8.954  21.746  0.00  0.00    +0.000 C 
ATOM      2  C   UNL     1       0.903   8.735  20.488  0.00  0.00    +0.000 A 
ATOM      3  C   UNL     1       1.811   7.663  20.424  0.00  0.00    +0.000 A 
ATOM      4  C   UNL     1       2.570   7.428  19.272  0.00  0.00    +0.000 A 
ATOM      5  C   UNL     1       2.390   8.244  18.155  0.00  0.00    +0.000 A 
ATOM      6  C   UNL     1       1.508   9.325  18.211  0.00  0.00    +0.000 A 
ATOM      7  C   UNL     1       0.763   9.581  19.370  0.00  0.00    +0.000 A 
ENDROOT
BRANCH   7   8
ATOM      8  C   UNL     1      -0.166  10.722  19.354  0.00  0.00    +0.000 A 
ATOM      9  C   UNL     1       0.151  11.860  20.012  0.00  0.00    +0.000 A 
ATOM     10  N   UNL     1      -0.661  12.986  20.081  0.00  0.00    +0.000 NA
ATOM     11  C   UNL     1      -1.808  12.940  19.459  0.00  0.00    +0.000 A 
ATOM     12  C   UNL     1      -2.224  11.779  18.724  0.00  0.00    +0.000 A 
ATOM     13  N   UNL     1      -3.331  11.598  18.040  0.00  0.00    +0.000 NA
ATOM     14  C   UNL     1      -3.214  10.322  17.543  0.00  0.00    +0.000 A 
ATOM     15  C   UNL     1      -2.030   9.736  17.941  0.00  0.00    +0.000 A 
ATOM     16  N   UNL     1      -1.390  10.689  18.693  0.00  0.00    +0.000 N 
ENDBRANCH   7   8
BRANCH   4  17
ATOM     17  O   UNL     1       3.398   6.326  19.294  0.00  0.00    +0.000 OA
BRANCH  17  18
ATOM     18  C   UNL     1       2.881   5.096  18.903  0.00  0.00    +0.000 A 
ATOM     19  N   UNL     1       2.887   4.740  17.589  0.00  0.00    +0.000 NA
ATOM     20  C   UNL     1       2.369   3.548  17.224  0.00  0.00    +0.000 A 
ATOM     21  C   UNL     1       1.847   2.608  18.097  0.00  0.00    +0.000 A 
ATOM     22  C   UNL     1       1.883   2.967  19.441  0.00  0.00    +0.000 A 
ATOM     23  N   UNL     1       1.469   2.279  20.561  0.00  0.00    +0.000 N 
ATOM     24  C   UNL     1       1.701   3.026  21.685  0.00  0.00    +0.000 A 
ATOM     25  C   UNL     1       2.272   4.215  21.291  0.00  0.00    +0.000 A 
ATOM     26  C   UNL     1       2.398   4.194  19.870  0.00  0.00    +0.000 A 
ATOM     27  H   UNL     1       1.054   1.357  20.549  0.00  0.00    +0.000 HD
ENDBRANCH  17  18
ENDBRANCH   4  17
TORSDOF 3
ENDMDL
MODEL 6
REMARK VINA RESULT:      -8.3      2.585      3.525
REMARK  Name = 
REMARK  4 active torsions:
REMARK  status: ('A' for Active; 'I' for Inactive)
REMARK    1  A    between atoms: C_1  and  C_2
REMARK    2  A    between atoms: C_4  and  O_5
REMARK    3  A    between atoms: O_5  and  C_6
REMARK    4  A    between atoms: C_17  and  C_18
REMARK                            x       y       z     vdW  Elec       q    Type
REMARK                         _______ _______ _______ _____ _____    ______ ____
ROOT
ATOM      1  C   UNL     1       0.288   9.211  21.368  0.00  0.00    +0.000 C 
ATOM      2  C   UNL     1       1.107   8.678  20.224  0.00  0.00    +0.000 A 
ATOM      3  C   UNL     1       1.962   7.582  20.438  0.00  0.00    +0.000 A 
ATOM      4  C   UNL     1       2.739   7.059  19.399  0.00  0.00    +0.000 A 
ATOM      5  C   UNL     1       2.631   7.607  18.120  0.00  0.00    +0.000 A 
ATOM      6  C   UNL     1       1.803   8.709  17.897  0.00  0.00    +0.000 A 
ATOM      7  C   UNL     1       1.041   9.253  18.939  0.00  0.00    +0.000 A 
ENDROOT
BRANCH   7   8
ATOM      8  C   UNL     1       0.171  10.400  18.631  0.00  0.00    +0.000 A 
ATOM      9  C   UNL     1      -1.077  10.193  18.154  0.00  0.00    +0.000 A 
ATOM     10  N   UNL     1      -1.969  11.200  17.809  0.00  0.00    +0.000 NA
ATOM     11  C   UNL     1      -1.572  12.435  17.963  0.00  0.00    +0.000 A 
ATOM     12  C   UNL     1      -0.269  12.752  18.474  0.00  0.00    +0.000 A 
ATOM     13  N   UNL     1       0.256  13.935  18.698  0.00  0.00    +0.000 NA
ATOM     14  C   UNL     1       1.513  13.660  19.182  0.00  0.00    +0.000 A 
ATOM     15  C   UNL     1       1.740  12.301  19.239  0.00  0.00    +0.000 A 
ATOM     16  N   UNL     1       0.580  11.721  18.793  0.00  0.00    +0.000 N 
ENDBRANCH   7   8
BRANCH   4  17
ATOM     17  O   UNL     1       3.510   5.957  19.699  0.00  0.00    +0.000 OA
BRANCH  17  18
ATOM     18  C   UNL     1       2.871   4.765  20.026  0.00  0.00    +0.000 A 
ATOM     19  N   UNL     1       2.376   4.579  21.281  0.00  0.00    +0.000 NA
ATOM     20  C   UNL     1       1.771   3.412  21.586  0.00  0.00    +0.000 A 
ATOM     21  C   UNL     1       1.569   2.366  20.701  0.00  0.00    +0.000 A 
ATOM     22  C   UNL     1       2.043   2.586  19.411  0.00  0.00    +0.000 A 
ATOM     23  N   UNL     1       1.999   1.780  18.293  0.00  0.00    +0.000 N 
ATOM     24  C   UNL     1       2.594   2.411  17.234  0.00  0.00    +0.000 A 
ATOM     25  C   UNL     1       3.031   3.642  17.668  0.00  0.00    +0.000 A 
ATOM     26  C   UNL     1       2.688   3.771  19.046  0.00  0.00    +0.000 A 
ATOM     27  H   UNL     1       1.587   0.856  18.265  0.00  0.00    +0.000 HD
ENDBRANCH  17  18
ENDBRANCH   4  17
TORSDOF 3
ENDMDL
MODEL 7
REMARK VINA RESULT:      -8.3      2.422      3.931
REMARK  Name = 
REMARK  4 active torsions:
REMARK  status: ('A' for Active; 'I' for Inactive)
REMARK    1  A    between atoms: C_1  and  C_2
REMARK    2  A    between atoms: C_4  and  O_5
REMARK    3  A    between atoms: O_5  and  C_6
REMARK    4  A    between atoms: C_17  and  C_18
REMARK                            x       y       z     vdW  Elec       q    Type
REMARK                         _______ _______ _______ _____ _____    ______ ____
ROOT
ATOM      1  C   UNL     1       0.107   8.865  21.673  0.00  0.00    +0.000 C 
ATOM      2  C   UNL     1       0.915   8.621  20.426  0.00  0.00    +0.000 A 
ATOM      3  C   UNL     1       1.842   7.563  20.400  0.00  0.00    +0.000 A 
ATOM      4  C   UNL     1       2.611   7.306  19.260  0.00  0.00    +0.000 A 
ATOM      5  C   UNL     1       2.423   8.084  18.117  0.00  0.00    +0.000 A 
ATOM      6  C   UNL     1       1.523   9.151  18.136  0.00  0.00    +0.000 A 
ATOM      7  C   UNL     1       0.767   9.430  19.282  0.00  0.00    +0.000 A 
ENDROOT
BRANCH   7   8
ATOM      8  C   UNL     1      -0.180  10.554  19.226  0.00  0.00    +0.000 A 
ATOM      9  C   UNL     1      -1.388  10.392  18.640  0.00  0.00    +0.000 A 
ATOM     10  N   UNL     1      -2.345  11.390  18.512  0.00  0.00    +0.000 NA
ATOM     11  C   UNL     1      -2.057  12.568  19.000  0.00  0.00    +0.000 A 
ATOM     12  C   UNL     1      -0.805  12.830  19.651  0.00  0.00    +0.000 A 
ATOM     13  N   UNL     1      -0.389  13.948  20.200  0.00  0.00    +0.000 NA
ATOM     14  C   UNL     1       0.867  13.645  20.671  0.00  0.00    +0.000 A 
ATOM     15  C   UNL     1       1.202  12.336  20.392  0.00  0.00    +0.000 A 
ATOM     16  N   UNL     1       0.112  11.813  19.744  0.00  0.00    +0.000 N 
ENDBRANCH   7   8
BRANCH   4  17
ATOM     17  O   UNL     1       3.457   6.219  19.319  0.00  0.00    +0.000 OA
BRANCH  17  18
ATOM     18  C   UNL     1       2.982   4.981  18.901  0.00  0.00    +0.000 A 
ATOM     19  N   UNL     1       3.076   4.622  17.591  0.00  0.00    +0.000 NA
ATOM     20  C   UNL     1       2.599   3.422  17.198  0.00  0.00    +0.000 A 
ATOM     21  C   UNL     1       2.035   2.477  18.039  0.00  0.00    +0.000 A 
ATOM     22  C   UNL     1       1.983   2.840  19.382  0.00  0.00    +0.000 A 
ATOM     23  N   UNL     1       1.508   2.149  20.476  0.00  0.00    +0.000 N 
ATOM     24  C   UNL     1       1.659   2.901  21.610  0.00  0.00    +0.000 A 
ATOM     25  C   UNL     1       2.237   4.097  21.249  0.00  0.00    +0.000 A 
ATOM     26  C   UNL     1       2.452   4.075  19.839  0.00  0.00    +0.000 A 
ATOM     27  H   UNL     1       1.108   1.221  20.441  0.00  0.00    +0.000 HD
ENDBRANCH  17  18
ENDBRANCH   4  17
TORSDOF 3
ENDMDL
MODEL 8
REMARK VINA RESULT:      -8.2      1.143      1.918
REMARK  Name = 
REMARK  4 active torsions:
REMARK  status: ('A' for Active; 'I' for Inactive)
REMARK    1  A    between atoms: C_1  and  C_2
REMARK    2  A    between atoms: C_4  and  O_5
REMARK    3  A    between atoms: O_5  and  C_6
REMARK    4  A    between atoms: C_17  and  C_18
REMARK                            x       y       z     vdW  Elec       q    Type
REMARK                         _______ _______ _______ _____ _____    ______ ____
ROOT
ATOM      1  C   UNL     1       0.265   9.306  21.371  0.00  0.00    +0.000 C 
ATOM      2  C   UNL     1       1.117   8.755  20.260  0.00  0.00    +0.000 A 
ATOM      3  C   UNL     1       1.834   7.563  20.465  0.00  0.00    +0.000 A 
ATOM      4  C   UNL     1       2.638   7.021  19.456  0.00  0.00    +0.000 A 
ATOM      5  C   UNL     1       2.692   7.650  18.211  0.00  0.00    +0.000 A 
ATOM      6  C   UNL     1       2.003   8.846  18.000  0.00  0.00    +0.000 A 
ATOM      7  C   UNL     1       1.216   9.407  19.015  0.00  0.00    +0.000 A 
ENDROOT
BRANCH   7   8
ATOM      8  C   UNL     1       0.498  10.657  18.717  0.00  0.00    +0.000 A 
ATOM      9  C   UNL     1       1.111  11.848  18.897  0.00  0.00    +0.000 A 
ATOM     10  N   UNL     1       0.519  13.084  18.670  0.00  0.00    +0.000 NA
ATOM     11  C   UNL     1      -0.717  13.092  18.248  0.00  0.00    +0.000 A 
ATOM     12  C   UNL     1      -1.444  11.876  18.016  0.00  0.00    +0.000 A 
ATOM     13  N   UNL     1      -2.674  11.731  17.578  0.00  0.00    +0.000 NA
ATOM     14  C   UNL     1      -2.860  10.370  17.545  0.00  0.00    +0.000 A 
ATOM     15  C   UNL     1      -1.733   9.700  17.973  0.00  0.00    +0.000 A 
ATOM     16  N   UNL     1      -0.818  10.680  18.264  0.00  0.00    +0.000 N 
ENDBRANCH   7   8
BRANCH   4  17
ATOM     17  O   UNL     1       3.263   5.826  19.741  0.00  0.00    +0.000 OA
BRANCH  17  18
ATOM     18  C   UNL     1       3.806   5.091  18.693  0.00  0.00    +0.000 A 
ATOM     19  N   UNL     1       2.986   4.447  17.816  0.00  0.00    +0.000 NA
ATOM     20  C   UNL     1       3.528   3.725  16.813  0.00  0.00    +0.000 A 
ATOM     21  C   UNL     1       4.886   3.604  16.564  0.00  0.00    +0.000 A 
ATOM     22  C   UNL     1       5.710   4.301  17.443  0.00  0.00    +0.000 A 
ATOM     23  N   UNL     1       7.083   4.412  17.480  0.00  0.00    +0.000 N 
ATOM     24  C   UNL     1       7.463   5.206  18.529  0.00  0.00    +0.000 A 
ATOM     25  C   UNL     1       6.322   5.615  19.183  0.00  0.00    +0.000 A 
ATOM     26  C   UNL     1       5.200   5.052  18.505  0.00  0.00    +0.000 A 
ATOM     27  H   UNL     1       7.715   3.969  16.826  0.00  0.00    +0.000 HD
ENDBRANCH  17  18
ENDBRANCH   4  17
TORSDOF 3
ENDMDL
MODEL 9
REMARK VINA RESULT:      -8.2      2.325      3.056
REMARK  Name = 
REMARK  4 active torsions:
REMARK  status: ('A' for Active; 'I' for Inactive)
REMARK    1  A    between atoms: C_1  and  C_2
REMARK    2  A    between atoms: C_4  and  O_5
REMARK    3  A    between atoms: O_5  and  C_6
REMARK    4  A    between atoms: C_17  and  C_18
REMARK                            x       y       z     vdW  Elec       q    Type
REMARK                         _______ _______ _______ _____ _____    ______ ____
ROOT
ATOM      1  C   UNL     1       0.269   9.523  21.488  0.00  0.00    +0.000 C 
ATOM      2  C   UNL     1       1.062   8.900  20.370  0.00  0.00    +0.000 A 
ATOM      3  C   UNL     1       1.767   7.706  20.606  0.00  0.00    +0.000 A 
ATOM      4  C   UNL     1       2.516   7.098  19.592  0.00  0.00    +0.000 A 
ATOM      5  C   UNL     1       2.525   7.662  18.315  0.00  0.00    +0.000 A 
ATOM      6  C   UNL     1       1.848   8.858  18.072  0.00  0.00    +0.000 A 
ATOM      7  C   UNL     1       1.117   9.486  19.090  0.00  0.00    +0.000 A 
ENDROOT
BRANCH   7   8
ATOM      8  C   UNL     1       0.407  10.732  18.760  0.00  0.00    +0.000 A 
ATOM      9  C   UNL     1       1.035  11.922  18.888  0.00  0.00    +0.000 A 
ATOM     10  N   UNL     1       0.453  13.156  18.627  0.00  0.00    +0.000 NA
ATOM     11  C   UNL     1      -0.789  13.163  18.223  0.00  0.00    +0.000 A 
ATOM     12  C   UNL     1      -1.533  11.948  18.046  0.00  0.00    +0.000 A 
ATOM     13  N   UNL     1      -2.771  11.801  17.632  0.00  0.00    +0.000 NA
ATOM     14  C   UNL     1      -2.972  10.441  17.649  0.00  0.00    +0.000 A 
ATOM     15  C   UNL     1      -1.845   9.774  18.083  0.00  0.00    +0.000 A 
ATOM     16  N   UNL     1      -0.916  10.754  18.326  0.00  0.00    +0.000 N 
ENDBRANCH   7   8
BRANCH   4  17
ATOM     17  O   UNL     1       3.133   5.908  19.911  0.00  0.00    +0.000 OA
BRANCH  17  18
ATOM     18  C   UNL     1       2.422   4.724  19.751  0.00  0.00    +0.000 A 
ATOM     19  N   UNL     1       1.286   4.508  20.471  0.00  0.00    +0.000 NA
ATOM     20  C   UNL     1       0.615   3.348  20.315  0.00  0.00    +0.000 A 
ATOM     21  C   UNL     1       0.968   2.337  19.435  0.00  0.00    +0.000 A 
ATOM     22  C   UNL     1       2.107   2.588  18.676  0.00  0.00    +0.000 A 
ATOM     23  N   UNL     1       2.724   1.822  17.711  0.00  0.00    +0.000 N 
ATOM     24  C   UNL     1       3.827   2.472  17.227  0.00  0.00    +0.000 A 
ATOM     25  C   UNL     1       3.930   3.676  17.886  0.00  0.00    +0.000 A 
ATOM     26  C   UNL     1       2.845   3.768  18.808  0.00  0.00    +0.000 A 
ATOM     27  H   UNL     1       2.404   0.911  17.408  0.00  0.00    +0.000 HD
ENDBRANCH  17  18
ENDBRANCH   4  17
TORSDOF 3
ENDMDL
