MODEL 1
REMARK VINA RESULT:      -7.3      0.000      0.000
REMARK  Name = 
REMARK  10 active torsions:
REMARK  status: ('A' for Active; 'I' for Inactive)
REMARK    1  A    between atoms: C_1  and  N_2
REMARK    2  A    between atoms: N_2  and  C_3
REMARK    3  A    between atoms: N_2  and  C_4
REMARK    4  A    between atoms: C_7  and  C_8
REMARK    5  A    between atoms: C_8  and  N_9
REMARK    6  A    between atoms: N_9  and  C_10
REMARK    7  A    between atoms: C_12  and  C_13
REMARK    8  A    between atoms: C_12  and  C_14
REMARK    9  A    between atoms: C_16  and  C_17
REMARK   10  A    between atoms: C_16  and  C_18
REMARK                            x       y       z     vdW  Elec       q    Type
REMARK                         _______ _______ _______ _____ _____    ______ ____
ROOT
ATOM      1  N   UNL     1       8.827   8.720  18.970  0.00  0.00    +0.000 NA
ATOM      2  H   UNL     1       9.571   8.032  19.089  0.00  0.00    +0.000 HD
ENDROOT
BRANCH   1   3
ATOM      3  C   UNL     1       9.379  10.083  19.020  0.00  0.00    +0.000 C 
ATOM      4  C   UNL     1       9.356  10.673  20.433  0.00  0.00    +0.000 C 
ATOM      5  C   UNL     1       9.894  12.112  20.486  0.00  0.00    +0.000 C 
ATOM      6  C   UNL     1       9.523  12.698  21.865  0.00  0.00    +0.000 C 
ATOM      7  C   UNL     1      11.432  12.129  20.390  0.00  0.00    +0.000 C 
ATOM      8  N   UNL     1       9.264  12.974  19.481  0.00  0.00    +0.000 NA
ATOM      9  C   UNL     1       9.079  12.459  18.117  0.00  0.00    +0.000 C 
ATOM     10  C   UNL     1       8.013  13.370  17.467  0.00  0.00    +0.000 C 
ATOM     11  C   UNL     1      10.355  12.599  17.266  0.00  0.00    +0.000 C 
ATOM     12  C   UNL     1       8.556  11.005  18.107  0.00  0.00    +0.000 C 
ATOM     13  H   UNL     1       9.704  13.894  19.465  0.00  0.00    +0.000 HD
ENDBRANCH   1   3
BRANCH   1  14
ATOM     14  C   UNL     1       8.126   8.446  17.710  0.00  0.00    +0.000 C 
BRANCH  14  18
ATOM     15  C   UNL     1       5.547   4.937  17.993  0.00  0.00    +0.000 A 
ATOM     16  C   UNL     1       5.245   6.021  17.153  0.00  0.00    +0.000 A 
ATOM     17  C   UNL     1       6.061   7.154  17.073  0.00  0.00    +0.000 A 
ATOM     18  C   UNL     1       7.233   7.237  17.823  0.00  0.00    +0.000 A 
ATOM     19  C   UNL     1       7.578   6.162  18.645  0.00  0.00    +0.000 A 
ATOM     20  C   UNL     1       6.747   5.033  18.720  0.00  0.00    +0.000 A 
BRANCH  15  22
ATOM     21  C   UNL     1       3.604   3.667  17.159  0.00  0.00    +0.000 C 
ATOM     22  N   UNL     1       4.723   3.808  18.087  0.00  0.00    +0.000 N 
ATOM     23  C   UNL     1       4.569   3.186  19.398  0.00  0.00    +0.000 C 
ENDBRANCH  15  22
ENDBRANCH  14  18
ENDBRANCH   1  14
TORSDOF 4
ENDMDL
MODEL 2
REMARK VINA RESULT:      -7.3      5.669      8.458
REMARK  Name = 
REMARK  10 active torsions:
REMARK  status: ('A' for Active; 'I' for Inactive)
REMARK    1  A    between atoms: C_1  and  N_2
REMARK    2  A    between atoms: N_2  and  C_3
REMARK    3  A    between atoms: N_2  and  C_4
REMARK    4  A    between atoms: C_7  and  C_8
REMARK    5  A    between atoms: C_8  and  N_9
REMARK    6  A    between atoms: N_9  and  C_10
REMARK    7  A    between atoms: C_12  and  C_13
REMARK    8  A    between atoms: C_12  and  C_14
REMARK    9  A    between atoms: C_16  and  C_17
REMARK   10  A    between atoms: C_16  and  C_18
REMARK                            x       y       z     vdW  Elec       q    Type
REMARK                         _______ _______ _______ _____ _____    ______ ____
ROOT
ATOM      1  N   UNL     1       3.903   7.577  17.637  0.00  0.00    +0.000 NA
ATOM      2  H   UNL     1       4.213   8.152  18.421  0.00  0.00    +0.000 HD
ENDROOT
BRANCH   1   3
ATOM      3  C   UNL     1       4.574   6.267  17.667  0.00  0.00    +0.000 C 
ATOM      4  C   UNL     1       5.414   6.009  16.413  0.00  0.00    +0.000 C 
ATOM      5  C   UNL     1       6.084   4.626  16.421  0.00  0.00    +0.000 C 
ATOM      6  C   UNL     1       6.619   4.360  14.997  0.00  0.00    +0.000 C 
ATOM      7  C   UNL     1       7.300   4.608  17.367  0.00  0.00    +0.000 C 
ATOM      8  N   UNL     1       5.131   3.553  16.718  0.00  0.00    +0.000 NA
ATOM      9  C   UNL     1       4.156   3.745  17.801  0.00  0.00    +0.000 C 
ATOM     10  C   UNL     1       3.046   2.699  17.558  0.00  0.00    +0.000 C 
ATOM     11  C   UNL     1       4.759   3.435  19.185  0.00  0.00    +0.000 C 
ATOM     12  C   UNL     1       3.520   5.153  17.771  0.00  0.00    +0.000 C 
ATOM     13  H   UNL     1       5.611   2.659  16.818  0.00  0.00    +0.000 HD
ENDBRANCH   1   3
BRANCH   1  14
ATOM     14  C   UNL     1       2.441   7.460  17.685  0.00  0.00    +0.000 C 
BRANCH  14  18
ATOM     15  C   UNL     1       0.709   9.775  20.954  0.00  0.00    +0.000 A 
ATOM     16  C   UNL     1       0.704  10.235  19.627  0.00  0.00    +0.000 A 
ATOM     17  C   UNL     1       1.273   9.503  18.581  0.00  0.00    +0.000 A 
ATOM     18  C   UNL     1       1.858   8.260  18.822  0.00  0.00    +0.000 A 
ATOM     19  C   UNL     1       1.851   7.760  20.126  0.00  0.00    +0.000 A 
ATOM     20  C   UNL     1       1.281   8.508  21.167  0.00  0.00    +0.000 A 
BRANCH  15  22
ATOM     21  C   UNL     1      -0.390   9.806  23.161  0.00  0.00    +0.000 C 
ATOM     22  N   UNL     1       0.154  10.514  22.006  0.00  0.00    +0.000 N 
ATOM     23  C   UNL     1      -0.446  11.806  21.688  0.00  0.00    +0.000 C 
ENDBRANCH  15  22
ENDBRANCH  14  18
ENDBRANCH   1  14
TORSDOF 4
ENDMDL
MODEL 3
REMARK VINA RESULT:      -7.2      5.683      8.534
REMARK  Name = 
REMARK  10 active torsions:
REMARK  status: ('A' for Active; 'I' for Inactive)
REMARK    1  A    between atoms: C_1  and  N_2
REMARK    2  A    between atoms: N_2  and  C_3
REMARK    3  A    between atoms: N_2  and  C_4
REMARK    4  A    between atoms: C_7  and  C_8
REMARK    5  A    between atoms: C_8  and  N_9
REMARK    6  A    between atoms: N_9  and  C_10
REMARK    7  A    between atoms: C_12  and  C_13
REMARK    8  A    between atoms: C_12  and  C_14
REMARK    9  A    between atoms: C_16  and  C_17
REMARK   10  A    between atoms: C_16  and  C_18
REMARK                            x       y       z     vdW  Elec       q    Type
REMARK                         _______ _______ _______ _____ _____    ______ ____
ROOT
ATOM      1  N   UNL     1       3.860   7.553  17.664  0.00  0.00    +0.000 NA
ATOM      2  H   UNL     1       4.164   8.133  18.447  0.00  0.00    +0.000 HD
ENDROOT
BRANCH   1   3
ATOM      3  C   UNL     1       4.542   6.249  17.699  0.00  0.00    +0.000 C 
ATOM      4  C   UNL     1       5.374   5.990  16.440  0.00  0.00    +0.000 C 
ATOM      5  C   UNL     1       6.056   4.612  16.452  0.00  0.00    +0.000 C 
ATOM      6  C   UNL     1       6.582   4.340  15.027  0.00  0.00    +0.000 C 
ATOM      7  C   UNL     1       7.279   4.611  17.389  0.00  0.00    +0.000 C 
ATOM      8  N   UNL     1       5.115   3.533  16.764  0.00  0.00    +0.000 NA
ATOM      9  C   UNL     1       4.146   3.725  17.854  0.00  0.00    +0.000 C 
ATOM     10  C   UNL     1       3.043   2.667  17.626  0.00  0.00    +0.000 C 
ATOM     11  C   UNL     1       4.762   3.430  19.235  0.00  0.00    +0.000 C 
ATOM     12  C   UNL     1       3.498   5.127  17.818  0.00  0.00    +0.000 C 
ATOM     13  H   UNL     1       5.603   2.644  16.866  0.00  0.00    +0.000 HD
ENDBRANCH   1   3
BRANCH   1  14
ATOM     14  C   UNL     1       2.399   7.423  17.711  0.00  0.00    +0.000 C 
BRANCH  14  18
ATOM     15  C   UNL     1       0.720   9.795  20.967  0.00  0.00    +0.000 A 
ATOM     16  C   UNL     1       1.294   8.531  21.182  0.00  0.00    +0.000 A 
ATOM     17  C   UNL     1       1.817   7.762  20.137  0.00  0.00    +0.000 A 
ATOM     18  C   UNL     1       1.804   8.242  18.829  0.00  0.00    +0.000 A 
ATOM     19  C   UNL     1       1.269   9.509  18.587  0.00  0.00    +0.000 A 
ATOM     20  C   UNL     1       0.743  10.268  19.643  0.00  0.00    +0.000 A 
BRANCH  15  22
ATOM     21  C   UNL     1      -0.488   9.882  23.116  0.00  0.00    +0.000 C 
ATOM     22  N   UNL     1       0.181  10.560  22.009  0.00  0.00    +0.000 N 
ATOM     23  C   UNL     1      -0.279  11.909  21.694  0.00  0.00    +0.000 C 
ENDBRANCH  15  22
ENDBRANCH  14  18
ENDBRANCH   1  14
TORSDOF 4
ENDMDL
MODEL 4
REMARK VINA RESULT:      -7.2      5.754      8.785
REMARK  Name = 
REMARK  10 active torsions:
REMARK  status: ('A' for Active; 'I' for Inactive)
REMARK    1  A    between atoms: C_1  and  N_2
REMARK    2  A    between atoms: N_2  and  C_3
REMARK    3  A    between atoms: N_2  and  C_4
REMARK    4  A    between atoms: C_7  and  C_8
REMARK    5  A    between atoms: C_8  and  N_9
REMARK    6  A    between atoms: N_9  and  C_10
REMARK    7  A    between atoms: C_12  and  C_13
REMARK    8  A    between atoms: C_12  and  C_14
REMARK    9  A    between atoms: C_16  and  C_17
REMARK   10  A    between atoms: C_16  and  C_18
REMARK                            x       y       z     vdW  Elec       q    Type
REMARK                         _______ _______ _______ _____ _____    ______ ____
ROOT
ATOM      1  N   UNL     1       2.060   6.038  18.066  0.00  0.00    +0.000 NA
ATOM      2  H   UNL     1       1.439   6.066  17.257  0.00  0.00    +0.000 HD
ENDROOT
BRANCH   1   3
ATOM      3  C   UNL     1       3.044   4.954  17.919  0.00  0.00    +0.000 C 
ATOM      4  C   UNL     1       3.078   4.024  19.135  0.00  0.00    +0.000 C 
ATOM      5  C   UNL     1       4.132   2.912  19.004  0.00  0.00    +0.000 C 
ATOM      6  C   UNL     1       4.294   2.258  20.393  0.00  0.00    +0.000 C 
ATOM      7  C   UNL     1       3.654   1.809  18.041  0.00  0.00    +0.000 C 
ATOM      8  N   UNL     1       5.449   3.441  18.635  0.00  0.00    +0.000 NA
ATOM      9  C   UNL     1       5.535   4.467  17.586  0.00  0.00    +0.000 C 
ATOM     10  C   UNL     1       6.920   5.130  17.760  0.00  0.00    +0.000 C 
ATOM     11  C   UNL     1       5.515   3.854  16.173  0.00  0.00    +0.000 C 
ATOM     12  C   UNL     1       4.448   5.554  17.741  0.00  0.00    +0.000 C 
ATOM     13  H   UNL     1       6.107   2.683  18.456  0.00  0.00    +0.000 HD
ENDBRANCH   1   3
BRANCH   1  14
ATOM     14  C   UNL     1       2.694   7.353  18.221  0.00  0.00    +0.000 C 
BRANCH  14  18
ATOM     15  C   UNL     1       0.428   9.891  20.953  0.00  0.00    +0.000 A 
ATOM     16  C   UNL     1       0.638  10.240  19.610  0.00  0.00    +0.000 A 
ATOM     17  C   UNL     1       1.379   9.437  18.737  0.00  0.00    +0.000 A 
ATOM     18  C   UNL     1       1.924   8.231  19.174  0.00  0.00    +0.000 A 
ATOM     19  C   UNL     1       1.706   7.840  20.497  0.00  0.00    +0.000 A 
ATOM     20  C   UNL     1       0.965   8.658  21.364  0.00  0.00    +0.000 A 
BRANCH  15  22
ATOM     21  C   UNL     1      -0.744  10.144  23.108  0.00  0.00    +0.000 C 
ATOM     22  N   UNL     1      -0.300  10.701  21.834  0.00  0.00    +0.000 N 
ATOM     23  C   UNL     1      -1.123  11.762  21.260  0.00  0.00    +0.000 C 
ENDBRANCH  15  22
ENDBRANCH  14  18
ENDBRANCH   1  14
TORSDOF 4
ENDMDL
MODEL 5
REMARK VINA RESULT:      -7.2      5.766      8.813
REMARK  Name = 
REMARK  10 active torsions:
REMARK  status: ('A' for Active; 'I' for Inactive)
REMARK    1  A    between atoms: C_1  and  N_2
REMARK    2  A    between atoms: N_2  and  C_3
REMARK    3  A    between atoms: N_2  and  C_4
REMARK    4  A    between atoms: C_7  and  C_8
REMARK    5  A    between atoms: C_8  and  N_9
REMARK    6  A    between atoms: N_9  and  C_10
REMARK    7  A    between atoms: C_12  and  C_13
REMARK    8  A    between atoms: C_12  and  C_14
REMARK    9  A    between atoms: C_16  and  C_17
REMARK   10  A    between atoms: C_16  and  C_18
REMARK                            x       y       z     vdW  Elec       q    Type
REMARK                         _______ _______ _______ _____ _____    ______ ____
ROOT
ATOM      1  N   UNL     1       2.143   6.097  17.991  0.00  0.00    +0.000 NA
ATOM      2  H   UNL     1       1.634   6.231  17.117  0.00  0.00    +0.000 HD
ENDROOT
BRANCH   1   3
ATOM      3  C   UNL     1       3.104   4.990  17.858  0.00  0.00    +0.000 C 
ATOM      4  C   UNL     1       3.119   4.075  19.086  0.00  0.00    +0.000 C 
ATOM      5  C   UNL     1       4.149   2.940  18.970  0.00  0.00    +0.000 C 
ATOM      6  C   UNL     1       4.297   2.301  20.367  0.00  0.00    +0.000 C 
ATOM      7  C   UNL     1       3.647   1.835  18.021  0.00  0.00    +0.000 C 
ATOM      8  N   UNL     1       5.476   3.437  18.594  0.00  0.00    +0.000 NA
ATOM      9  C   UNL     1       5.584   4.447  17.531  0.00  0.00    +0.000 C 
ATOM     10  C   UNL     1       6.983   5.082  17.697  0.00  0.00    +0.000 C 
ATOM     11  C   UNL     1       5.550   3.817  16.126  0.00  0.00    +0.000 C 
ATOM     12  C   UNL     1       4.520   5.558  17.672  0.00  0.00    +0.000 C 
ATOM     13  H   UNL     1       6.118   2.663  18.424  0.00  0.00    +0.000 HD
ENDBRANCH   1   3
BRANCH   1  14
ATOM     14  C   UNL     1       2.791   7.360  18.361  0.00  0.00    +0.000 C 
BRANCH  14  18
ATOM     15  C   UNL     1       0.254   9.805  20.936  0.00  0.00    +0.000 A 
ATOM     16  C   UNL     1       0.815   8.594  21.372  0.00  0.00    +0.000 A 
ATOM     17  C   UNL     1       1.614   7.800  20.543  0.00  0.00    +0.000 A 
ATOM     18  C   UNL     1       1.903   8.203  19.240  0.00  0.00    +0.000 A 
ATOM     19  C   UNL     1       1.386   9.419  18.787  0.00  0.00    +0.000 A 
ATOM     20  C   UNL     1       0.581  10.203  19.627  0.00  0.00    +0.000 A 
BRANCH  15  22
ATOM     21  C   UNL     1      -0.695  12.019  21.468  0.00  0.00    +0.000 C 
ATOM     22  N   UNL     1      -0.560  10.594  21.759  0.00  0.00    +0.000 N 
ATOM     23  C   UNL     1      -0.707  10.194  23.155  0.00  0.00    +0.000 C 
ENDBRANCH  15  22
ENDBRANCH  14  18
ENDBRANCH   1  14
TORSDOF 4
ENDMDL
MODEL 6
REMARK VINA RESULT:      -7.1      5.922      8.249
REMARK  Name = 
REMARK  10 active torsions:
REMARK  status: ('A' for Active; 'I' for Inactive)
REMARK    1  A    between atoms: C_1  and  N_2
REMARK    2  A    between atoms: N_2  and  C_3
REMARK    3  A    between atoms: N_2  and  C_4
REMARK    4  A    between atoms: C_7  and  C_8
REMARK    5  A    between atoms: C_8  and  N_9
REMARK    6  A    between atoms: N_9  and  C_10
REMARK    7  A    between atoms: C_12  and  C_13
REMARK    8  A    between atoms: C_12  and  C_14
REMARK    9  A    between atoms: C_16  and  C_17
REMARK   10  A    between atoms: C_16  and  C_18
REMARK                            x       y       z     vdW  Elec       q    Type
REMARK                         _______ _______ _______ _____ _____    ______ ____
ROOT
ATOM      1  N   UNL     1       5.658   3.716  19.113  0.00  0.00    +0.000 NA
ATOM      2  H   UNL     1       6.021   3.662  20.065  0.00  0.00    +0.000 HD
ENDROOT
BRANCH   1   3
ATOM      3  C   UNL     1       4.205   3.953  19.132  0.00  0.00    +0.000 C 
ATOM      4  C   UNL     1       3.853   5.412  19.437  0.00  0.00    +0.000 C 
ATOM      5  C   UNL     1       2.337   5.657  19.499  0.00  0.00    +0.000 C 
ATOM      6  C   UNL     1       2.115   7.052  20.121  0.00  0.00    +0.000 C 
ATOM      7  C   UNL     1       1.727   5.695  18.085  0.00  0.00    +0.000 C 
ATOM      8  N   UNL     1       1.658   4.695  20.373  0.00  0.00    +0.000 NA
ATOM      9  C   UNL     1       2.026   3.275  20.291  0.00  0.00    +0.000 C 
ATOM     10  C   UNL     1       1.513   2.632  21.599  0.00  0.00    +0.000 C 
ATOM     11  C   UNL     1       1.307   2.555  19.135  0.00  0.00    +0.000 C 
ATOM     12  C   UNL     1       3.556   3.072  20.211  0.00  0.00    +0.000 C 
ATOM     13  H   UNL     1       0.646   4.811  20.321  0.00  0.00    +0.000 HD
ENDBRANCH   1   3
BRANCH   1  14
ATOM     14  C   UNL     1       6.387   4.763  18.386  0.00  0.00    +0.000 C 
BRANCH  14  18
ATOM     15  C   UNL     1       6.380   4.020  14.086  0.00  0.00    +0.000 A 
ATOM     16  C   UNL     1       5.499   3.362  14.959  0.00  0.00    +0.000 A 
ATOM     17  C   UNL     1       5.511   3.586  16.340  0.00  0.00    +0.000 A 
ATOM     18  C   UNL     1       6.400   4.501  16.902  0.00  0.00    +0.000 A 
ATOM     19  C   UNL     1       7.268   5.195  16.056  0.00  0.00    +0.000 A 
ATOM     20  C   UNL     1       7.249   4.957  14.673  0.00  0.00    +0.000 A 
BRANCH  15  22
ATOM     21  C   UNL     1       7.306   4.535  11.859  0.00  0.00    +0.000 C 
ATOM     22  N   UNL     1       6.381   3.786  12.705  0.00  0.00    +0.000 N 
ATOM     23  C   UNL     1       5.131   3.354  12.087  0.00  0.00    +0.000 C 
ENDBRANCH  15  22
ENDBRANCH  14  18
ENDBRANCH   1  14
TORSDOF 4
ENDMDL
MODEL 7
REMARK VINA RESULT:      -7.1      0.181      1.307
REMARK  Name = 
REMARK  10 active torsions:
REMARK  status: ('A' for Active; 'I' for Inactive)
REMARK    1  A    between atoms: C_1  and  N_2
REMARK    2  A    between atoms: N_2  and  C_3
REMARK    3  A    between atoms: N_2  and  C_4
REMARK    4  A    between atoms: C_7  and  C_8
REMARK    5  A    between atoms: C_8  and  N_9
REMARK    6  A    between atoms: N_9  and  C_10
REMARK    7  A    between atoms: C_12  and  C_13
REMARK    8  A    between atoms: C_12  and  C_14
REMARK    9  A    between atoms: C_16  and  C_17
REMARK   10  A    between atoms: C_16  and  C_18
REMARK                            x       y       z     vdW  Elec       q    Type
REMARK                         _______ _______ _______ _____ _____    ______ ____
ROOT
ATOM      1  N   UNL     1       8.821   8.665  19.001  0.00  0.00    +0.000 NA
ATOM      2  H   UNL     1       9.565   7.988  19.171  0.00  0.00    +0.000 HD
ENDROOT
BRANCH   1   3
ATOM      3  C   UNL     1       9.359  10.035  19.035  0.00  0.00    +0.000 C 
ATOM      4  C   UNL     1       9.321  10.645  20.439  0.00  0.00    +0.000 C 
ATOM      5  C   UNL     1       9.844  12.090  20.474  0.00  0.00    +0.000 C 
ATOM      6  C   UNL     1       9.459  12.692  21.842  0.00  0.00    +0.000 C 
ATOM      7  C   UNL     1      11.382  12.122  20.387  0.00  0.00    +0.000 C 
ATOM      8  N   UNL     1       9.211  12.931  19.453  0.00  0.00    +0.000 NA
ATOM      9  C   UNL     1       9.039  12.394  18.095  0.00  0.00    +0.000 C 
ATOM     10  C   UNL     1       7.967  13.284  17.426  0.00  0.00    +0.000 C 
ATOM     11  C   UNL     1      10.319  12.535  17.250  0.00  0.00    +0.000 C 
ATOM     12  C   UNL     1       8.531  10.935  18.104  0.00  0.00    +0.000 C 
ATOM     13  H   UNL     1       9.642  13.854  19.426  0.00  0.00    +0.000 HD
ENDBRANCH   1   3
BRANCH   1  14
ATOM     14  C   UNL     1       8.175   8.349  17.722  0.00  0.00    +0.000 C 
BRANCH  14  18
ATOM     15  C   UNL     1       5.308   5.091  18.180  0.00  0.00    +0.000 A 
ATOM     16  C   UNL     1       6.511   5.134  18.901  0.00  0.00    +0.000 A 
ATOM     17  C   UNL     1       7.440   6.168  18.744  0.00  0.00    +0.000 A 
ATOM     18  C   UNL     1       7.186   7.220  17.864  0.00  0.00    +0.000 A 
ATOM     19  C   UNL     1       5.984   7.222  17.155  0.00  0.00    +0.000 A 
ATOM     20  C   UNL     1       5.063   6.176  17.319  0.00  0.00    +0.000 A 
BRANCH  15  22
ATOM     21  C   UNL     1       4.541   3.108  19.430  0.00  0.00    +0.000 C 
ATOM     22  N   UNL     1       4.384   4.048  18.323  0.00  0.00    +0.000 N 
ATOM     23  C   UNL     1       3.741   3.537  17.117  0.00  0.00    +0.000 C 
ENDBRANCH  15  22
ENDBRANCH  14  18
ENDBRANCH   1  14
TORSDOF 4
ENDMDL
MODEL 8
REMARK VINA RESULT:      -7.0      5.647      8.746
REMARK  Name = 
REMARK  10 active torsions:
REMARK  status: ('A' for Active; 'I' for Inactive)
REMARK    1  A    between atoms: C_1  and  N_2
REMARK    2  A    between atoms: N_2  and  C_3
REMARK    3  A    between atoms: N_2  and  C_4
REMARK    4  A    between atoms: C_7  and  C_8
REMARK    5  A    between atoms: C_8  and  N_9
REMARK    6  A    between atoms: N_9  and  C_10
REMARK    7  A    between atoms: C_12  and  C_13
REMARK    8  A    between atoms: C_12  and  C_14
REMARK    9  A    between atoms: C_16  and  C_17
REMARK   10  A    between atoms: C_16  and  C_18
REMARK                            x       y       z     vdW  Elec       q    Type
REMARK                         _______ _______ _______ _____ _____    ______ ____
ROOT
ATOM      1  N   UNL     1       3.169   7.072  18.135  0.00  0.00    +0.000 NA
ATOM      2  H   UNL     1       3.877   7.805  18.087  0.00  0.00    +0.000 HD
ENDROOT
BRANCH   1   3
ATOM      3  C   UNL     1       3.781   5.754  17.896  0.00  0.00    +0.000 C 
ATOM      4  C   UNL     1       3.493   4.761  19.025  0.00  0.00    +0.000 C 
ATOM      5  C   UNL     1       4.163   3.395  18.800  0.00  0.00    +0.000 C 
ATOM      6  C   UNL     1       4.075   2.609  20.126  0.00  0.00    +0.000 C 
ATOM      7  C   UNL     1       3.402   2.575  17.741  0.00  0.00    +0.000 C 
ATOM      8  N   UNL     1       5.589   3.525  18.484  0.00  0.00    +0.000 NA
ATOM      9  C   UNL     1       6.015   4.560  17.531  0.00  0.00    +0.000 C 
ATOM     10  C   UNL     1       7.530   4.750  17.769  0.00  0.00    +0.000 C 
ATOM     11  C   UNL     1       5.853   4.103  16.069  0.00  0.00    +0.000 C 
ATOM     12  C   UNL     1       5.305   5.910  17.777  0.00  0.00    +0.000 C 
ATOM     13  H   UNL     1       5.990   2.620  18.241  0.00  0.00    +0.000 HD
ENDBRANCH   1   3
BRANCH   1  14
ATOM     14  C   UNL     1       2.496   7.149  19.437  0.00  0.00    +0.000 C 
BRANCH  14  18
ATOM     15  C   UNL     1      -0.131  10.626  19.664  0.00  0.00    +0.000 A 
ATOM     16  C   UNL     1       0.497  10.241  18.468  0.00  0.00    +0.000 A 
ATOM     17  C   UNL     1       1.353   9.137  18.397  0.00  0.00    +0.000 A 
ATOM     18  C   UNL     1       1.598   8.356  19.526  0.00  0.00    +0.000 A 
ATOM     19  C   UNL     1       0.964   8.695  20.723  0.00  0.00    +0.000 A 
ATOM     20  C   UNL     1       0.111   9.808  20.782  0.00  0.00    +0.000 A 
BRANCH  15  22
ATOM     21  C   UNL     1      -0.894  12.767  18.705  0.00  0.00    +0.000 C 
ATOM     22  N   UNL     1      -0.976  11.741  19.741  0.00  0.00    +0.000 N 
ATOM     23  C   UNL     1      -1.402  12.181  21.066  0.00  0.00    +0.000 C 
ENDBRANCH  15  22
ENDBRANCH  14  18
ENDBRANCH   1  14
TORSDOF 4
ENDMDL
MODEL 9
REMARK VINA RESULT:      -7.0      6.047      8.327
REMARK  Name = 
REMARK  10 active torsions:
REMARK  status: ('A' for Active; 'I' for Inactive)
REMARK    1  A    between atoms: C_1  and  N_2
REMARK    2  A    between atoms: N_2  and  C_3
REMARK    3  A    between atoms: N_2  and  C_4
REMARK    4  A    between atoms: C_7  and  C_8
REMARK    5  A    between atoms: C_8  and  N_9
REMARK    6  A    between atoms: N_9  and  C_10
REMARK    7  A    between atoms: C_12  and  C_13
REMARK    8  A    between atoms: C_12  and  C_14
REMARK    9  A    between atoms: C_16  and  C_17
REMARK   10  A    between atoms: C_16  and  C_18
REMARK                            x       y       z     vdW  Elec       q    Type
REMARK                         _______ _______ _______ _____ _____    ______ ____
ROOT
ATOM      1  N   UNL     1       5.568   3.589  19.072  0.00  0.00    +0.000 NA
ATOM      2  H   UNL     1       5.932   3.465  20.017  0.00  0.00    +0.000 HD
ENDROOT
BRANCH   1   3
ATOM      3  C   UNL     1       4.121   3.856  19.112  0.00  0.00    +0.000 C 
ATOM      4  C   UNL     1       3.803   5.318  19.435  0.00  0.00    +0.000 C 
ATOM      5  C   UNL     1       2.292   5.594  19.519  0.00  0.00    +0.000 C 
ATOM      6  C   UNL     1       2.108   6.987  20.157  0.00  0.00    +0.000 C 
ATOM      7  C   UNL     1       1.666   5.658  18.113  0.00  0.00    +0.000 C 
ATOM      8  N   UNL     1       1.605   4.639  20.392  0.00  0.00    +0.000 NA
ATOM      9  C   UNL     1       1.943   3.211  20.293  0.00  0.00    +0.000 C 
ATOM     10  C   UNL     1       1.433   2.568  21.602  0.00  0.00    +0.000 C 
ATOM     11  C   UNL     1       1.194   2.518  19.139  0.00  0.00    +0.000 C 
ATOM     12  C   UNL     1       3.467   2.978  20.191  0.00  0.00    +0.000 C 
ATOM     13  H   UNL     1       0.595   4.775  20.355  0.00  0.00    +0.000 HD
ENDBRANCH   1   3
BRANCH   1  14
ATOM     14  C   UNL     1       6.318   4.665  18.413  0.00  0.00    +0.000 C 
BRANCH  14  18
ATOM     15  C   UNL     1       6.311   4.198  14.074  0.00  0.00    +0.000 A 
ATOM     16  C   UNL     1       7.419   4.709  14.769  0.00  0.00    +0.000 A 
ATOM     17  C   UNL     1       7.417   4.876  16.158  0.00  0.00    +0.000 A 
ATOM     18  C   UNL     1       6.303   4.514  16.913  0.00  0.00    +0.000 A 
ATOM     19  C   UNL     1       5.197   3.973  16.255  0.00  0.00    +0.000 A 
ATOM     20  C   UNL     1       5.210   3.816  14.860  0.00  0.00    +0.000 A 
BRANCH  15  22
ATOM     21  C   UNL     1       5.701   2.848  12.102  0.00  0.00    +0.000 C 
ATOM     22  N   UNL     1       6.305   4.045  12.682  0.00  0.00    +0.000 N 
ATOM     23  C   UNL     1       7.387   4.665  11.924  0.00  0.00    +0.000 C 
ENDBRANCH  15  22
ENDBRANCH  14  18
ENDBRANCH   1  14
TORSDOF 4
ENDMDL
