MODEL 1
REMARK VINA RESULT:      -7.8      0.000      0.000
REMARK  Name = 
REMARK  7 active torsions:
REMARK  status: ('A' for Active; 'I' for Inactive)
REMARK    1  A    between atoms: C_1  and  N_2
REMARK    2  A    between atoms: C_7  and  C_9
REMARK    3  A    between atoms: C_13  and  S_14
REMARK    4  A    between atoms: S_14  and  N_17
REMARK    5  A    between atoms: N_17  and  C_18
REMARK    6  A    between atoms: C_18  and  C_19
REMARK    7  A    between atoms: C_19  and  C_20
REMARK                            x       y       z     vdW  Elec       q    Type
REMARK                         _______ _______ _______ _____ _____    ______ ____
ROOT
ATOM      1  C   UNL     1       2.263   8.037  18.644  0.00  0.00    +0.000 A 
ATOM      2  C   UNL     1       1.649   8.779  17.624  0.00  0.00    +0.000 A 
ATOM      3  C   UNL     1       0.652   9.714  17.919  0.00  0.00    +0.000 A 
ATOM      4  C   UNL     1       0.240   9.896  19.239  0.00  0.00    +0.000 A 
ATOM      5  C   UNL     1       0.875   9.184  20.258  0.00  0.00    +0.000 A 
ATOM      6  C   UNL     1       1.919   8.297  19.974  0.00  0.00    +0.000 A 
ENDROOT
BRANCH   1  13
ATOM      7  C   UNL     1       0.975   1.981  18.755  0.00  0.00    +0.000 C 
ATOM      8  N   UNL     1       1.660   2.897  17.840  0.00  0.00    +0.000 NA
ATOM      9  C   UNL     1       3.106   2.642  17.839  0.00  0.00    +0.000 C 
ATOM     10  C   UNL     1       3.990   3.749  17.248  0.00  0.00    +0.000 C 
ATOM     11  C   UNL     1       4.349   4.830  18.273  0.00  0.00    +0.000 C 
ATOM     12  N   UNL     1       3.239   5.709  18.651  0.00  0.00    +0.000 N 
ATOM     13  C   UNL     1       3.313   7.054  18.259  0.00  0.00    +0.000 C 
ATOM     14  O   UNL     1       4.241   7.495  17.578  0.00  0.00    +0.000 OA
ATOM     15  C   UNL     1       2.043   5.033  19.178  0.00  0.00    +0.000 C 
ATOM     16  C   UNL     1       1.262   4.289  18.083  0.00  0.00    +0.000 C 
ENDBRANCH   1  13
BRANCH   5  17
ATOM     17  S   UNL     1       0.249   9.295  21.913  0.00  0.00    +0.000 S 
ATOM     18  O   UNL     1      -0.767   8.277  22.055  0.00  0.00    +0.000 OA
ATOM     19  O   UNL     1       1.368   9.380  22.828  0.00  0.00    +0.000 OA
BRANCH  17  20
ATOM     20  N   UNL     1      -0.565  10.775  21.925  0.00  0.00    +0.000 NA
ATOM     21  H   UNL     1      -1.003  10.931  21.017  0.00  0.00    +0.000 HD
BRANCH  20  22
ATOM     22  C   UNL     1      -1.350  11.090  23.130  0.00  0.00    +0.000 C 
BRANCH  22  23
ATOM     23  C   UNL     1      -2.079  12.431  23.036  0.00  0.00    +0.000 C 
ATOM     24  C   UNL     1      -1.223  13.641  23.378  0.00  0.00    +0.000 C 
ATOM     25  C   UNL     1      -3.416  12.373  23.802  0.00  0.00    +0.000 C 
ATOM     26  O   UNL     1      -4.160  12.265  22.565  0.00  0.00    +0.000 OA
ATOM     27  C   UNL     1      -2.980  12.607  21.799  0.00  0.00    +0.000 C 
ENDBRANCH  22  23
ENDBRANCH  20  22
ENDBRANCH  17  20
ENDBRANCH   5  17
TORSDOF 5
ENDMDL
MODEL 2
REMARK VINA RESULT:      -7.8      1.019      1.079
REMARK  Name = 
REMARK  7 active torsions:
REMARK  status: ('A' for Active; 'I' for Inactive)
REMARK    1  A    between atoms: C_1  and  N_2
REMARK    2  A    between atoms: C_7  and  C_9
REMARK    3  A    between atoms: C_13  and  S_14
REMARK    4  A    between atoms: S_14  and  N_17
REMARK    5  A    between atoms: N_17  and  C_18
REMARK    6  A    between atoms: C_18  and  C_19
REMARK    7  A    between atoms: C_19  and  C_20
REMARK                            x       y       z     vdW  Elec       q    Type
REMARK                         _______ _______ _______ _____ _____    ______ ____
ROOT
ATOM      1  C   UNL     1       2.216   7.859  18.843  0.00  0.00    +0.000 A 
ATOM      2  C   UNL     1       1.820   8.738  17.824  0.00  0.00    +0.000 A 
ATOM      3  C   UNL     1       0.973   9.816  18.098  0.00  0.00    +0.000 A 
ATOM      4  C   UNL     1       0.491  10.010  19.392  0.00  0.00    +0.000 A 
ATOM      5  C   UNL     1       0.913   9.156  20.413  0.00  0.00    +0.000 A 
ATOM      6  C   UNL     1       1.813   8.117  20.157  0.00  0.00    +0.000 A 
ENDROOT
BRANCH   1  13
ATOM      7  C   UNL     1       1.553   2.394  21.679  0.00  0.00    +0.000 C 
ATOM      8  N   UNL     1       1.763   2.850  20.303  0.00  0.00    +0.000 NA
ATOM      9  C   UNL     1       3.114   2.506  19.844  0.00  0.00    +0.000 C 
ATOM     10  C   UNL     1       3.615   3.244  18.595  0.00  0.00    +0.000 C 
ATOM     11  C   UNL     1       4.251   4.599  18.924  0.00  0.00    +0.000 C 
ATOM     12  N   UNL     1       3.302   5.635  19.341  0.00  0.00    +0.000 N 
ATOM     13  C   UNL     1       3.114   6.728  18.482  0.00  0.00    +0.000 C 
ATOM     14  O   UNL     1       3.675   6.813  17.387  0.00  0.00    +0.000 OA
ATOM     15  C   UNL     1       2.455   5.295  20.495  0.00  0.00    +0.000 C 
ATOM     16  C   UNL     1       1.378   4.258  20.143  0.00  0.00    +0.000 C 
ENDBRANCH   1  13
BRANCH   5  17
ATOM     17  S   UNL     1       0.181   9.302  22.022  0.00  0.00    +0.000 S 
ATOM     18  O   UNL     1      -0.791   8.240  22.147  0.00  0.00    +0.000 OA
ATOM     19  O   UNL     1       1.237   9.481  22.996  0.00  0.00    +0.000 OA
BRANCH  17  20
ATOM     20  N   UNL     1      -0.702  10.738  21.921  0.00  0.00    +0.000 NA
ATOM     21  H   UNL     1      -1.224  10.758  21.044  0.00  0.00    +0.000 HD
BRANCH  20  22
ATOM     22  C   UNL     1      -1.395  11.177  23.143  0.00  0.00    +0.000 C 
BRANCH  22  23
ATOM     23  C   UNL     1      -2.122  12.512  22.974  0.00  0.00    +0.000 C 
ATOM     24  C   UNL     1      -1.272  13.736  23.276  0.00  0.00    +0.000 C 
ATOM     25  C   UNL     1      -3.474  12.489  23.714  0.00  0.00    +0.000 C 
ATOM     26  O   UNL     1      -4.194  12.324  22.469  0.00  0.00    +0.000 OA
ATOM     27  C   UNL     1      -2.998  12.631  21.712  0.00  0.00    +0.000 C 
ENDBRANCH  22  23
ENDBRANCH  20  22
ENDBRANCH  17  20
ENDBRANCH   5  17
TORSDOF 5
ENDMDL
MODEL 3
REMARK VINA RESULT:      -7.8      0.707      1.100
REMARK  Name = 
REMARK  7 active torsions:
REMARK  status: ('A' for Active; 'I' for Inactive)
REMARK    1  A    between atoms: C_1  and  N_2
REMARK    2  A    between atoms: C_7  and  C_9
REMARK    3  A    between atoms: C_13  and  S_14
REMARK    4  A    between atoms: S_14  and  N_17
REMARK    5  A    between atoms: N_17  and  C_18
REMARK    6  A    between atoms: C_18  and  C_19
REMARK    7  A    between atoms: C_19  and  C_20
REMARK                            x       y       z     vdW  Elec       q    Type
REMARK                         _______ _______ _______ _____ _____    ______ ____
ROOT
ATOM      1  C   UNL     1       2.346   7.955  18.611  0.00  0.00    +0.000 A 
ATOM      2  C   UNL     1       1.758   8.731  17.602  0.00  0.00    +0.000 A 
ATOM      3  C   UNL     1       0.779   9.682  17.908  0.00  0.00    +0.000 A 
ATOM      4  C   UNL     1       0.359   9.846  19.227  0.00  0.00    +0.000 A 
ATOM      5  C   UNL     1       0.968   9.098  20.237  0.00  0.00    +0.000 A 
ATOM      6  C   UNL     1       1.995   8.195  19.944  0.00  0.00    +0.000 A 
ENDROOT
BRANCH   1  13
ATOM      7  C   UNL     1       1.002   1.914  18.819  0.00  0.00    +0.000 C 
ATOM      8  N   UNL     1       1.676   2.813  17.880  0.00  0.00    +0.000 NA
ATOM      9  C   UNL     1       3.119   2.544  17.850  0.00  0.00    +0.000 C 
ATOM     10  C   UNL     1       4.001   3.634  17.228  0.00  0.00    +0.000 C 
ATOM     11  C   UNL     1       4.393   4.724  18.233  0.00  0.00    +0.000 C 
ATOM     12  N   UNL     1       3.299   5.618  18.624  0.00  0.00    +0.000 N 
ATOM     13  C   UNL     1       3.378   6.957  18.215  0.00  0.00    +0.000 C 
ATOM     14  O   UNL     1       4.295   7.381  17.509  0.00  0.00    +0.000 OA
ATOM     15  C   UNL     1       2.108   4.960  19.184  0.00  0.00    +0.000 C 
ATOM     16  C   UNL     1       1.297   4.212  18.115  0.00  0.00    +0.000 C 
ENDBRANCH   1  13
BRANCH   5  17
ATOM     17  S   UNL     1       0.329   9.188  21.888  0.00  0.00    +0.000 S 
ATOM     18  O   UNL     1      -0.680   8.162  22.012  0.00  0.00    +0.000 OA
ATOM     19  O   UNL     1       1.441   9.273  22.811  0.00  0.00    +0.000 OA
BRANCH  17  20
ATOM     20  N   UNL     1      -0.495  10.663  21.908  0.00  0.00    +0.000 NA
ATOM     21  H   UNL     1      -0.927  10.825  20.998  0.00  0.00    +0.000 HD
BRANCH  20  22
ATOM     22  C   UNL     1      -1.291  10.960  23.110  0.00  0.00    +0.000 C 
BRANCH  22  23
ATOM     23  C   UNL     1      -2.064  12.276  23.007  0.00  0.00    +0.000 C 
ATOM     24  C   UNL     1      -3.383  12.295  23.763  0.00  0.00    +0.000 C 
ATOM     25  C   UNL     1      -2.180  12.721  21.535  0.00  0.00    +0.000 C 
ATOM     26  O   UNL     1      -1.156  13.727  21.722  0.00  0.00    +0.000 OA
ATOM     27  C   UNL     1      -1.216  13.553  23.158  0.00  0.00    +0.000 C 
ENDBRANCH  22  23
ENDBRANCH  20  22
ENDBRANCH  17  20
ENDBRANCH   5  17
TORSDOF 5
ENDMDL
MODEL 4
REMARK VINA RESULT:      -7.7      1.211      1.513
REMARK  Name = 
REMARK  7 active torsions:
REMARK  status: ('A' for Active; 'I' for Inactive)
REMARK    1  A    between atoms: C_1  and  N_2
REMARK    2  A    between atoms: C_7  and  C_9
REMARK    3  A    between atoms: C_13  and  S_14
REMARK    4  A    between atoms: S_14  and  N_17
REMARK    5  A    between atoms: N_17  and  C_18
REMARK    6  A    between atoms: C_18  and  C_19
REMARK    7  A    between atoms: C_19  and  C_20
REMARK                            x       y       z     vdW  Elec       q    Type
REMARK                         _______ _______ _______ _____ _____    ______ ____
ROOT
ATOM      1  C   UNL     1       2.212   7.880  18.822  0.00  0.00    +0.000 A 
ATOM      2  C   UNL     1       1.763   8.730  17.800  0.00  0.00    +0.000 A 
ATOM      3  C   UNL     1       0.892   9.788  18.080  0.00  0.00    +0.000 A 
ATOM      4  C   UNL     1       0.440   9.988  19.384  0.00  0.00    +0.000 A 
ATOM      5  C   UNL     1       0.913   9.164  20.407  0.00  0.00    +0.000 A 
ATOM      6  C   UNL     1       1.837   8.147  20.142  0.00  0.00    +0.000 A 
ENDROOT
BRANCH   1  13
ATOM      7  C   UNL     1       1.620   2.366  21.578  0.00  0.00    +0.000 C 
ATOM      8  N   UNL     1       1.833   2.844  20.210  0.00  0.00    +0.000 NA
ATOM      9  C   UNL     1       3.195   2.530  19.759  0.00  0.00    +0.000 C 
ATOM     10  C   UNL     1       3.693   3.293  18.524  0.00  0.00    +0.000 C 
ATOM     11  C   UNL     1       4.303   4.655  18.876  0.00  0.00    +0.000 C 
ATOM     12  N   UNL     1       3.332   5.669  19.299  0.00  0.00    +0.000 N 
ATOM     13  C   UNL     1       3.133   6.770  18.453  0.00  0.00    +0.000 C 
ATOM     14  O   UNL     1       3.701   6.879  17.364  0.00  0.00    +0.000 OA
ATOM     15  C   UNL     1       2.482   5.299  20.441  0.00  0.00    +0.000 C 
ATOM     16  C   UNL     1       1.426   4.247  20.066  0.00  0.00    +0.000 C 
ENDBRANCH   1  13
BRANCH   5  17
ATOM     17  S   UNL     1       0.221   9.314  22.032  0.00  0.00    +0.000 S 
ATOM     18  O   UNL     1      -0.778   8.279  22.168  0.00  0.00    +0.000 OA
ATOM     19  O   UNL     1       1.303   9.453  22.985  0.00  0.00    +0.000 OA
BRANCH  17  20
ATOM     20  N   UNL     1      -0.622  10.776  21.964  0.00  0.00    +0.000 NA
ATOM     21  H   UNL     1      -1.051  10.880  21.044  0.00  0.00    +0.000 HD
BRANCH  20  22
ATOM     22  C   UNL     1      -1.429  11.131  23.143  0.00  0.00    +0.000 C 
BRANCH  22  23
ATOM     23  C   UNL     1      -2.146  12.473  22.996  0.00  0.00    +0.000 C 
ATOM     24  C   UNL     1      -3.482  12.558  23.720  0.00  0.00    +0.000 C 
ATOM     25  C   UNL     1      -2.209  12.894  21.515  0.00  0.00    +0.000 C 
ATOM     26  O   UNL     1      -1.151  13.863  21.708  0.00  0.00    +0.000 OA
ATOM     27  C   UNL     1      -1.252  13.718  23.145  0.00  0.00    +0.000 C 
ENDBRANCH  22  23
ENDBRANCH  20  22
ENDBRANCH  17  20
ENDBRANCH   5  17
TORSDOF 5
ENDMDL
MODEL 5
REMARK VINA RESULT:      -7.6      3.359      8.792
REMARK  Name = 
REMARK  7 active torsions:
REMARK  status: ('A' for Active; 'I' for Inactive)
REMARK    1  A    between atoms: C_1  and  N_2
REMARK    2  A    between atoms: C_7  and  C_9
REMARK    3  A    between atoms: C_13  and  S_14
REMARK    4  A    between atoms: S_14  and  N_17
REMARK    5  A    between atoms: N_17  and  C_18
REMARK    6  A    between atoms: C_18  and  C_19
REMARK    7  A    between atoms: C_19  and  C_20
REMARK                            x       y       z     vdW  Elec       q    Type
REMARK                         _______ _______ _______ _____ _____    ______ ____
ROOT
ATOM      1  C   UNL     1       2.247   6.752  19.275  0.00  0.00    +0.000 A 
ATOM      2  C   UNL     1       1.944   6.499  20.621  0.00  0.00    +0.000 A 
ATOM      3  C   UNL     1       2.021   5.203  21.141  0.00  0.00    +0.000 A 
ATOM      4  C   UNL     1       2.376   4.141  20.309  0.00  0.00    +0.000 A 
ATOM      5  C   UNL     1       2.710   4.397  18.978  0.00  0.00    +0.000 A 
ATOM      6  C   UNL     1       2.700   5.701  18.471  0.00  0.00    +0.000 A 
ENDROOT
BRANCH   1  13
ATOM      7  C   UNL     1      -0.696  10.979  22.714  0.00  0.00    +0.000 C 
ATOM      8  N   UNL     1       0.548  10.926  21.942  0.00  0.00    +0.000 NA
ATOM      9  C   UNL     1       0.446  11.760  20.738  0.00  0.00    +0.000 C 
ATOM     10  C   UNL     1       1.495  11.508  19.647  0.00  0.00    +0.000 C 
ATOM     11  C   UNL     1       1.098  10.374  18.695  0.00  0.00    +0.000 C 
ATOM     12  N   UNL     1       1.163   9.032  19.280  0.00  0.00    +0.000 N 
ATOM     13  C   UNL     1       2.139   8.154  18.785  0.00  0.00    +0.000 C 
ATOM     14  O   UNL     1       2.957   8.490  17.926  0.00  0.00    +0.000 OA
ATOM     15  C   UNL     1       0.368   8.831  20.502  0.00  0.00    +0.000 C 
ATOM     16  C   UNL     1       0.981   9.541  21.720  0.00  0.00    +0.000 C 
ENDBRANCH   1  13
BRANCH   5  17
ATOM     17  S   UNL     1       3.007   3.036  17.881  0.00  0.00    +0.000 S 
ATOM     18  O   UNL     1       2.966   1.831  18.676  0.00  0.00    +0.000 OA
ATOM     19  O   UNL     1       2.175   3.198  16.707  0.00  0.00    +0.000 OA
BRANCH  17  20
ATOM     20  N   UNL     1       4.620   3.245  17.426  0.00  0.00    +0.000 NA
ATOM     21  H   UNL     1       5.139   2.385  17.603  0.00  0.00    +0.000 HD
BRANCH  20  22
ATOM     22  C   UNL     1       4.863   3.946  16.154  0.00  0.00    +0.000 C 
BRANCH  22  23
ATOM     23  C   UNL     1       5.866   5.094  16.285  0.00  0.00    +0.000 C 
ATOM     24  C   UNL     1       5.286   6.474  16.018  0.00  0.00    +0.000 C 
ATOM     25  C   UNL     1       7.147   4.786  15.483  0.00  0.00    +0.000 C 
ATOM     26  O   UNL     1       7.871   4.463  16.695  0.00  0.00    +0.000 OA
ATOM     27  C   UNL     1       6.804   5.014  17.504  0.00  0.00    +0.000 C 
ENDBRANCH  22  23
ENDBRANCH  20  22
ENDBRANCH  17  20
ENDBRANCH   5  17
TORSDOF 5
ENDMDL
MODEL 6
REMARK VINA RESULT:      -7.5      3.614      8.539
REMARK  Name = 
REMARK  7 active torsions:
REMARK  status: ('A' for Active; 'I' for Inactive)
REMARK    1  A    between atoms: C_1  and  N_2
REMARK    2  A    between atoms: C_7  and  C_9
REMARK    3  A    between atoms: C_13  and  S_14
REMARK    4  A    between atoms: S_14  and  N_17
REMARK    5  A    between atoms: N_17  and  C_18
REMARK    6  A    between atoms: C_18  and  C_19
REMARK    7  A    between atoms: C_19  and  C_20
REMARK                            x       y       z     vdW  Elec       q    Type
REMARK                         _______ _______ _______ _____ _____    ______ ____
ROOT
ATOM      1  C   UNL     1       2.396   6.758  18.275  0.00  0.00    +0.000 A 
ATOM      2  C   UNL     1       1.398   5.885  17.820  0.00  0.00    +0.000 A 
ATOM      3  C   UNL     1       1.592   4.500  17.845  0.00  0.00    +0.000 A 
ATOM      4  C   UNL     1       2.801   3.977  18.303  0.00  0.00    +0.000 A 
ATOM      5  C   UNL     1       3.782   4.844  18.788  0.00  0.00    +0.000 A 
ATOM      6  C   UNL     1       3.565   6.226  18.827  0.00  0.00    +0.000 A 
ENDROOT
BRANCH   1  13
ATOM      7  C   UNL     1      -0.089   9.622  23.171  0.00  0.00    +0.000 C 
ATOM      8  N   UNL     1       0.994   9.899  22.225  0.00  0.00    +0.000 NA
ATOM      9  C   UNL     1       0.629  11.003  21.329  0.00  0.00    +0.000 C 
ATOM     10  C   UNL     1       1.473  11.151  20.056  0.00  0.00    +0.000 C 
ATOM     11  C   UNL     1       0.969  10.271  18.906  0.00  0.00    +0.000 C 
ATOM     12  N   UNL     1       1.212   8.837  19.081  0.00  0.00    +0.000 N 
ATOM     13  C   UNL     1       2.126   8.221  18.214  0.00  0.00    +0.000 C 
ATOM     14  O   UNL     1       2.754   8.851  17.360  0.00  0.00    +0.000 OA
ATOM     15  C   UNL     1       0.666   8.245  20.313  0.00  0.00    +0.000 C 
ATOM     16  C   UNL     1       1.452   8.671  21.563  0.00  0.00    +0.000 C 
ENDBRANCH   1  13
BRANCH   5  17
ATOM     17  S   UNL     1       5.375   4.197  19.220  0.00  0.00    +0.000 S 
ATOM     18  O   UNL     1       6.145   5.290  19.768  0.00  0.00    +0.000 OA
ATOM     19  O   UNL     1       5.190   2.960  19.949  0.00  0.00    +0.000 OA
BRANCH  17  20
ATOM     20  N   UNL     1       6.069   3.837  17.723  0.00  0.00    +0.000 NA
ATOM     21  H   UNL     1       6.652   3.004  17.808  0.00  0.00    +0.000 HD
BRANCH  20  22
ATOM     22  C   UNL     1       5.195   3.947  16.543  0.00  0.00    +0.000 C 
BRANCH  22  23
ATOM     23  C   UNL     1       5.714   4.942  15.504  0.00  0.00    +0.000 C 
ATOM     24  C   UNL     1       5.775   4.397  14.085  0.00  0.00    +0.000 C 
ATOM     25  C   UNL     1       7.028   5.590  15.984  0.00  0.00    +0.000 C 
ATOM     26  O   UNL     1       6.340   6.818  16.321  0.00  0.00    +0.000 OA
ATOM     27  C   UNL     1       5.154   6.372  15.621  0.00  0.00    +0.000 C 
ENDBRANCH  22  23
ENDBRANCH  20  22
ENDBRANCH  17  20
ENDBRANCH   5  17
TORSDOF 5
ENDMDL
MODEL 7
REMARK VINA RESULT:      -7.4      3.369      8.600
REMARK  Name = 
REMARK  7 active torsions:
REMARK  status: ('A' for Active; 'I' for Inactive)
REMARK    1  A    between atoms: C_1  and  N_2
REMARK    2  A    between atoms: C_7  and  C_9
REMARK    3  A    between atoms: C_13  and  S_14
REMARK    4  A    between atoms: S_14  and  N_17
REMARK    5  A    between atoms: N_17  and  C_18
REMARK    6  A    between atoms: C_18  and  C_19
REMARK    7  A    between atoms: C_19  and  C_20
REMARK                            x       y       z     vdW  Elec       q    Type
REMARK                         _______ _______ _______ _____ _____    ______ ____
ROOT
ATOM      1  C   UNL     1       2.191   6.986  19.279  0.00  0.00    +0.000 A 
ATOM      2  C   UNL     1       1.615   6.631  20.508  0.00  0.00    +0.000 A 
ATOM      3  C   UNL     1       1.768   5.340  21.024  0.00  0.00    +0.000 A 
ATOM      4  C   UNL     1       2.477   4.383  20.299  0.00  0.00    +0.000 A 
ATOM      5  C   UNL     1       3.079   4.745  19.093  0.00  0.00    +0.000 A 
ATOM      6  C   UNL     1       2.986   6.054  18.607  0.00  0.00    +0.000 A 
ENDROOT
BRANCH   1  13
ATOM      7  C   UNL     1      -0.807  11.083  22.827  0.00  0.00    +0.000 C 
ATOM      8  N   UNL     1       0.399  11.090  21.997  0.00  0.00    +0.000 NA
ATOM      9  C   UNL     1       0.194  11.905  20.792  0.00  0.00    +0.000 C 
ATOM     10  C   UNL     1       1.201  11.699  19.654  0.00  0.00    +0.000 C 
ATOM     11  C   UNL     1       0.821  10.536  18.730  0.00  0.00    +0.000 C 
ATOM     12  N   UNL     1       0.987   9.205  19.321  0.00  0.00    +0.000 N 
ATOM     13  C   UNL     1       1.983   8.376  18.786  0.00  0.00    +0.000 C 
ATOM     14  O   UNL     1       2.740   8.747  17.886  0.00  0.00    +0.000 OA
ATOM     15  C   UNL     1       0.264   8.974  20.582  0.00  0.00    +0.000 C 
ATOM     16  C   UNL     1       0.895   9.728  21.763  0.00  0.00    +0.000 C 
ENDBRANCH   1  13
BRANCH   5  17
ATOM     17  S   UNL     1       3.844   3.495  18.096  0.00  0.00    +0.000 S 
ATOM     18  O   UNL     1       3.327   2.220  18.538  0.00  0.00    +0.000 OA
ATOM     19  O   UNL     1       3.773   3.901  16.708  0.00  0.00    +0.000 OA
BRANCH  17  20
ATOM     20  N   UNL     1       5.461   3.541  18.584  0.00  0.00    +0.000 NA
ATOM     21  H   UNL     1       6.040   3.065  17.892  0.00  0.00    +0.000 HD
BRANCH  20  22
ATOM     22  C   UNL     1       5.951   4.816  19.132  0.00  0.00    +0.000 C 
BRANCH  22  23
ATOM     23  C   UNL     1       7.019   5.474  18.256  0.00  0.00    +0.000 C 
ATOM     24  C   UNL     1       8.086   6.235  19.027  0.00  0.00    +0.000 C 
ATOM     25  C   UNL     1       6.362   6.288  17.124  0.00  0.00    +0.000 C 
ATOM     26  O   UNL     1       6.680   5.262  16.153  0.00  0.00    +0.000 OA
ATOM     27  C   UNL     1       7.553   4.604  17.102  0.00  0.00    +0.000 C 
ENDBRANCH  22  23
ENDBRANCH  20  22
ENDBRANCH  17  20
ENDBRANCH   5  17
TORSDOF 5
ENDMDL
MODEL 8
REMARK VINA RESULT:      -7.4      3.608      8.787
REMARK  Name = 
REMARK  7 active torsions:
REMARK  status: ('A' for Active; 'I' for Inactive)
REMARK    1  A    between atoms: C_1  and  N_2
REMARK    2  A    between atoms: C_7  and  C_9
REMARK    3  A    between atoms: C_13  and  S_14
REMARK    4  A    between atoms: S_14  and  N_17
REMARK    5  A    between atoms: N_17  and  C_18
REMARK    6  A    between atoms: C_18  and  C_19
REMARK    7  A    between atoms: C_19  and  C_20
REMARK                            x       y       z     vdW  Elec       q    Type
REMARK                         _______ _______ _______ _____ _____    ______ ____
ROOT
ATOM      1  C   UNL     1       2.390   6.825  18.251  0.00  0.00    +0.000 A 
ATOM      2  C   UNL     1       1.402   5.925  17.825  0.00  0.00    +0.000 A 
ATOM      3  C   UNL     1       1.628   4.546  17.857  0.00  0.00    +0.000 A 
ATOM      4  C   UNL     1       2.858   4.054  18.291  0.00  0.00    +0.000 A 
ATOM      5  C   UNL     1       3.830   4.947  18.747  0.00  0.00    +0.000 A 
ATOM      6  C   UNL     1       3.583   6.324  18.780  0.00  0.00    +0.000 A 
ENDROOT
BRANCH   1  13
ATOM      7  C   UNL     1      -0.094   9.663  23.163  0.00  0.00    +0.000 C 
ATOM      8  N   UNL     1       0.970   9.958  22.200  0.00  0.00    +0.000 NA
ATOM      9  C   UNL     1       0.567  11.048  21.302  0.00  0.00    +0.000 C 
ATOM     10  C   UNL     1       1.390  11.207  20.017  0.00  0.00    +0.000 C 
ATOM     11  C   UNL     1       0.891  10.309  18.879  0.00  0.00    +0.000 C 
ATOM     12  N   UNL     1       1.169   8.881  19.060  0.00  0.00    +0.000 N 
ATOM     13  C   UNL     1       2.085   8.281  18.184  0.00  0.00    +0.000 C 
ATOM     14  O   UNL     1       2.687   8.919  17.318  0.00  0.00    +0.000 OA
ATOM     15  C   UNL     1       0.654   8.285  20.303  0.00  0.00    +0.000 C 
ATOM     16  C   UNL     1       1.446   8.736  21.540  0.00  0.00    +0.000 C 
ENDBRANCH   1  13
BRANCH   5  17
ATOM     17  S   UNL     1       5.446   4.339  19.149  0.00  0.00    +0.000 S 
ATOM     18  O   UNL     1       6.184   5.439  19.727  0.00  0.00    +0.000 OA
ATOM     19  O   UNL     1       5.307   3.074  19.839  0.00  0.00    +0.000 OA
BRANCH  17  20
ATOM     20  N   UNL     1       6.141   4.051  17.637  0.00  0.00    +0.000 NA
ATOM     21  H   UNL     1       6.835   3.306  17.716  0.00  0.00    +0.000 HD
BRANCH  20  22
ATOM     22  C   UNL     1       5.228   4.019  16.483  0.00  0.00    +0.000 C 
BRANCH  22  23
ATOM     23  C   UNL     1       5.654   4.960  15.355  0.00  0.00    +0.000 C 
ATOM     24  C   UNL     1       5.172   6.394  15.512  0.00  0.00    +0.000 C 
ATOM     25  C   UNL     1       5.333   4.337  13.982  0.00  0.00    +0.000 C 
ATOM     26  O   UNL     1       6.725   3.999  13.770  0.00  0.00    +0.000 OA
ATOM     27  C   UNL     1       7.118   4.819  14.897  0.00  0.00    +0.000 C 
ENDBRANCH  22  23
ENDBRANCH  20  22
ENDBRANCH  17  20
ENDBRANCH   5  17
TORSDOF 5
ENDMDL
MODEL 9
REMARK VINA RESULT:      -7.3      2.442      8.978
REMARK  Name = 
REMARK  7 active torsions:
REMARK  status: ('A' for Active; 'I' for Inactive)
REMARK    1  A    between atoms: C_1  and  N_2
REMARK    2  A    between atoms: C_7  and  C_9
REMARK    3  A    between atoms: C_13  and  S_14
REMARK    4  A    between atoms: S_14  and  N_17
REMARK    5  A    between atoms: N_17  and  C_18
REMARK    6  A    between atoms: C_18  and  C_19
REMARK    7  A    between atoms: C_19  and  C_20
REMARK                            x       y       z     vdW  Elec       q    Type
REMARK                         _______ _______ _______ _____ _____    ______ ____
ROOT
ATOM      1  C   UNL     1       1.104   8.373  20.195  0.00  0.00    +0.000 A 
ATOM      2  C   UNL     1       1.231   9.253  19.109  0.00  0.00    +0.000 A 
ATOM      3  C   UNL     1       2.047   8.932  18.019  0.00  0.00    +0.000 A 
ATOM      4  C   UNL     1       2.765   7.737  18.019  0.00  0.00    +0.000 A 
ATOM      5  C   UNL     1       2.612   6.845  19.082  0.00  0.00    +0.000 A 
ATOM      6  C   UNL     1       1.746   7.132  20.142  0.00  0.00    +0.000 A 
ENDROOT
BRANCH   1  13
ATOM      7  C   UNL     1       0.485  14.376  21.586  0.00  0.00    +0.000 C 
ATOM      8  N   UNL     1      -0.412  13.226  21.453  0.00  0.00    +0.000 NA
ATOM      9  C   UNL     1      -0.926  12.816  22.765  0.00  0.00    +0.000 C 
ATOM     10  C   UNL     1      -1.552  11.417  22.842  0.00  0.00    +0.000 C 
ATOM     11  C   UNL     1      -0.513  10.317  23.090  0.00  0.00    +0.000 C 
ATOM     12  N   UNL     1       0.359  10.030  21.948  0.00  0.00    +0.000 N 
ATOM     13  C   UNL     1       0.225   8.781  21.325  0.00  0.00    +0.000 C 
ATOM     14  O   UNL     1      -0.624   7.956  21.673  0.00  0.00    +0.000 OA
ATOM     15  C   UNL     1       1.107  11.179  21.414  0.00  0.00    +0.000 C 
ATOM     16  C   UNL     1       0.202  12.160  20.651  0.00  0.00    +0.000 C 
ENDBRANCH   1  13
BRANCH   5  17
ATOM     17  S   UNL     1       3.641   5.404  19.161  0.00  0.00    +0.000 S 
ATOM     18  O   UNL     1       4.974   5.848  19.499  0.00  0.00    +0.000 OA
ATOM     19  O   UNL     1       2.960   4.390  19.938  0.00  0.00    +0.000 OA
BRANCH  17  20
ATOM     20  N   UNL     1       3.712   4.887  17.554  0.00  0.00    +0.000 NA
ATOM     21  H   UNL     1       3.393   5.636  16.940  0.00  0.00    +0.000 HD
BRANCH  20  22
ATOM     22  C   UNL     1       4.912   4.133  17.153  0.00  0.00    +0.000 C 
BRANCH  22  23
ATOM     23  C   UNL     1       5.717   4.828  16.054  0.00  0.00    +0.000 C 
ATOM     24  C   UNL     1       6.082   3.936  14.878  0.00  0.00    +0.000 C 
ATOM     25  C   UNL     1       6.914   5.588  16.660  0.00  0.00    +0.000 C 
ATOM     26  O   UNL     1       6.237   6.857  16.498  0.00  0.00    +0.000 OA
ATOM     27  C   UNL     1       5.227   6.236  15.667  0.00  0.00    +0.000 C 
ENDBRANCH  22  23
ENDBRANCH  20  22
ENDBRANCH  17  20
ENDBRANCH   5  17
TORSDOF 5
ENDMDL
