MODEL 1
REMARK VINA RESULT:      -8.6      0.000      0.000
REMARK  Name = 
REMARK  7 active torsions:
REMARK  status: ('A' for Active; 'I' for Inactive)
REMARK    1  A    between atoms: C_1  and  C_2
REMARK    2  A    between atoms: C_6  and  C_7
REMARK    3  A    between atoms: C_12  and  O_13
REMARK    4  A    between atoms: O_13  and  C_14
REMARK    5  A    between atoms: C_14  and  C_15
REMARK    6  A    between atoms: C_15  and  C_16
REMARK    7  A    between atoms: C_16  and  C_17
REMARK                            x       y       z     vdW  Elec       q    Type
REMARK                         _______ _______ _______ _____ _____    ______ ____
ROOT
ATOM      1  C   UNL     1       3.479   6.075  18.058  0.00  0.00    +0.000 C 
ATOM      2  O   UNL     1       3.009   7.191  17.828  0.00  0.00    +0.000 OA
ATOM      3  N   UNL     1       4.690   5.657  17.524  0.00  0.00    +0.000 N 
ATOM      4  C   UNL     1       5.434   4.443  17.793  0.00  0.00    +0.000 C 
ATOM      5  C   UNL     1       6.877   4.844  17.614  0.00  0.00    +0.000 C 
ATOM      6  C   UNL     1       6.854   5.905  16.512  0.00  0.00    +0.000 C 
ATOM      7  C   UNL     1       5.435   6.505  16.597  0.00  0.00    +0.000 C 
ENDROOT
BRANCH   1  13
ATOM      8  C   UNL     1       0.497   2.081  18.763  0.00  0.00    +0.000 C 
ATOM      9  C   UNL     1       1.261   3.257  19.283  0.00  0.00    +0.000 A 
ATOM     10  C   UNL     1       1.301   3.534  20.646  0.00  0.00    +0.000 A 
ATOM     11  N   UNL     1       2.032   4.530  21.193  0.00  0.00    +0.000 NA
ATOM     12  C   UNL     1       2.744   5.297  20.333  0.00  0.00    +0.000 A 
ATOM     13  C   UNL     1       2.710   5.173  18.956  0.00  0.00    +0.000 A 
ATOM     14  C   UNL     1       1.975   4.106  18.425  0.00  0.00    +0.000 A 
ENDBRANCH   1  13
BRANCH   6  15
ATOM     15  O   UNL     1       7.853   6.906  16.735  0.00  0.00    +0.000 OA
BRANCH  15  16
ATOM     16  C   UNL     1       7.345   8.054  17.417  0.00  0.00    +0.000 C 
BRANCH  16  17
ATOM     17  C   UNL     1       8.469   8.706  18.217  0.00  0.00    +0.000 C 
BRANCH  17  18
ATOM     18  C   UNL     1       8.405  10.226  18.076  0.00  0.00    +0.000 C 
BRANCH  18  19
ATOM     19  C   UNL     1       9.598  10.917  18.679  0.00  0.00    +0.000 A 
ATOM     20  C   UNL     1       9.650  11.173  20.055  0.00  0.00    +0.000 A 
ATOM     21  C   UNL     1      10.763  11.805  20.614  0.00  0.00    +0.000 A 
ATOM     22  C   UNL     1      11.829  12.190  19.803  0.00  0.00    +0.000 A 
ATOM     23  C   UNL     1      11.781  11.951  18.432  0.00  0.00    +0.000 A 
ATOM     24  C   UNL     1      10.670  11.319  17.871  0.00  0.00    +0.000 A 
ENDBRANCH  18  19
ENDBRANCH  17  18
ENDBRANCH  16  17
ENDBRANCH  15  16
ENDBRANCH   6  15
TORSDOF 6
ENDMDL
MODEL 2
REMARK VINA RESULT:      -8.6      0.975      1.675
REMARK  Name = 
REMARK  7 active torsions:
REMARK  status: ('A' for Active; 'I' for Inactive)
REMARK    1  A    between atoms: C_1  and  C_2
REMARK    2  A    between atoms: C_6  and  C_7
REMARK    3  A    between atoms: C_12  and  O_13
REMARK    4  A    between atoms: O_13  and  C_14
REMARK    5  A    between atoms: C_14  and  C_15
REMARK    6  A    between atoms: C_15  and  C_16
REMARK    7  A    between atoms: C_16  and  C_17
REMARK                            x       y       z     vdW  Elec       q    Type
REMARK                         _______ _______ _______ _____ _____    ______ ____
ROOT
ATOM      1  C   UNL     1       3.411   5.844  18.289  0.00  0.00    +0.000 C 
ATOM      2  O   UNL     1       3.031   6.979  18.583  0.00  0.00    +0.000 OA
ATOM      3  N   UNL     1       4.613   5.611  17.637  0.00  0.00    +0.000 N 
ATOM      4  C   UNL     1       5.258   4.349  17.337  0.00  0.00    +0.000 C 
ATOM      5  C   UNL     1       6.732   4.665  17.373  0.00  0.00    +0.000 C 
ATOM      6  C   UNL     1       6.835   6.106  16.869  0.00  0.00    +0.000 C 
ATOM      7  C   UNL     1       5.459   6.720  17.201  0.00  0.00    +0.000 C 
ENDROOT
BRANCH   1  13
ATOM      8  C   UNL     1       1.575   2.699  21.765  0.00  0.00    +0.000 C 
ATOM      9  C   UNL     1       1.673   3.183  20.354  0.00  0.00    +0.000 A 
ATOM     10  C   UNL     1       0.919   2.592  19.344  0.00  0.00    +0.000 A 
ATOM     11  N   UNL     1       0.898   3.025  18.065  0.00  0.00    +0.000 NA
ATOM     12  C   UNL     1       1.682   4.092  17.777  0.00  0.00    +0.000 A 
ATOM     13  C   UNL     1       2.539   4.703  18.674  0.00  0.00    +0.000 A 
ATOM     14  C   UNL     1       2.506   4.254  20.001  0.00  0.00    +0.000 A 
ENDBRANCH   1  13
BRANCH   6  15
ATOM     15  O   UNL     1       7.889   6.813  17.531  0.00  0.00    +0.000 OA
BRANCH  15  16
ATOM     16  C   UNL     1       7.767   8.231  17.412  0.00  0.00    +0.000 C 
BRANCH  16  17
ATOM     17  C   UNL     1       8.596   8.904  18.501  0.00  0.00    +0.000 C 
BRANCH  17  18
ATOM     18  C   UNL     1       8.471  10.424  18.399  0.00  0.00    +0.000 C 
BRANCH  18  19
ATOM     19  C   UNL     1       9.760  11.136  18.708  0.00  0.00    +0.000 A 
ATOM     20  C   UNL     1      10.626  11.514  17.675  0.00  0.00    +0.000 A 
ATOM     21  C   UNL     1      11.817  12.184  17.962  0.00  0.00    +0.000 A 
ATOM     22  C   UNL     1      12.154  12.477  19.284  0.00  0.00    +0.000 A 
ATOM     23  C   UNL     1      11.304  12.094  20.318  0.00  0.00    +0.000 A 
ATOM     24  C   UNL     1      10.113  11.424  20.033  0.00  0.00    +0.000 A 
ENDBRANCH  18  19
ENDBRANCH  17  18
ENDBRANCH  16  17
ENDBRANCH  15  16
ENDBRANCH   6  15
TORSDOF 6
ENDMDL
MODEL 3
REMARK VINA RESULT:      -8.5      0.970      1.371
REMARK  Name = 
REMARK  7 active torsions:
REMARK  status: ('A' for Active; 'I' for Inactive)
REMARK    1  A    between atoms: C_1  and  C_2
REMARK    2  A    between atoms: C_6  and  C_7
REMARK    3  A    between atoms: C_12  and  O_13
REMARK    4  A    between atoms: O_13  and  C_14
REMARK    5  A    between atoms: C_14  and  C_15
REMARK    6  A    between atoms: C_15  and  C_16
REMARK    7  A    between atoms: C_16  and  C_17
REMARK                            x       y       z     vdW  Elec       q    Type
REMARK                         _______ _______ _______ _____ _____    ______ ____
ROOT
ATOM      1  C   UNL     1       3.237   5.815  18.050  0.00  0.00    +0.000 C 
ATOM      2  O   UNL     1       2.928   6.965  18.367  0.00  0.00    +0.000 OA
ATOM      3  N   UNL     1       4.342   5.537  17.258  0.00  0.00    +0.000 N 
ATOM      4  C   UNL     1       4.909   4.251  16.905  0.00  0.00    +0.000 C 
ATOM      5  C   UNL     1       6.384   4.525  16.751  0.00  0.00    +0.000 C 
ATOM      6  C   UNL     1       6.463   5.954  16.210  0.00  0.00    +0.000 C 
ATOM      7  C   UNL     1       5.156   6.613  16.698  0.00  0.00    +0.000 C 
ENDROOT
BRANCH   1  13
ATOM      8  C   UNL     1       1.690   2.853  21.815  0.00  0.00    +0.000 C 
ATOM      9  C   UNL     1       1.663   3.274  20.381  0.00  0.00    +0.000 A 
ATOM     10  C   UNL     1       0.812   2.654  19.471  0.00  0.00    +0.000 A 
ATOM     11  N   UNL     1       0.678   3.032  18.182  0.00  0.00    +0.000 NA
ATOM     12  C   UNL     1       1.446   4.072  17.776  0.00  0.00    +0.000 A 
ATOM     13  C   UNL     1       2.390   4.706  18.564  0.00  0.00    +0.000 A 
ATOM     14  C   UNL     1       2.474   4.315  19.906  0.00  0.00    +0.000 A 
ENDBRANCH   1  13
BRANCH   6  15
ATOM     15  O   UNL     1       7.611   6.640  16.721  0.00  0.00    +0.000 OA
BRANCH  15  16
ATOM     16  C   UNL     1       7.271   7.813  17.462  0.00  0.00    +0.000 C 
BRANCH  16  17
ATOM     17  C   UNL     1       8.539   8.604  17.768  0.00  0.00    +0.000 C 
BRANCH  17  18
ATOM     18  C   UNL     1       8.183  10.001  18.273  0.00  0.00    +0.000 C 
BRANCH  18  19
ATOM     19  C   UNL     1       9.376  10.750  18.803  0.00  0.00    +0.000 A 
ATOM     20  C   UNL     1       9.484  11.035  20.169  0.00  0.00    +0.000 A 
ATOM     21  C   UNL     1      10.597  11.721  20.661  0.00  0.00    +0.000 A 
ATOM     22  C   UNL     1      11.607  12.131  19.791  0.00  0.00    +0.000 A 
ATOM     23  C   UNL     1      11.501  11.862  18.428  0.00  0.00    +0.000 A 
ATOM     24  C   UNL     1      10.390  11.176  17.935  0.00  0.00    +0.000 A 
ENDBRANCH  18  19
ENDBRANCH  17  18
ENDBRANCH  16  17
ENDBRANCH  15  16
ENDBRANCH   6  15
TORSDOF 6
ENDMDL
MODEL 4
REMARK VINA RESULT:      -8.3      4.546      7.187
REMARK  Name = 
REMARK  7 active torsions:
REMARK  status: ('A' for Active; 'I' for Inactive)
REMARK    1  A    between atoms: C_1  and  C_2
REMARK    2  A    between atoms: C_6  and  C_7
REMARK    3  A    between atoms: C_12  and  O_13
REMARK    4  A    between atoms: O_13  and  C_14
REMARK    5  A    between atoms: C_14  and  C_15
REMARK    6  A    between atoms: C_15  and  C_16
REMARK    7  A    between atoms: C_16  and  C_17
REMARK                            x       y       z     vdW  Elec       q    Type
REMARK                         _______ _______ _______ _____ _____    ______ ____
ROOT
ATOM      1  C   UNL     1       5.099   3.856  18.154  0.00  0.00    +0.000 C 
ATOM      2  O   UNL     1       5.763   3.795  19.190  0.00  0.00    +0.000 OA
ATOM      3  N   UNL     1       3.761   3.491  18.110  0.00  0.00    +0.000 N 
ATOM      4  C   UNL     1       2.816   3.623  17.019  0.00  0.00    +0.000 C 
ATOM      5  C   UNL     1       1.486   3.826  17.700  0.00  0.00    +0.000 C 
ATOM      6  C   UNL     1       1.579   3.008  18.990  0.00  0.00    +0.000 C 
ATOM      7  C   UNL     1       3.091   2.944  19.287  0.00  0.00    +0.000 C 
ENDROOT
BRANCH   1  13
ATOM      8  C   UNL     1       6.014   3.569  13.212  0.00  0.00    +0.000 C 
ATOM      9  C   UNL     1       6.221   4.202  14.551  0.00  0.00    +0.000 A 
ATOM     10  C   UNL     1       7.043   5.316  14.692  0.00  0.00    +0.000 A 
ATOM     11  N   UNL     1       7.215   5.985  15.853  0.00  0.00    +0.000 NA
ATOM     12  C   UNL     1       6.546   5.507  16.930  0.00  0.00    +0.000 A 
ATOM     13  C   UNL     1       5.775   4.359  16.929  0.00  0.00    +0.000 A 
ATOM     14  C   UNL     1       5.585   3.713  15.701  0.00  0.00    +0.000 A 
ENDBRANCH   1  13
BRANCH   6  15
ATOM     15  O   UNL     1       0.868   3.642  20.059  0.00  0.00    +0.000 OA
BRANCH  15  16
ATOM     16  C   UNL     1       1.733   4.301  20.985  0.00  0.00    +0.000 C 
BRANCH  16  17
ATOM     17  C   UNL     1       1.484   5.805  20.927  0.00  0.00    +0.000 C 
BRANCH  17  18
ATOM     18  C   UNL     1       2.460   6.467  19.954  0.00  0.00    +0.000 C 
BRANCH  18  19
ATOM     19  C   UNL     1       1.992   7.820  19.491  0.00  0.00    +0.000 A 
ATOM     20  C   UNL     1       1.258   8.648  20.347  0.00  0.00    +0.000 A 
ATOM     21  C   UNL     1       0.833   9.908  19.919  0.00  0.00    +0.000 A 
ATOM     22  C   UNL     1       1.134  10.346  18.630  0.00  0.00    +0.000 A 
ATOM     23  C   UNL     1       1.853   9.523  17.767  0.00  0.00    +0.000 A 
ATOM     24  C   UNL     1       2.279   8.264  18.193  0.00  0.00    +0.000 A 
ENDBRANCH  18  19
ENDBRANCH  17  18
ENDBRANCH  16  17
ENDBRANCH  15  16
ENDBRANCH   6  15
TORSDOF 6
ENDMDL
MODEL 5
REMARK VINA RESULT:      -8.3      4.484      7.221
REMARK  Name = 
REMARK  7 active torsions:
REMARK  status: ('A' for Active; 'I' for Inactive)
REMARK    1  A    between atoms: C_1  and  C_2
REMARK    2  A    between atoms: C_6  and  C_7
REMARK    3  A    between atoms: C_12  and  O_13
REMARK    4  A    between atoms: O_13  and  C_14
REMARK    5  A    between atoms: C_14  and  C_15
REMARK    6  A    between atoms: C_15  and  C_16
REMARK    7  A    between atoms: C_16  and  C_17
REMARK                            x       y       z     vdW  Elec       q    Type
REMARK                         _______ _______ _______ _____ _____    ______ ____
ROOT
ATOM      1  C   UNL     1       5.402   4.006  18.213  0.00  0.00    +0.000 C 
ATOM      2  O   UNL     1       6.085   4.137  19.230  0.00  0.00    +0.000 OA
ATOM      3  N   UNL     1       4.105   3.515  18.250  0.00  0.00    +0.000 N 
ATOM      4  C   UNL     1       3.135   3.419  17.178  0.00  0.00    +0.000 C 
ATOM      5  C   UNL     1       1.803   3.581  17.865  0.00  0.00    +0.000 C 
ATOM      6  C   UNL     1       1.993   2.943  19.243  0.00  0.00    +0.000 C 
ATOM      7  C   UNL     1       3.509   3.059  19.504  0.00  0.00    +0.000 C 
ENDROOT
BRANCH   1  13
ATOM      8  C   UNL     1       5.795   3.550  13.215  0.00  0.00    +0.000 C 
ATOM      9  C   UNL     1       6.201   4.173  14.512  0.00  0.00    +0.000 A 
ATOM     10  C   UNL     1       7.152   5.189  14.547  0.00  0.00    +0.000 A 
ATOM     11  N   UNL     1       7.510   5.849  15.670  0.00  0.00    +0.000 NA
ATOM     12  C   UNL     1       6.899   5.465  16.816  0.00  0.00    +0.000 A 
ATOM     13  C   UNL     1       6.008   4.412  16.917  0.00  0.00    +0.000 A 
ATOM     14  C   UNL     1       5.629   3.775  15.729  0.00  0.00    +0.000 A 
ENDBRANCH   1  13
BRANCH   6  15
ATOM     15  O   UNL     1       1.241   3.638  20.244  0.00  0.00    +0.000 OA
BRANCH  15  16
ATOM     16  C   UNL     1       2.051   4.495  21.050  0.00  0.00    +0.000 C 
BRANCH  16  17
ATOM     17  C   UNL     1       1.623   5.944  20.838  0.00  0.00    +0.000 C 
BRANCH  17  18
ATOM     18  C   UNL     1       2.435   6.577  19.709  0.00  0.00    +0.000 C 
BRANCH  18  19
ATOM     19  C   UNL     1       1.962   7.961  19.358  0.00  0.00    +0.000 A 
ATOM     20  C   UNL     1       2.264   8.519  18.110  0.00  0.00    +0.000 A 
ATOM     21  C   UNL     1       1.816   9.801  17.782  0.00  0.00    +0.000 A 
ATOM     22  C   UNL     1       1.066  10.535  18.700  0.00  0.00    +0.000 A 
ATOM     23  C   UNL     1       0.771   9.993  19.948  0.00  0.00    +0.000 A 
ATOM     24  C   UNL     1       1.218   8.713  20.278  0.00  0.00    +0.000 A 
ENDBRANCH  18  19
ENDBRANCH  17  18
ENDBRANCH  16  17
ENDBRANCH  15  16
ENDBRANCH   6  15
TORSDOF 6
ENDMDL
MODEL 6
REMARK VINA RESULT:      -8.1      1.195      1.669
REMARK  Name = 
REMARK  7 active torsions:
REMARK  status: ('A' for Active; 'I' for Inactive)
REMARK    1  A    between atoms: C_1  and  C_2
REMARK    2  A    between atoms: C_6  and  C_7
REMARK    3  A    between atoms: C_12  and  O_13
REMARK    4  A    between atoms: O_13  and  C_14
REMARK    5  A    between atoms: C_14  and  C_15
REMARK    6  A    between atoms: C_15  and  C_16
REMARK    7  A    between atoms: C_16  and  C_17
REMARK                            x       y       z     vdW  Elec       q    Type
REMARK                         _______ _______ _______ _____ _____    ______ ____
ROOT
ATOM      1  C   UNL     1       3.899   6.278  18.056  0.00  0.00    +0.000 C 
ATOM      2  O   UNL     1       3.502   7.173  17.309  0.00  0.00    +0.000 OA
ATOM      3  N   UNL     1       5.247   5.982  18.207  0.00  0.00    +0.000 N 
ATOM      4  C   UNL     1       5.879   5.060  19.128  0.00  0.00    +0.000 C 
ATOM      5  C   UNL     1       7.227   5.677  19.405  0.00  0.00    +0.000 C 
ATOM      6  C   UNL     1       7.614   6.375  18.100  0.00  0.00    +0.000 C 
ATOM      7  C   UNL     1       6.262   6.680  17.422  0.00  0.00    +0.000 C 
ENDROOT
BRANCH   1  13
ATOM      8  C   UNL     1       0.924   2.256  18.617  0.00  0.00    +0.000 C 
ATOM      9  C   UNL     1       1.438   3.582  19.077  0.00  0.00    +0.000 A 
ATOM     10  C   UNL     1       0.994   4.144  20.271  0.00  0.00    +0.000 A 
ATOM     11  N   UNL     1       1.470   5.298  20.786  0.00  0.00    +0.000 NA
ATOM     12  C   UNL     1       2.426   5.931  20.064  0.00  0.00    +0.000 A 
ATOM     13  C   UNL     1       2.879   5.517  18.824  0.00  0.00    +0.000 A 
ATOM     14  C   UNL     1       2.394   4.295  18.339  0.00  0.00    +0.000 A 
ENDBRANCH   1  13
BRANCH   6  15
ATOM     15  O   UNL     1       8.348   7.578  18.353  0.00  0.00    +0.000 OA
BRANCH  15  16
ATOM     16  C   UNL     1       7.773   8.722  17.720  0.00  0.00    +0.000 C 
BRANCH  16  17
ATOM     17  C   UNL     1       8.616   9.953  18.037  0.00  0.00    +0.000 C 
BRANCH  17  18
ATOM     18  C   UNL     1       9.261   9.814  19.416  0.00  0.00    +0.000 C 
BRANCH  18  19
ATOM     19  C   UNL     1       9.665  11.138  20.006  0.00  0.00    +0.000 A 
ATOM     20  C   UNL     1      10.622  11.936  19.369  0.00  0.00    +0.000 A 
ATOM     21  C   UNL     1      10.988  13.169  19.913  0.00  0.00    +0.000 A 
ATOM     22  C   UNL     1      10.405  13.611  21.100  0.00  0.00    +0.000 A 
ATOM     23  C   UNL     1       9.461  12.817  21.748  0.00  0.00    +0.000 A 
ATOM     24  C   UNL     1       9.093  11.585  21.205  0.00  0.00    +0.000 A 
ENDBRANCH  18  19
ENDBRANCH  17  18
ENDBRANCH  16  17
ENDBRANCH  15  16
ENDBRANCH   6  15
TORSDOF 6
ENDMDL
MODEL 7
REMARK VINA RESULT:      -7.8      1.530      2.022
REMARK  Name = 
REMARK  7 active torsions:
REMARK  status: ('A' for Active; 'I' for Inactive)
REMARK    1  A    between atoms: C_1  and  C_2
REMARK    2  A    between atoms: C_6  and  C_7
REMARK    3  A    between atoms: C_12  and  O_13
REMARK    4  A    between atoms: O_13  and  C_14
REMARK    5  A    between atoms: C_14  and  C_15
REMARK    6  A    between atoms: C_15  and  C_16
REMARK    7  A    between atoms: C_16  and  C_17
REMARK                            x       y       z     vdW  Elec       q    Type
REMARK                         _______ _______ _______ _____ _____    ______ ____
ROOT
ATOM      1  C   UNL     1       4.232   6.096  17.469  0.00  0.00    +0.000 C 
ATOM      2  O   UNL     1       3.763   7.133  16.997  0.00  0.00    +0.000 OA
ATOM      3  N   UNL     1       5.594   5.929  17.678  0.00  0.00    +0.000 N 
ATOM      4  C   UNL     1       6.287   4.838  18.333  0.00  0.00    +0.000 C 
ATOM      5  C   UNL     1       7.503   5.486  18.947  0.00  0.00    +0.000 C 
ATOM      6  C   UNL     1       7.877   6.611  17.981  0.00  0.00    +0.000 C 
ATOM      7  C   UNL     1       6.549   6.959  17.277  0.00  0.00    +0.000 C 
ENDROOT
BRANCH   1  13
ATOM      8  C   UNL     1       0.856   4.092  20.620  0.00  0.00    +0.000 C 
ATOM      9  C   UNL     1       1.670   4.048  19.366  0.00  0.00    +0.000 A 
ATOM     10  C   UNL     1       1.543   2.989  18.472  0.00  0.00    +0.000 A 
ATOM     11  N   UNL     1       2.186   2.920  17.287  0.00  0.00    +0.000 NA
ATOM     12  C   UNL     1       3.010   3.953  16.987  0.00  0.00    +0.000 A 
ATOM     13  C   UNL     1       3.283   5.012  17.834  0.00  0.00    +0.000 A 
ATOM     14  C   UNL     1       2.569   5.072  19.037  0.00  0.00    +0.000 A 
ENDBRANCH   1  13
BRANCH   6  15
ATOM     15  O   UNL     1       8.402   7.744  18.683  0.00  0.00    +0.000 OA
BRANCH  15  16
ATOM     16  C   UNL     1       8.265   8.962  17.950  0.00  0.00    +0.000 C 
BRANCH  16  17
ATOM     17  C   UNL     1       8.822  10.116  18.777  0.00  0.00    +0.000 C 
BRANCH  17  18
ATOM     18  C   UNL     1       9.206  11.283  17.868  0.00  0.00    +0.000 C 
BRANCH  18  19
ATOM     19  C   UNL     1      10.196  12.219  18.508  0.00  0.00    +0.000 A 
ATOM     20  C   UNL     1       9.946  13.595  18.551  0.00  0.00    +0.000 A 
ATOM     21  C   UNL     1      10.861  14.461  19.155  0.00  0.00    +0.000 A 
ATOM     22  C   UNL     1      12.034  13.957  19.715  0.00  0.00    +0.000 A 
ATOM     23  C   UNL     1      12.297  12.590  19.666  0.00  0.00    +0.000 A 
ATOM     24  C   UNL     1      11.383  11.724  19.064  0.00  0.00    +0.000 A 
ENDBRANCH  18  19
ENDBRANCH  17  18
ENDBRANCH  16  17
ENDBRANCH  15  16
ENDBRANCH   6  15
TORSDOF 6
ENDMDL
MODEL 8
REMARK VINA RESULT:      -7.8      4.715      8.261
REMARK  Name = 
REMARK  7 active torsions:
REMARK  status: ('A' for Active; 'I' for Inactive)
REMARK    1  A    between atoms: C_1  and  C_2
REMARK    2  A    between atoms: C_6  and  C_7
REMARK    3  A    between atoms: C_12  and  O_13
REMARK    4  A    between atoms: O_13  and  C_14
REMARK    5  A    between atoms: C_14  and  C_15
REMARK    6  A    between atoms: C_15  and  C_16
REMARK    7  A    between atoms: C_16  and  C_17
REMARK                            x       y       z     vdW  Elec       q    Type
REMARK                         _______ _______ _______ _____ _____    ______ ____
ROOT
ATOM      1  C   UNL     1       6.746   4.580  13.978  0.00  0.00    +0.000 C 
ATOM      2  O   UNL     1       7.423   5.559  13.659  0.00  0.00    +0.000 OA
ATOM      3  N   UNL     1       6.418   4.305  15.298  0.00  0.00    +0.000 N 
ATOM      4  C   UNL     1       5.536   3.282  15.823  0.00  0.00    +0.000 C 
ATOM      5  C   UNL     1       4.965   3.893  17.078  0.00  0.00    +0.000 C 
ATOM      6  C   UNL     1       6.087   4.776  17.630  0.00  0.00    +0.000 C 
ATOM      7  C   UNL     1       6.929   5.133  16.387  0.00  0.00    +0.000 C 
ENDROOT
BRANCH   1  13
ATOM      8  C   UNL     1       3.161   3.153  10.744  0.00  0.00    +0.000 C 
ATOM      9  C   UNL     1       4.521   3.002  11.346  0.00  0.00    +0.000 A 
ATOM     10  C   UNL     1       5.402   2.030  10.881  0.00  0.00    +0.000 A 
ATOM     11  N   UNL     1       6.670   1.887  11.323  0.00  0.00    +0.000 NA
ATOM     12  C   UNL     1       7.073   2.747  12.289  0.00  0.00    +0.000 A 
ATOM     13  C   UNL     1       6.260   3.692  12.889  0.00  0.00    +0.000 A 
ATOM     14  C   UNL     1       4.964   3.840  12.379  0.00  0.00    +0.000 A 
ENDBRANCH   1  13
BRANCH   6  15
ATOM     15  O   UNL     1       5.562   5.952  18.254  0.00  0.00    +0.000 OA
BRANCH  15  16
ATOM     16  C   UNL     1       4.561   6.599  17.466  0.00  0.00    +0.000 C 
BRANCH  16  17
ATOM     17  C   UNL     1       3.353   6.915  18.341  0.00  0.00    +0.000 C 
BRANCH  17  18
ATOM     18  C   UNL     1       2.173   6.023  17.957  0.00  0.00    +0.000 C 
BRANCH  18  19
ATOM     19  C   UNL     1       1.930   4.919  18.951  0.00  0.00    +0.000 A 
ATOM     20  C   UNL     1       2.306   5.075  20.290  0.00  0.00    +0.000 A 
ATOM     21  C   UNL     1       2.070   4.054  21.214  0.00  0.00    +0.000 A 
ATOM     22  C   UNL     1       1.462   2.868  20.804  0.00  0.00    +0.000 A 
ATOM     23  C   UNL     1       1.096   2.699  19.471  0.00  0.00    +0.000 A 
ATOM     24  C   UNL     1       1.330   3.719  18.547  0.00  0.00    +0.000 A 
ENDBRANCH  18  19
ENDBRANCH  17  18
ENDBRANCH  16  17
ENDBRANCH  15  16
ENDBRANCH   6  15
TORSDOF 6
ENDMDL
MODEL 9
REMARK VINA RESULT:      -7.8      1.235      1.567
REMARK  Name = 
REMARK  7 active torsions:
REMARK  status: ('A' for Active; 'I' for Inactive)
REMARK    1  A    between atoms: C_1  and  C_2
REMARK    2  A    between atoms: C_6  and  C_7
REMARK    3  A    between atoms: C_12  and  O_13
REMARK    4  A    between atoms: O_13  and  C_14
REMARK    5  A    between atoms: C_14  and  C_15
REMARK    6  A    between atoms: C_15  and  C_16
REMARK    7  A    between atoms: C_16  and  C_17
REMARK                            x       y       z     vdW  Elec       q    Type
REMARK                         _______ _______ _______ _____ _____    ______ ____
ROOT
ATOM      1  C   UNL     1       4.046   6.457  18.186  0.00  0.00    +0.000 C 
ATOM      2  O   UNL     1       3.670   7.488  17.625  0.00  0.00    +0.000 OA
ATOM      3  N   UNL     1       5.384   6.097  18.256  0.00  0.00    +0.000 N 
ATOM      4  C   UNL     1       5.996   5.000  18.979  0.00  0.00    +0.000 C 
ATOM      5  C   UNL     1       7.367   5.514  19.343  0.00  0.00    +0.000 C 
ATOM      6  C   UNL     1       7.762   6.431  18.184  0.00  0.00    +0.000 C 
ATOM      7  C   UNL     1       6.413   6.898  17.598  0.00  0.00    +0.000 C 
ENDROOT
BRANCH   1  13
ATOM      8  C   UNL     1       1.287   2.246  18.266  0.00  0.00    +0.000 C 
ATOM      9  C   UNL     1       1.674   3.573  18.837  0.00  0.00    +0.000 A 
ATOM     10  C   UNL     1       1.090   4.041  20.010  0.00  0.00    +0.000 A 
ATOM     11  N   UNL     1       1.445   5.190  20.624  0.00  0.00    +0.000 NA
ATOM     12  C   UNL     1       2.421   5.916  20.027  0.00  0.00    +0.000 A 
ATOM     13  C   UNL     1       3.009   5.597  18.817  0.00  0.00    +0.000 A 
ATOM     14  C   UNL     1       2.647   4.379  18.228  0.00  0.00    +0.000 A 
ENDBRANCH   1  13
BRANCH   6  15
ATOM     15  O   UNL     1       8.538   7.543  18.644  0.00  0.00    +0.000 OA
BRANCH  15  16
ATOM     16  C   UNL     1       8.170   8.772  18.018  0.00  0.00    +0.000 C 
BRANCH  16  17
ATOM     17  C   UNL     1       8.877   9.928  18.719  0.00  0.00    +0.000 C 
BRANCH  17  18
ATOM     18  C   UNL     1       9.373  10.946  17.692  0.00  0.00    +0.000 C 
BRANCH  18  19
ATOM     19  C   UNL     1      10.410  11.881  18.254  0.00  0.00    +0.000 A 
ATOM     20  C   UNL     1      10.596  13.151  17.696  0.00  0.00    +0.000 A 
ATOM     21  C   UNL     1      11.553  14.021  18.225  0.00  0.00    +0.000 A 
ATOM     22  C   UNL     1      12.333  13.626  19.311  0.00  0.00    +0.000 A 
ATOM     23  C   UNL     1      12.163  12.359  19.863  0.00  0.00    +0.000 A 
ATOM     24  C   UNL     1      11.208  11.488  19.337  0.00  0.00    +0.000 A 
ENDBRANCH  18  19
ENDBRANCH  17  18
ENDBRANCH  16  17
ENDBRANCH  15  16
ENDBRANCH   6  15
TORSDOF 6
ENDMDL
