MODEL 1
REMARK VINA RESULT:      -7.3      0.000      0.000
REMARK  Name = 
REMARK  6 active torsions:
REMARK  status: ('A' for Active; 'I' for Inactive)
REMARK    1  A    between atoms: C_1  and  C_2
REMARK    2  A    between atoms: C_4  and  C_5
REMARK    3  A    between atoms: C_6  and  C_7
REMARK    4  A    between atoms: C_7  and  N_8
REMARK    5  A    between atoms: C_20  and  C_21
REMARK    6  A    between atoms: C_21  and  O_22
REMARK                            x       y       z     vdW  Elec       q    Type
REMARK                         _______ _______ _______ _____ _____    ______ ____
ROOT
ATOM      1  N   UNL     1       1.378   9.324  19.116  0.00  0.00    +0.000 N 
ATOM      2  C   UNL     1       2.039   8.375  18.384  0.00  0.00    +0.000 C 
ATOM      3  O   UNL     1       2.430   8.594  17.238  0.00  0.00    +0.000 OA
ATOM      4  N   UNL     1       2.217   7.143  18.992  0.00  0.00    +0.000 N 
ATOM      5  C   UNL     1       1.723   6.797  20.332  0.00  0.00    +0.000 C 
ATOM      6  C   UNL     1       2.321   5.515  20.917  0.00  0.00    +0.000 C 
ATOM      7  C   UNL     1       2.153   4.388  19.940  0.00  0.00    +0.000 A 
ATOM      8  C   UNL     1       1.845   3.089  20.356  0.00  0.00    +0.000 A 
ATOM      9  C   UNL     1       1.683   2.074  19.414  0.00  0.00    +0.000 A 
ATOM     10  C   UNL     1       1.832   2.353  18.058  0.00  0.00    +0.000 A 
ATOM     11  C   UNL     1       2.164   3.640  17.637  0.00  0.00    +0.000 A 
ATOM     12  C   UNL     1       2.336   4.668  18.576  0.00  0.00    +0.000 A 
ATOM     13  C   UNL     1       2.782   6.058  18.148  0.00  0.00    +0.000 C 
ATOM     14  H   UNL     1       1.473   9.281  20.115  0.00  0.00    +0.000 HD
ENDROOT
BRANCH   1  15
ATOM     15  C   UNL     1       1.201  10.657  18.581  0.00  0.00    +0.000 C 
BRANCH  15  21
ATOM     16  C   UNL     1      -2.913  13.293  20.683  0.00  0.00    +0.000 C 
ATOM     17  C   UNL     1      -2.027  12.380  19.910  0.00  0.00    +0.000 A 
ATOM     18  N   UNL     1      -2.446  11.587  18.949  0.00  0.00    +0.000 NA
ATOM     19  C   UNL     1      -1.379  10.894  18.400  0.00  0.00    +0.000 A 
ATOM     20  C   UNL     1      -1.650   9.963  17.272  0.00  0.00    +0.000 C 
ATOM     21  C   UNL     1      -0.145  11.174  18.966  0.00  0.00    +0.000 A 
ATOM     22  S   UNL     1      -0.342  12.317  20.233  0.00  0.00    +0.000 S 
ENDBRANCH  15  21
ENDBRANCH   1  15
BRANCH  13  23
ATOM     23  C   UNL     1       4.335   6.119  18.120  0.00  0.00    +0.000 C 
BRANCH  23  24
ATOM     24  O   UNL     1       4.871   6.825  17.000  0.00  0.00    +0.000 OA
ATOM     25  H   UNL     1       4.386   6.533  16.198  0.00  0.00    +0.000 HD
ENDBRANCH  23  24
ENDBRANCH  13  23
TORSDOF 4
ENDMDL
MODEL 2
REMARK VINA RESULT:      -7.2      2.762      7.609
REMARK  Name = 
REMARK  6 active torsions:
REMARK  status: ('A' for Active; 'I' for Inactive)
REMARK    1  A    between atoms: C_1  and  C_2
REMARK    2  A    between atoms: C_4  and  C_5
REMARK    3  A    between atoms: C_6  and  C_7
REMARK    4  A    between atoms: C_7  and  N_8
REMARK    5  A    between atoms: C_20  and  C_21
REMARK    6  A    between atoms: C_21  and  O_22
REMARK                            x       y       z     vdW  Elec       q    Type
REMARK                         _______ _______ _______ _____ _____    ______ ____
ROOT
ATOM      1  N   UNL     1       2.638   7.704  18.862  0.00  0.00    +0.000 N 
ATOM      2  C   UNL     1       1.834   8.780  18.601  0.00  0.00    +0.000 C 
ATOM      3  O   UNL     1       1.912   9.407  17.544  0.00  0.00    +0.000 OA
ATOM      4  N   UNL     1       0.950   9.147  19.603  0.00  0.00    +0.000 N 
ATOM      5  C   UNL     1       0.849   8.480  20.908  0.00  0.00    +0.000 C 
ATOM      6  C   UNL     1      -0.407   8.837  21.707  0.00  0.00    +0.000 C 
ATOM      7  C   UNL     1      -0.527  10.329  21.820  0.00  0.00    +0.000 A 
ATOM      8  C   UNL     1      -0.980  10.947  22.988  0.00  0.00    +0.000 A 
ATOM      9  C   UNL     1      -1.063  12.338  23.055  0.00  0.00    +0.000 A 
ATOM     10  C   UNL     1      -0.697  13.111  21.956  0.00  0.00    +0.000 A 
ATOM     11  C   UNL     1      -0.268  12.500  20.778  0.00  0.00    +0.000 A 
ATOM     12  C   UNL     1      -0.187  11.102  20.697  0.00  0.00    +0.000 A 
ATOM     13  C   UNL     1       0.195  10.411  19.397  0.00  0.00    +0.000 C 
ATOM     14  H   UNL     1       2.270   6.995  19.473  0.00  0.00    +0.000 HD
ENDROOT
BRANCH   1  15
ATOM     15  C   UNL     1       3.548   7.216  17.848  0.00  0.00    +0.000 C 
BRANCH  15  21
ATOM     16  C   UNL     1       2.243   2.084  18.347  0.00  0.00    +0.000 C 
ATOM     17  C   UNL     1       2.880   3.384  18.000  0.00  0.00    +0.000 A 
ATOM     18  N   UNL     1       3.859   3.516  17.133  0.00  0.00    +0.000 NA
ATOM     19  C   UNL     1       4.207   4.850  17.002  0.00  0.00    +0.000 A 
ATOM     20  C   UNL     1       5.283   5.206  16.039  0.00  0.00    +0.000 C 
ATOM     21  C   UNL     1       3.476   5.727  17.789  0.00  0.00    +0.000 A 
ATOM     22  S   UNL     1       2.343   4.843  18.731  0.00  0.00    +0.000 S 
ENDBRANCH  15  21
ENDBRANCH   1  15
BRANCH  13  23
ATOM     23  C   UNL     1      -1.080  10.170  18.542  0.00  0.00    +0.000 C 
BRANCH  23  24
ATOM     24  O   UNL     1      -0.934  10.517  17.164  0.00  0.00    +0.000 OA
ATOM     25  H   UNL     1      -1.462  11.327  16.999  0.00  0.00    +0.000 HD
ENDBRANCH  23  24
ENDBRANCH  13  23
TORSDOF 4
ENDMDL
MODEL 3
REMARK VINA RESULT:      -7.2      1.567      1.936
REMARK  Name = 
REMARK  6 active torsions:
REMARK  status: ('A' for Active; 'I' for Inactive)
REMARK    1  A    between atoms: C_1  and  C_2
REMARK    2  A    between atoms: C_4  and  C_5
REMARK    3  A    between atoms: C_6  and  C_7
REMARK    4  A    between atoms: C_7  and  N_8
REMARK    5  A    between atoms: C_20  and  C_21
REMARK    6  A    between atoms: C_21  and  O_22
REMARK                            x       y       z     vdW  Elec       q    Type
REMARK                         _______ _______ _______ _____ _____    ______ ____
ROOT
ATOM      1  N   UNL     1       1.470   9.131  19.186  0.00  0.00    +0.000 N 
ATOM      2  C   UNL     1       2.189   8.239  18.438  0.00  0.00    +0.000 C 
ATOM      3  O   UNL     1       2.632   8.532  17.328  0.00  0.00    +0.000 OA
ATOM      4  N   UNL     1       2.362   6.977  18.982  0.00  0.00    +0.000 N 
ATOM      5  C   UNL     1       1.809   6.544  20.272  0.00  0.00    +0.000 C 
ATOM      6  C   UNL     1       2.404   5.242  20.814  0.00  0.00    +0.000 C 
ATOM      7  C   UNL     1       2.312   4.170  19.767  0.00  0.00    +0.000 A 
ATOM      8  C   UNL     1       2.012   2.844  20.091  0.00  0.00    +0.000 A 
ATOM      9  C   UNL     1       1.922   1.883  19.086  0.00  0.00    +0.000 A 
ATOM     10  C   UNL     1       2.133   2.243  17.757  0.00  0.00    +0.000 A 
ATOM     11  C   UNL     1       2.457   3.559  17.428  0.00  0.00    +0.000 A 
ATOM     12  C   UNL     1       2.558   4.533  18.433  0.00  0.00    +0.000 A 
ATOM     13  C   UNL     1       2.994   5.954  18.108  0.00  0.00    +0.000 C 
ATOM     14  H   UNL     1       1.515   9.031  20.186  0.00  0.00    +0.000 HD
ENDROOT
BRANCH   1  15
ATOM     15  C   UNL     1       1.291  10.489  18.720  0.00  0.00    +0.000 C 
BRANCH  15  21
ATOM     16  C   UNL     1      -1.218  12.497  22.958  0.00  0.00    +0.000 C 
ATOM     17  C   UNL     1      -0.338  12.257  21.782  0.00  0.00    +0.000 A 
ATOM     18  N   UNL     1       0.642  13.055  21.421  0.00  0.00    +0.000 NA
ATOM     19  C   UNL     1       1.297  12.539  20.314  0.00  0.00    +0.000 A 
ATOM     20  C   UNL     1       2.460  13.290  19.772  0.00  0.00    +0.000 C 
ATOM     21  C   UNL     1       0.792  11.338  19.841  0.00  0.00    +0.000 A 
ATOM     22  S   UNL     1      -0.552  10.864  20.800  0.00  0.00    +0.000 S 
ENDBRANCH  15  21
ENDBRANCH   1  15
BRANCH  13  23
ATOM     23  C   UNL     1       4.545   6.047  18.165  0.00  0.00    +0.000 C 
BRANCH  23  24
ATOM     24  O   UNL     1       5.124   6.787  17.090  0.00  0.00    +0.000 OA
ATOM     25  H   UNL     1       5.823   6.232  16.683  0.00  0.00    +0.000 HD
ENDBRANCH  23  24
ENDBRANCH  13  23
TORSDOF 4
ENDMDL
MODEL 4
REMARK VINA RESULT:      -7.1      1.095      1.502
REMARK  Name = 
REMARK  6 active torsions:
REMARK  status: ('A' for Active; 'I' for Inactive)
REMARK    1  A    between atoms: C_1  and  C_2
REMARK    2  A    between atoms: C_4  and  C_5
REMARK    3  A    between atoms: C_6  and  C_7
REMARK    4  A    between atoms: C_7  and  N_8
REMARK    5  A    between atoms: C_20  and  C_21
REMARK    6  A    between atoms: C_21  and  O_22
REMARK                            x       y       z     vdW  Elec       q    Type
REMARK                         _______ _______ _______ _____ _____    ______ ____
ROOT
ATOM      1  N   UNL     1       1.293   9.410  19.203  0.00  0.00    +0.000 N 
ATOM      2  C   UNL     1       1.952   8.469  18.459  0.00  0.00    +0.000 C 
ATOM      3  O   UNL     1       2.339   8.702  17.314  0.00  0.00    +0.000 OA
ATOM      4  N   UNL     1       2.130   7.230  19.052  0.00  0.00    +0.000 N 
ATOM      5  C   UNL     1       1.640   6.869  20.389  0.00  0.00    +0.000 C 
ATOM      6  C   UNL     1       2.239   5.580  20.957  0.00  0.00    +0.000 C 
ATOM      7  C   UNL     1       2.067   4.464  19.968  0.00  0.00    +0.000 A 
ATOM      8  C   UNL     1       1.760   3.161  20.370  0.00  0.00    +0.000 A 
ATOM      9  C   UNL     1       1.595   2.157  19.417  0.00  0.00    +0.000 A 
ATOM     10  C   UNL     1       1.740   2.451  18.063  0.00  0.00    +0.000 A 
ATOM     11  C   UNL     1       2.071   3.744  17.656  0.00  0.00    +0.000 A 
ATOM     12  C   UNL     1       2.247   4.760  18.607  0.00  0.00    +0.000 A 
ATOM     13  C   UNL     1       2.692   6.154  18.194  0.00  0.00    +0.000 C 
ATOM     14  H   UNL     1       1.391   9.355  20.202  0.00  0.00    +0.000 HD
ENDROOT
BRANCH   1  15
ATOM     15  C   UNL     1       1.115  10.750  18.684  0.00  0.00    +0.000 C 
BRANCH  15  21
ATOM     16  C   UNL     1      -4.146  11.344  18.183  0.00  0.00    +0.000 C 
ATOM     17  C   UNL     1      -2.720  11.414  18.601  0.00  0.00    +0.000 A 
ATOM     18  N   UNL     1      -2.299  12.034  19.681  0.00  0.00    +0.000 NA
ATOM     19  C   UNL     1      -0.928  11.887  19.815  0.00  0.00    +0.000 A 
ATOM     20  C   UNL     1      -0.267  12.497  20.999  0.00  0.00    +0.000 C 
ATOM     21  C   UNL     1      -0.317  11.147  18.814  0.00  0.00    +0.000 A 
ATOM     22  S   UNL     1      -1.497  10.649  17.669  0.00  0.00    +0.000 S 
ENDBRANCH  15  21
ENDBRANCH   1  15
BRANCH  13  23
ATOM     23  C   UNL     1       4.245   6.216  18.161  0.00  0.00    +0.000 C 
BRANCH  23  24
ATOM     24  O   UNL     1       4.778   6.932  17.046  0.00  0.00    +0.000 OA
ATOM     25  H   UNL     1       4.432   7.849  17.083  0.00  0.00    +0.000 HD
ENDBRANCH  23  24
ENDBRANCH  13  23
TORSDOF 4
ENDMDL
MODEL 5
REMARK VINA RESULT:      -6.7      1.773      2.028
REMARK  Name = 
REMARK  6 active torsions:
REMARK  status: ('A' for Active; 'I' for Inactive)
REMARK    1  A    between atoms: C_1  and  C_2
REMARK    2  A    between atoms: C_4  and  C_5
REMARK    3  A    between atoms: C_6  and  C_7
REMARK    4  A    between atoms: C_7  and  N_8
REMARK    5  A    between atoms: C_20  and  C_21
REMARK    6  A    between atoms: C_21  and  O_22
REMARK                            x       y       z     vdW  Elec       q    Type
REMARK                         _______ _______ _______ _____ _____    ______ ____
ROOT
ATOM      1  N   UNL     1       1.407   9.247  18.983  0.00  0.00    +0.000 N 
ATOM      2  C   UNL     1       2.138   8.320  18.292  0.00  0.00    +0.000 C 
ATOM      3  O   UNL     1       2.598   8.557  17.175  0.00  0.00    +0.000 OA
ATOM      4  N   UNL     1       2.306   7.087  18.903  0.00  0.00    +0.000 N 
ATOM      5  C   UNL     1       1.734   6.720  20.205  0.00  0.00    +0.000 C 
ATOM      6  C   UNL     1       2.323   5.449  20.821  0.00  0.00    +0.000 C 
ATOM      7  C   UNL     1       2.248   4.325  19.829  0.00  0.00    +0.000 A 
ATOM      8  C   UNL     1       1.946   3.016  20.217  0.00  0.00    +0.000 A 
ATOM      9  C   UNL     1       1.872   2.005  19.260  0.00  0.00    +0.000 A 
ATOM     10  C   UNL     1       2.102   2.297  17.918  0.00  0.00    +0.000 A 
ATOM     11  C   UNL     1       2.429   3.595  17.527  0.00  0.00    +0.000 A 
ATOM     12  C   UNL     1       2.514   4.619  18.482  0.00  0.00    +0.000 A 
ATOM     13  C   UNL     1       2.952   6.023  18.092  0.00  0.00    +0.000 C 
ATOM     14  H   UNL     1       1.437   9.199  19.987  0.00  0.00    +0.000 HD
ENDROOT
BRANCH   1  15
ATOM     15  C   UNL     1       1.233  10.579  18.446  0.00  0.00    +0.000 C 
BRANCH  15  21
ATOM     16  C   UNL     1       1.852  14.813  21.605  0.00  0.00    +0.000 C 
ATOM     17  C   UNL     1       1.484  13.501  21.006  0.00  0.00    +0.000 A 
ATOM     18  N   UNL     1       0.642  12.652  21.553  0.00  0.00    +0.000 NA
ATOM     19  C   UNL     1       0.480  11.545  20.736  0.00  0.00    +0.000 A 
ATOM     20  C   UNL     1      -0.462  10.480  21.173  0.00  0.00    +0.000 C 
ATOM     21  C   UNL     1       1.218  11.569  19.563  0.00  0.00    +0.000 A 
ATOM     22  S   UNL     1       2.152  13.009  19.503  0.00  0.00    +0.000 S 
ENDBRANCH  15  21
ENDBRANCH   1  15
BRANCH  13  23
ATOM     23  C   UNL     1       4.501   6.122  18.166  0.00  0.00    +0.000 C 
BRANCH  23  24
ATOM     24  O   UNL     1       5.096   6.804  17.061  0.00  0.00    +0.000 OA
ATOM     25  H   UNL     1       4.726   7.712  17.032  0.00  0.00    +0.000 HD
ENDBRANCH  23  24
ENDBRANCH  13  23
TORSDOF 4
ENDMDL
MODEL 6
REMARK VINA RESULT:      -6.7      1.044      1.397
REMARK  Name = 
REMARK  6 active torsions:
REMARK  status: ('A' for Active; 'I' for Inactive)
REMARK    1  A    between atoms: C_1  and  C_2
REMARK    2  A    between atoms: C_4  and  C_5
REMARK    3  A    between atoms: C_6  and  C_7
REMARK    4  A    between atoms: C_7  and  N_8
REMARK    5  A    between atoms: C_20  and  C_21
REMARK    6  A    between atoms: C_21  and  O_22
REMARK                            x       y       z     vdW  Elec       q    Type
REMARK                         _______ _______ _______ _____ _____    ______ ____
ROOT
ATOM      1  N   UNL     1       1.416   9.115  19.092  0.00  0.00    +0.000 N 
ATOM      2  C   UNL     1       2.172   8.248  18.351  0.00  0.00    +0.000 C 
ATOM      3  O   UNL     1       2.620   8.556  17.247  0.00  0.00    +0.000 OA
ATOM      4  N   UNL     1       2.378   6.991  18.896  0.00  0.00    +0.000 N 
ATOM      5  C   UNL     1       1.823   6.539  20.179  0.00  0.00    +0.000 C 
ATOM      6  C   UNL     1       2.452   5.256  20.726  0.00  0.00    +0.000 C 
ATOM      7  C   UNL     1       2.406   4.183  19.677  0.00  0.00    +0.000 A 
ATOM      8  C   UNL     1       2.145   2.848  19.996  0.00  0.00    +0.000 A 
ATOM      9  C   UNL     1       2.097   1.886  18.988  0.00  0.00    +0.000 A 
ATOM     10  C   UNL     1       2.314   2.254  17.662  0.00  0.00    +0.000 A 
ATOM     11  C   UNL     1       2.600   3.580  17.339  0.00  0.00    +0.000 A 
ATOM     12  C   UNL     1       2.658   4.555  18.346  0.00  0.00    +0.000 A 
ATOM     13  C   UNL     1       3.053   5.989  18.029  0.00  0.00    +0.000 C 
ATOM     14  H   UNL     1       1.452   9.016  20.092  0.00  0.00    +0.000 HD
ENDROOT
BRANCH   1  15
ATOM     15  C   UNL     1       1.200  10.468  18.625  0.00  0.00    +0.000 C 
BRANCH  15  21
ATOM     16  C   UNL     1      -3.174  13.008  20.269  0.00  0.00    +0.000 C 
ATOM     17  C   UNL     1      -1.903  12.241  20.169  0.00  0.00    +0.000 A 
ATOM     18  N   UNL     1      -1.322  11.643  21.186  0.00  0.00    +0.000 NA
ATOM     19  C   UNL     1      -0.179  10.983  20.765  0.00  0.00    +0.000 A 
ATOM     20  C   UNL     1       0.604  10.218  21.772  0.00  0.00    +0.000 C 
ATOM     21  C   UNL     1       0.098  11.096  19.411  0.00  0.00    +0.000 A 
ATOM     22  S   UNL     1      -1.098  12.075  18.661  0.00  0.00    +0.000 S 
ENDBRANCH  15  21
ENDBRANCH   1  15
BRANCH  13  23
ATOM     23  C   UNL     1       4.599   6.132  18.105  0.00  0.00    +0.000 C 
BRANCH  23  24
ATOM     24  O   UNL     1       5.168   6.892  17.039  0.00  0.00    +0.000 OA
ATOM     25  H   UNL     1       4.531   7.599  16.798  0.00  0.00    +0.000 HD
ENDBRANCH  23  24
ENDBRANCH  13  23
TORSDOF 4
ENDMDL
MODEL 7
REMARK VINA RESULT:      -6.7      2.605      7.815
REMARK  Name = 
REMARK  6 active torsions:
REMARK  status: ('A' for Active; 'I' for Inactive)
REMARK    1  A    between atoms: C_1  and  C_2
REMARK    2  A    between atoms: C_4  and  C_5
REMARK    3  A    between atoms: C_6  and  C_7
REMARK    4  A    between atoms: C_7  and  N_8
REMARK    5  A    between atoms: C_20  and  C_21
REMARK    6  A    between atoms: C_21  and  O_22
REMARK                            x       y       z     vdW  Elec       q    Type
REMARK                         _______ _______ _______ _____ _____    ______ ____
ROOT
ATOM      1  N   UNL     1       2.099   7.870  19.437  0.00  0.00    +0.000 N 
ATOM      2  C   UNL     1       1.416   8.916  18.879  0.00  0.00    +0.000 C 
ATOM      3  O   UNL     1       1.455   9.146  17.671  0.00  0.00    +0.000 OA
ATOM      4  N   UNL     1       0.704   9.723  19.752  0.00  0.00    +0.000 N 
ATOM      5  C   UNL     1       0.664   9.539  21.209  0.00  0.00    +0.000 C 
ATOM      6  C   UNL     1      -0.438  10.329  21.918  0.00  0.00    +0.000 C 
ATOM      7  C   UNL     1      -0.353  11.776  21.529  0.00  0.00    +0.000 A 
ATOM      8  C   UNL     1      -0.591  12.803  22.447  0.00  0.00    +0.000 A 
ATOM      9  C   UNL     1      -0.487  14.135  22.046  0.00  0.00    +0.000 A 
ATOM     10  C   UNL     1      -0.150  14.442  20.730  0.00  0.00    +0.000 A 
ATOM     11  C   UNL     1       0.063  13.423  19.803  0.00  0.00    +0.000 A 
ATOM     12  C   UNL     1      -0.046  12.080  20.193  0.00  0.00    +0.000 A 
ATOM     13  C   UNL     1       0.097  10.953  19.180  0.00  0.00    +0.000 C 
ATOM     14  H   UNL     1       1.715   7.466  20.273  0.00  0.00    +0.000 HD
ENDROOT
BRANCH   1  15
ATOM     15  C   UNL     1       2.821   6.943  18.591  0.00  0.00    +0.000 C 
BRANCH  15  21
ATOM     16  C   UNL     1       1.600   2.599  21.407  0.00  0.00    +0.000 C 
ATOM     17  C   UNL     1       2.128   3.573  20.414  0.00  0.00    +0.000 A 
ATOM     18  N   UNL     1       2.780   3.233  19.324  0.00  0.00    +0.000 NA
ATOM     19  C   UNL     1       3.105   4.361  18.588  0.00  0.00    +0.000 A 
ATOM     20  C   UNL     1       3.824   4.178  17.299  0.00  0.00    +0.000 C 
ATOM     21  C   UNL     1       2.691   5.562  19.143  0.00  0.00    +0.000 A 
ATOM     22  S   UNL     1       1.896   5.260  20.636  0.00  0.00    +0.000 S 
ENDBRANCH  15  21
ENDBRANCH   1  15
BRANCH  13  23
ATOM     23  C   UNL     1      -1.286  10.653  18.539  0.00  0.00    +0.000 C 
BRANCH  23  24
ATOM     24  O   UNL     1      -1.223  10.289  17.159  0.00  0.00    +0.000 OA
ATOM     25  H   UNL     1      -0.799   9.406  17.099  0.00  0.00    +0.000 HD
ENDBRANCH  23  24
ENDBRANCH  13  23
TORSDOF 4
ENDMDL
MODEL 8
REMARK VINA RESULT:      -6.6      2.965      7.727
REMARK  Name = 
REMARK  6 active torsions:
REMARK  status: ('A' for Active; 'I' for Inactive)
REMARK    1  A    between atoms: C_1  and  C_2
REMARK    2  A    between atoms: C_4  and  C_5
REMARK    3  A    between atoms: C_6  and  C_7
REMARK    4  A    between atoms: C_7  and  N_8
REMARK    5  A    between atoms: C_20  and  C_21
REMARK    6  A    between atoms: C_21  and  O_22
REMARK                            x       y       z     vdW  Elec       q    Type
REMARK                         _______ _______ _______ _____ _____    ______ ____
ROOT
ATOM      1  N   UNL     1       2.621   7.303  19.031  0.00  0.00    +0.000 N 
ATOM      2  C   UNL     1       1.949   8.421  18.619  0.00  0.00    +0.000 C 
ATOM      3  O   UNL     1       2.126   8.911  17.504  0.00  0.00    +0.000 OA
ATOM      4  N   UNL     1       1.083   8.993  19.537  0.00  0.00    +0.000 N 
ATOM      5  C   UNL     1       0.871   8.494  20.903  0.00  0.00    +0.000 C 
ATOM      6  C   UNL     1      -0.360   9.072  21.605  0.00  0.00    +0.000 C 
ATOM      7  C   UNL     1      -0.317  10.572  21.547  0.00  0.00    +0.000 A 
ATOM      8  C   UNL     1      -0.733  11.365  22.620  0.00  0.00    +0.000 A 
ATOM      9  C   UNL     1      -0.663  12.754  22.529  0.00  0.00    +0.000 A 
ATOM     10  C   UNL     1      -0.183  13.353  21.367  0.00  0.00    +0.000 A 
ATOM     11  C   UNL     1       0.210  12.569  20.283  0.00  0.00    +0.000 A 
ATOM     12  C   UNL     1       0.137  11.170  20.361  0.00  0.00    +0.000 A 
ATOM     13  C   UNL     1       0.478  10.298  19.162  0.00  0.00    +0.000 C 
ATOM     14  H   UNL     1       2.159   6.712  19.701  0.00  0.00    +0.000 HD
ENDROOT
BRANCH   1  15
ATOM     15  C   UNL     1       3.500   6.608  18.115  0.00  0.00    +0.000 C 
BRANCH  15  21
ATOM     16  C   UNL     1       4.742   1.842  20.124  0.00  0.00    +0.000 C 
ATOM     17  C   UNL     1       4.117   2.989  19.410  0.00  0.00    +0.000 A 
ATOM     18  N   UNL     1       2.962   2.925  18.785  0.00  0.00    +0.000 NA
ATOM     19  C   UNL     1       2.635   4.163  18.256  0.00  0.00    +0.000 A 
ATOM     20  C   UNL     1       1.342   4.300  17.533  0.00  0.00    +0.000 C 
ATOM     21  C   UNL     1       3.565   5.164  18.487  0.00  0.00    +0.000 A 
ATOM     22  S   UNL     1       4.890   4.521  19.372  0.00  0.00    +0.000 S 
ENDBRANCH  15  21
ENDBRANCH   1  15
BRANCH  13  23
ATOM     23  C   UNL     1      -0.791  10.098  18.287  0.00  0.00    +0.000 C 
BRANCH  23  24
ATOM     24  O   UNL     1      -1.065  11.181  17.399  0.00  0.00    +0.000 OA
ATOM     25  H   UNL     1      -1.194  10.810  16.500  0.00  0.00    +0.000 HD
ENDBRANCH  23  24
ENDBRANCH  13  23
TORSDOF 4
ENDMDL
MODEL 9
REMARK VINA RESULT:      -6.6      1.288      1.620
REMARK  Name = 
REMARK  6 active torsions:
REMARK  status: ('A' for Active; 'I' for Inactive)
REMARK    1  A    between atoms: C_1  and  C_2
REMARK    2  A    between atoms: C_4  and  C_5
REMARK    3  A    between atoms: C_6  and  C_7
REMARK    4  A    between atoms: C_7  and  N_8
REMARK    5  A    between atoms: C_20  and  C_21
REMARK    6  A    between atoms: C_21  and  O_22
REMARK                            x       y       z     vdW  Elec       q    Type
REMARK                         _______ _______ _______ _____ _____    ______ ____
ROOT
ATOM      1  N   UNL     1       1.649   9.593  18.955  0.00  0.00    +0.000 N 
ATOM      2  C   UNL     1       2.198   8.513  18.317  0.00  0.00    +0.000 C 
ATOM      3  O   UNL     1       2.641   8.592  17.172  0.00  0.00    +0.000 OA
ATOM      4  N   UNL     1       2.197   7.318  19.018  0.00  0.00    +0.000 N 
ATOM      5  C   UNL     1       1.630   7.142  20.362  0.00  0.00    +0.000 C 
ATOM      6  C   UNL     1       2.040   5.842  21.058  0.00  0.00    +0.000 C 
ATOM      7  C   UNL     1       1.749   4.675  20.161  0.00  0.00    +0.000 A 
ATOM      8  C   UNL     1       1.264   3.463  20.659  0.00  0.00    +0.000 A 
ATOM      9  C   UNL     1       0.993   2.408  19.788  0.00  0.00    +0.000 A 
ATOM     10  C   UNL     1       1.210   2.561  18.421  0.00  0.00    +0.000 A 
ATOM     11  C   UNL     1       1.718   3.759  17.919  0.00  0.00    +0.000 A 
ATOM     12  C   UNL     1       2.001   4.824  18.787  0.00  0.00    +0.000 A 
ATOM     13  C   UNL     1       2.635   6.108  18.275  0.00  0.00    +0.000 C 
ATOM     14  H   UNL     1       1.714   9.614  19.958  0.00  0.00    +0.000 HD
ENDROOT
BRANCH   1  15
ATOM     15  C   UNL     1       1.662  10.893  18.319  0.00  0.00    +0.000 C 
BRANCH  15  21
ATOM     16  C   UNL     1      -3.001  12.580  20.244  0.00  0.00    +0.000 C 
ATOM     17  C   UNL     1      -1.627  12.468  19.683  0.00  0.00    +0.000 A 
ATOM     18  N   UNL     1      -0.813  13.488  19.521  0.00  0.00    +0.000 NA
ATOM     19  C   UNL     1       0.402  13.055  19.016  0.00  0.00    +0.000 A 
ATOM     20  C   UNL     1       1.471  14.066  18.791  0.00  0.00    +0.000 C 
ATOM     21  C   UNL     1       0.492  11.690  18.794  0.00  0.00    +0.000 A 
ATOM     22  S   UNL     1      -0.997  10.942  19.210  0.00  0.00    +0.000 S 
ENDBRANCH  15  21
ENDBRANCH   1  15
BRANCH  13  23
ATOM     23  C   UNL     1       4.183   5.967  18.294  0.00  0.00    +0.000 C 
BRANCH  23  24
ATOM     24  O   UNL     1       4.653   4.779  18.933  0.00  0.00    +0.000 OA
ATOM     25  H   UNL     1       4.217   4.012  18.503  0.00  0.00    +0.000 HD
ENDBRANCH  23  24
ENDBRANCH  13  23
TORSDOF 4
ENDMDL
