MODEL 1
REMARK VINA RESULT:      -7.9      0.000      0.000
REMARK  Name = 
REMARK  3 active torsions:
REMARK  status: ('A' for Active; 'I' for Inactive)
REMARK    1  A    between atoms: C_3  and  O_4
REMARK    2  A    between atoms: C_5  and  C_6
REMARK    3  A    between atoms: C_9  and  C_10
REMARK                            x       y       z     vdW  Elec       q    Type
REMARK                         _______ _______ _______ _____ _____    ______ ____
ROOT
ATOM      1  O   UNL     1      -2.951  11.855  18.347  0.00  0.00    +0.000 OA
ATOM      2  C   UNL     1      -2.108  11.534  19.180  0.00  0.00    +0.000 C 
ATOM      3  C   UNL     1      -1.190  10.408  18.873  0.00  0.00    +0.000 C 
ATOM      4  C   UNL     1      -0.192  10.033  19.691  0.00  0.00    +0.000 C 
ATOM      5  C   UNL     1      -0.021  10.730  21.000  0.00  0.00    +0.000 C 
ATOM      6  O   UNL     1       0.870  10.415  21.780  0.00  0.00    +0.000 OA
ATOM      7  C   UNL     1      -0.947  11.841  21.340  0.00  0.00    +0.000 A 
ATOM      8  C   UNL     1      -0.815  12.524  22.558  0.00  0.00    +0.000 A 
ATOM      9  C   UNL     1      -1.673  13.585  22.869  0.00  0.00    +0.000 A 
ATOM     10  C   UNL     1      -2.660  13.979  21.965  0.00  0.00    +0.000 A 
ATOM     11  C   UNL     1      -2.795  13.308  20.753  0.00  0.00    +0.000 A 
ATOM     12  C   UNL     1      -1.944  12.236  20.452  0.00  0.00    +0.000 A 
ENDROOT
BRANCH   4  13
ATOM     13  C   UNL     1       0.833   9.009  19.227  0.00  0.00    +0.000 C 
ATOM     14  C   UNL     1       1.898   9.654  18.332  0.00  0.00    +0.000 C 
ATOM     15  C   UNL     1       2.641   8.567  17.564  0.00  0.00    +0.000 C 
ATOM     16  C   UNL     1       3.302   7.543  18.507  0.00  0.00    +0.000 C 
ATOM     17  C   UNL     1       2.312   7.005  19.571  0.00  0.00    +0.000 C 
ATOM     18  C   UNL     1       1.519   8.125  20.280  0.00  0.00    +0.000 C 
BRANCH  16  19
ATOM     19  C   UNL     1       3.987   6.484  17.648  0.00  0.00    +0.000 A 
ATOM     20  C   UNL     1       4.900   6.900  16.663  0.00  0.00    +0.000 A 
ATOM     21  C   UNL     1       5.471   5.983  15.776  0.00  0.00    +0.000 A 
ATOM     22  C   UNL     1       5.137   4.635  15.865  0.00  0.00    +0.000 A 
ATOM     23 CL   UNL     1       5.821   3.507  14.762  0.00  0.00    +0.000 Cl
ATOM     24  C   UNL     1       4.237   4.200  16.834  0.00  0.00    +0.000 A 
ATOM     25  C   UNL     1       3.660   5.120  17.717  0.00  0.00    +0.000 A 
ENDBRANCH  16  19
ENDBRANCH   4  13
BRANCH   3  26
ATOM     26  O   UNL     1      -1.391   9.810  17.638  0.00  0.00    +0.000 OA
ATOM     27  H   UNL     1      -0.556   9.956  17.142  0.00  0.00    +0.000 HD
ENDBRANCH   3  26
TORSDOF 3
ENDMDL
MODEL 2
REMARK VINA RESULT:      -7.9      0.355      1.009
REMARK  Name = 
REMARK  3 active torsions:
REMARK  status: ('A' for Active; 'I' for Inactive)
REMARK    1  A    between atoms: C_3  and  O_4
REMARK    2  A    between atoms: C_5  and  C_6
REMARK    3  A    between atoms: C_9  and  C_10
REMARK                            x       y       z     vdW  Elec       q    Type
REMARK                         _______ _______ _______ _____ _____    ______ ____
ROOT
ATOM      1  O   UNL     1      -3.238  11.990  18.561  0.00  0.00    +0.000 OA
ATOM      2  C   UNL     1      -2.331  11.725  19.345  0.00  0.00    +0.000 C 
ATOM      3  C   UNL     1      -1.414  10.600  19.028  0.00  0.00    +0.000 C 
ATOM      4  C   UNL     1      -0.353  10.284  19.788  0.00  0.00    +0.000 C 
ATOM      5  C   UNL     1      -0.102  11.048  21.046  0.00  0.00    +0.000 C 
ATOM      6  O   UNL     1       0.849  10.788  21.774  0.00  0.00    +0.000 OA
ATOM      7  C   UNL     1      -1.024  12.159  21.398  0.00  0.00    +0.000 A 
ATOM      8  C   UNL     1      -0.819  12.905  22.568  0.00  0.00    +0.000 A 
ATOM      9  C   UNL     1      -1.674  13.965  22.889  0.00  0.00    +0.000 A 
ATOM     10  C   UNL     1      -2.730  14.297  22.040  0.00  0.00    +0.000 A 
ATOM     11  C   UNL     1      -2.938  13.564  20.876  0.00  0.00    +0.000 A 
ATOM     12  C   UNL     1      -2.089  12.493  20.567  0.00  0.00    +0.000 A 
ENDROOT
BRANCH   4  13
ATOM     13  C   UNL     1       0.657   9.256  19.302  0.00  0.00    +0.000 C 
ATOM     14  C   UNL     1       1.684   9.889  18.354  0.00  0.00    +0.000 C 
ATOM     15  C   UNL     1       2.399   8.790  17.576  0.00  0.00    +0.000 C 
ATOM     16  C   UNL     1       3.102   7.785  18.509  0.00  0.00    +0.000 C 
ATOM     17  C   UNL     1       2.157   7.263  19.620  0.00  0.00    +0.000 C 
ATOM     18  C   UNL     1       1.389   8.392  20.342  0.00  0.00    +0.000 C 
BRANCH  16  19
ATOM     19  C   UNL     1       3.756   6.714  17.642  0.00  0.00    +0.000 A 
ATOM     20  C   UNL     1       3.462   5.363  17.900  0.00  0.00    +0.000 A 
ATOM     21  C   UNL     1       4.117   4.339  17.210  0.00  0.00    +0.000 A 
ATOM     22  C   UNL     1       5.074   4.653  16.250  0.00  0.00    +0.000 A 
ATOM     23 CL   UNL     1       5.897   3.395  15.415  0.00  0.00    +0.000 Cl
ATOM     24  C   UNL     1       5.379   5.984  15.977  0.00  0.00    +0.000 A 
ATOM     25  C   UNL     1       4.729   7.009  16.673  0.00  0.00    +0.000 A 
ENDBRANCH  16  19
ENDBRANCH   4  13
BRANCH   3  26
ATOM     26  O   UNL     1      -1.691   9.938  17.841  0.00  0.00    +0.000 OA
ATOM     27  H   UNL     1      -2.616   9.623  17.931  0.00  0.00    +0.000 HD
ENDBRANCH   3  26
TORSDOF 3
ENDMDL
MODEL 3
REMARK VINA RESULT:      -7.9      4.018      9.219
REMARK  Name = 
REMARK  3 active torsions:
REMARK  status: ('A' for Active; 'I' for Inactive)
REMARK    1  A    between atoms: C_3  and  O_4
REMARK    2  A    between atoms: C_5  and  C_6
REMARK    3  A    between atoms: C_9  and  C_10
REMARK                            x       y       z     vdW  Elec       q    Type
REMARK                         _______ _______ _______ _____ _____    ______ ____
ROOT
ATOM      1  O   UNL     1       2.850   2.827  17.428  0.00  0.00    +0.000 OA
ATOM      2  C   UNL     1       3.241   3.985  17.306  0.00  0.00    +0.000 C 
ATOM      3  C   UNL     1       2.413   5.084  17.864  0.00  0.00    +0.000 C 
ATOM      4  C   UNL     1       2.794   6.372  17.841  0.00  0.00    +0.000 C 
ATOM      5  C   UNL     1       4.078   6.742  17.174  0.00  0.00    +0.000 C 
ATOM      6  O   UNL     1       4.460   7.904  17.123  0.00  0.00    +0.000 OA
ATOM      7  C   UNL     1       4.909   5.660  16.584  0.00  0.00    +0.000 A 
ATOM      8  C   UNL     1       6.124   5.966  15.953  0.00  0.00    +0.000 A 
ATOM      9  C   UNL     1       6.917   4.946  15.416  0.00  0.00    +0.000 A 
ATOM     10  C   UNL     1       6.511   3.615  15.514  0.00  0.00    +0.000 A 
ATOM     11  C   UNL     1       5.307   3.304  16.139  0.00  0.00    +0.000 A 
ATOM     12  C   UNL     1       4.509   4.329  16.662  0.00  0.00    +0.000 A 
ENDROOT
BRANCH   4  13
ATOM     13  C   UNL     1       1.999   7.418  18.606  0.00  0.00    +0.000 C 
ATOM     14  C   UNL     1       2.399   7.451  20.086  0.00  0.00    +0.000 C 
ATOM     15  C   UNL     1       1.328   8.183  20.886  0.00  0.00    +0.000 C 
ATOM     16  C   UNL     1       1.106   9.619  20.374  0.00  0.00    +0.000 C 
ATOM     17  C   UNL     1       0.896   9.666  18.840  0.00  0.00    +0.000 C 
ATOM     18  C   UNL     1       1.953   8.854  18.059  0.00  0.00    +0.000 C 
BRANCH  16  19
ATOM     19  C   UNL     1      -0.001  10.252  21.211  0.00  0.00    +0.000 A 
ATOM     20  C   UNL     1      -0.709  11.346  20.680  0.00  0.00    +0.000 A 
ATOM     21  C   UNL     1      -1.655  12.032  21.447  0.00  0.00    +0.000 A 
ATOM     22  C   UNL     1      -1.908  11.631  22.755  0.00  0.00    +0.000 A 
ATOM     23 CL   UNL     1      -3.057  12.487  23.707  0.00  0.00    +0.000 Cl
ATOM     24  C   UNL     1      -1.221  10.550  23.300  0.00  0.00    +0.000 A 
ATOM     25  C   UNL     1      -0.268   9.868  22.536  0.00  0.00    +0.000 A 
ENDBRANCH  16  19
ENDBRANCH   4  13
BRANCH   3  26
ATOM     26  O   UNL     1       1.240   4.676  18.481  0.00  0.00    +0.000 OA
ATOM     27  H   UNL     1       1.043   5.372  19.146  0.00  0.00    +0.000 HD
ENDBRANCH   3  26
TORSDOF 3
ENDMDL
MODEL 4
REMARK VINA RESULT:      -7.6      1.180      1.560
REMARK  Name = 
REMARK  3 active torsions:
REMARK  status: ('A' for Active; 'I' for Inactive)
REMARK    1  A    between atoms: C_3  and  O_4
REMARK    2  A    between atoms: C_5  and  C_6
REMARK    3  A    between atoms: C_9  and  C_10
REMARK                            x       y       z     vdW  Elec       q    Type
REMARK                         _______ _______ _______ _____ _____    ______ ____
ROOT
ATOM      1  O   UNL     1      -3.129  11.949  18.576  0.00  0.00    +0.000 OA
ATOM      2  C   UNL     1      -2.237  11.727  19.390  0.00  0.00    +0.000 C 
ATOM      3  C   UNL     1      -1.211  10.702  19.069  0.00  0.00    +0.000 C 
ATOM      4  C   UNL     1      -0.160  10.443  19.864  0.00  0.00    +0.000 C 
ATOM      5  C   UNL     1      -0.033  11.166  21.165  0.00  0.00    +0.000 C 
ATOM      6  O   UNL     1       0.904  10.955  21.925  0.00  0.00    +0.000 OA
ATOM      7  C   UNL     1      -1.065  12.175  21.519  0.00  0.00    +0.000 A 
ATOM      8  C   UNL     1      -0.978  12.879  22.730  0.00  0.00    +0.000 A 
ATOM      9  C   UNL     1      -1.937  13.845  23.055  0.00  0.00    +0.000 A 
ATOM     10  C   UNL     1      -2.981  14.124  22.172  0.00  0.00    +0.000 A 
ATOM     11  C   UNL     1      -3.072  13.431  20.969  0.00  0.00    +0.000 A 
ATOM     12  C   UNL     1      -2.118  12.454  20.654  0.00  0.00    +0.000 A 
ENDROOT
BRANCH   4  13
ATOM     13  C   UNL     1       0.957   9.531  19.383  0.00  0.00    +0.000 C 
ATOM     14  C   UNL     1       0.918   8.175  20.099  0.00  0.00    +0.000 C 
ATOM     15  C   UNL     1       2.253   7.465  19.914  0.00  0.00    +0.000 C 
ATOM     16  C   UNL     1       2.596   7.258  18.426  0.00  0.00    +0.000 C 
ATOM     17  C   UNL     1       2.455   8.565  17.608  0.00  0.00    +0.000 C 
ATOM     18  C   UNL     1       1.123   9.303  17.871  0.00  0.00    +0.000 C 
BRANCH  16  19
ATOM     19  C   UNL     1       3.957   6.574  18.347  0.00  0.00    +0.000 A 
ATOM     20  C   UNL     1       4.803   6.874  17.264  0.00  0.00    +0.000 A 
ATOM     21  C   UNL     1       6.011   6.196  17.083  0.00  0.00    +0.000 A 
ATOM     22  C   UNL     1       6.392   5.208  17.986  0.00  0.00    +0.000 A 
ATOM     23 CL   UNL     1       7.868   4.356  17.753  0.00  0.00    +0.000 Cl
ATOM     24  C   UNL     1       5.572   4.895  19.066  0.00  0.00    +0.000 A 
ATOM     25  C   UNL     1       4.358   5.569  19.243  0.00  0.00    +0.000 A 
ENDBRANCH  16  19
ENDBRANCH   4  13
BRANCH   3  26
ATOM     26  O   UNL     1      -1.376  10.076  17.842  0.00  0.00    +0.000 OA
ATOM     27  H   UNL     1      -0.468   9.976  17.479  0.00  0.00    +0.000 HD
ENDBRANCH   3  26
TORSDOF 3
ENDMDL
MODEL 5
REMARK VINA RESULT:      -7.6      1.052      2.443
REMARK  Name = 
REMARK  3 active torsions:
REMARK  status: ('A' for Active; 'I' for Inactive)
REMARK    1  A    between atoms: C_3  and  O_4
REMARK    2  A    between atoms: C_5  and  C_6
REMARK    3  A    between atoms: C_9  and  C_10
REMARK                            x       y       z     vdW  Elec       q    Type
REMARK                         _______ _______ _______ _____ _____    ______ ____
ROOT
ATOM      1  O   UNL     1      -1.037  12.592  22.049  0.00  0.00    +0.000 OA
ATOM      2  C   UNL     1      -1.230  11.994  20.994  0.00  0.00    +0.000 C 
ATOM      3  C   UNL     1      -0.176  11.079  20.485  0.00  0.00    +0.000 C 
ATOM      4  C   UNL     1      -0.327  10.330  19.381  0.00  0.00    +0.000 C 
ATOM      5  C   UNL     1      -1.583  10.454  18.581  0.00  0.00    +0.000 C 
ATOM      6  O   UNL     1      -1.760   9.796  17.563  0.00  0.00    +0.000 OA
ATOM      7  C   UNL     1      -2.639  11.384  19.057  0.00  0.00    +0.000 A 
ATOM      8  C   UNL     1      -3.834  11.525  18.337  0.00  0.00    +0.000 A 
ATOM      9  C   UNL     1      -4.838  12.385  18.795  0.00  0.00    +0.000 A 
ATOM     10  C   UNL     1      -4.663  13.102  19.980  0.00  0.00    +0.000 A 
ATOM     11  C   UNL     1      -3.480  12.965  20.701  0.00  0.00    +0.000 A 
ATOM     12  C   UNL     1      -2.471  12.115  20.230  0.00  0.00    +0.000 A 
ENDROOT
BRANCH   4  13
ATOM     13  C   UNL     1       0.704   9.269  19.029  0.00  0.00    +0.000 C 
ATOM     14  C   UNL     1       1.790   9.833  18.105  0.00  0.00    +0.000 C 
ATOM     15  C   UNL     1       2.546   8.682  17.450  0.00  0.00    +0.000 C 
ATOM     16  C   UNL     1       3.183   7.742  18.491  0.00  0.00    +0.000 C 
ATOM     17  C   UNL     1       2.169   7.299  19.575  0.00  0.00    +0.000 C 
ATOM     18  C   UNL     1       1.364   8.477  20.169  0.00  0.00    +0.000 C 
BRANCH  16  19
ATOM     19  C   UNL     1       3.882   6.613  17.741  0.00  0.00    +0.000 A 
ATOM     20  C   UNL     1       4.925   6.935  16.854  0.00  0.00    +0.000 A 
ATOM     21  C   UNL     1       5.525   5.953  16.060  0.00  0.00    +0.000 A 
ATOM     22  C   UNL     1       5.089   4.634  16.145  0.00  0.00    +0.000 A 
ATOM     23 CL   UNL     1       5.811   3.427  15.154  0.00  0.00    +0.000 Cl
ATOM     24  C   UNL     1       4.060   4.292  17.017  0.00  0.00    +0.000 A 
ATOM     25  C   UNL     1       3.455   5.276  17.806  0.00  0.00    +0.000 A 
ENDBRANCH  16  19
ENDBRANCH   4  13
BRANCH   3  26
ATOM     26  O   UNL     1       0.959  10.997  21.278  0.00  0.00    +0.000 OA
ATOM     27  H   UNL     1       1.703  10.863  20.651  0.00  0.00    +0.000 HD
ENDBRANCH   3  26
TORSDOF 3
ENDMDL
MODEL 6
REMARK VINA RESULT:      -7.6      4.085      9.205
REMARK  Name = 
REMARK  3 active torsions:
REMARK  status: ('A' for Active; 'I' for Inactive)
REMARK    1  A    between atoms: C_3  and  O_4
REMARK    2  A    between atoms: C_5  and  C_6
REMARK    3  A    between atoms: C_9  and  C_10
REMARK                            x       y       z     vdW  Elec       q    Type
REMARK                         _______ _______ _______ _____ _____    ______ ____
ROOT
ATOM      1  O   UNL     1       3.002   2.949  17.468  0.00  0.00    +0.000 OA
ATOM      2  C   UNL     1       3.424   4.100  17.391  0.00  0.00    +0.000 C 
ATOM      3  C   UNL     1       2.680   5.184  18.082  0.00  0.00    +0.000 C 
ATOM      4  C   UNL     1       3.104   6.458  18.113  0.00  0.00    +0.000 C 
ATOM      5  C   UNL     1       4.347   6.832  17.375  0.00  0.00    +0.000 C 
ATOM      6  O   UNL     1       4.765   7.984  17.369  0.00  0.00    +0.000 OA
ATOM      7  C   UNL     1       5.092   5.768  16.653  0.00  0.00    +0.000 A 
ATOM      8  C   UNL     1       6.266   6.079  15.952  0.00  0.00    +0.000 A 
ATOM      9  C   UNL     1       6.980   5.073  15.291  0.00  0.00    +0.000 A 
ATOM     10  C   UNL     1       6.535   3.751  15.333  0.00  0.00    +0.000 A 
ATOM     11  C   UNL     1       5.372   3.436  16.028  0.00  0.00    +0.000 A 
ATOM     12  C   UNL     1       4.651   4.448  16.676  0.00  0.00    +0.000 A 
ENDROOT
BRANCH   4  13
ATOM     13  C   UNL     1       2.406   7.475  19.003  0.00  0.00    +0.000 C 
ATOM     14  C   UNL     1       1.460   8.369  18.192  0.00  0.00    +0.000 C 
ATOM     15  C   UNL     1       1.110   9.608  19.008  0.00  0.00    +0.000 C 
ATOM     16  C   UNL     1       0.457   9.247  20.356  0.00  0.00    +0.000 C 
ATOM     17  C   UNL     1       1.274   8.186  21.134  0.00  0.00    +0.000 C 
ATOM     18  C   UNL     1       1.679   6.976  20.263  0.00  0.00    +0.000 C 
BRANCH  16  19
ATOM     19  C   UNL     1       0.178  10.545  21.107  0.00  0.00    +0.000 A 
ATOM     20  C   UNL     1      -0.596  10.494  22.280  0.00  0.00    +0.000 A 
ATOM     21  C   UNL     1      -0.975  11.663  22.946  0.00  0.00    +0.000 A 
ATOM     22  C   UNL     1      -0.582  12.901  22.446  0.00  0.00    +0.000 A 
ATOM     23 CL   UNL     1      -1.064  14.343  23.251  0.00  0.00    +0.000 Cl
ATOM     24  C   UNL     1       0.186  12.976  21.287  0.00  0.00    +0.000 A 
ATOM     25  C   UNL     1       0.558  11.805  20.617  0.00  0.00    +0.000 A 
ENDBRANCH  16  19
ENDBRANCH   4  13
BRANCH   3  26
ATOM     26  O   UNL     1       1.543   4.771  18.760  0.00  0.00    +0.000 OA
ATOM     27  H   UNL     1       0.903   4.515  18.060  0.00  0.00    +0.000 HD
ENDBRANCH   3  26
TORSDOF 3
ENDMDL
MODEL 7
REMARK VINA RESULT:      -7.6      1.373      1.926
REMARK  Name = 
REMARK  3 active torsions:
REMARK  status: ('A' for Active; 'I' for Inactive)
REMARK    1  A    between atoms: C_3  and  O_4
REMARK    2  A    between atoms: C_5  and  C_6
REMARK    3  A    between atoms: C_9  and  C_10
REMARK                            x       y       z     vdW  Elec       q    Type
REMARK                         _______ _______ _______ _____ _____    ______ ____
ROOT
ATOM      1  O   UNL     1      -3.361  11.957  19.139  0.00  0.00    +0.000 OA
ATOM      2  C   UNL     1      -2.282  11.930  19.725  0.00  0.00    +0.000 C 
ATOM      3  C   UNL     1      -1.308  10.861  19.384  0.00  0.00    +0.000 C 
ATOM      4  C   UNL     1      -0.077  10.794  19.919  0.00  0.00    +0.000 C 
ATOM      5  C   UNL     1       0.326  11.796  20.951  0.00  0.00    +0.000 C 
ATOM      6  O   UNL     1       1.434  11.767  21.471  0.00  0.00    +0.000 OA
ATOM      7  C   UNL     1      -0.644  12.857  21.327  0.00  0.00    +0.000 A 
ATOM      8  C   UNL     1      -0.301  13.819  22.289  0.00  0.00    +0.000 A 
ATOM      9  C   UNL     1      -1.206  14.831  22.628  0.00  0.00    +0.000 A 
ATOM     10  C   UNL     1      -2.453  14.899  22.004  0.00  0.00    +0.000 A 
ATOM     11  C   UNL     1      -2.799  13.948  21.049  0.00  0.00    +0.000 A 
ATOM     12  C   UNL     1      -1.896  12.927  20.723  0.00  0.00    +0.000 A 
ENDROOT
BRANCH   4  13
ATOM     13  C   UNL     1       0.938   9.799  19.380  0.00  0.00    +0.000 C 
ATOM     14  C   UNL     1       0.901   8.483  20.168  0.00  0.00    +0.000 C 
ATOM     15  C   UNL     1       2.174   7.691  19.891  0.00  0.00    +0.000 C 
ATOM     16  C   UNL     1       2.355   7.395  18.390  0.00  0.00    +0.000 C 
ATOM     17  C   UNL     1       2.198   8.668  17.521  0.00  0.00    +0.000 C 
ATOM     18  C   UNL     1       0.939   9.491  17.874  0.00  0.00    +0.000 C 
BRANCH  16  19
ATOM     19  C   UNL     1       3.664   6.633  18.214  0.00  0.00    +0.000 A 
ATOM     20  C   UNL     1       4.051   5.714  19.206  0.00  0.00    +0.000 A 
ATOM     21  C   UNL     1       5.291   5.072  19.150  0.00  0.00    +0.000 A 
ATOM     22  C   UNL     1       6.162   5.340  18.098  0.00  0.00    +0.000 A 
ATOM     23 CL   UNL     1       7.697   4.567  18.039  0.00  0.00    +0.000 Cl
ATOM     24  C   UNL     1       5.800   6.244  17.104  0.00  0.00    +0.000 A 
ATOM     25  C   UNL     1       4.561   6.892  17.164  0.00  0.00    +0.000 A 
ENDBRANCH  16  19
ENDBRANCH   4  13
BRANCH   3  26
ATOM     26  O   UNL     1      -1.735   9.970  18.411  0.00  0.00    +0.000 OA
ATOM     27  H   UNL     1      -1.515   9.080  18.762  0.00  0.00    +0.000 HD
ENDBRANCH   3  26
TORSDOF 3
ENDMDL
MODEL 8
REMARK VINA RESULT:      -7.6      3.910      9.161
REMARK  Name = 
REMARK  3 active torsions:
REMARK  status: ('A' for Active; 'I' for Inactive)
REMARK    1  A    between atoms: C_3  and  O_4
REMARK    2  A    between atoms: C_5  and  C_6
REMARK    3  A    between atoms: C_9  and  C_10
REMARK                            x       y       z     vdW  Elec       q    Type
REMARK                         _______ _______ _______ _____ _____    ______ ____
ROOT
ATOM      1  O   UNL     1       3.369   4.069  20.102  0.00  0.00    +0.000 OA
ATOM      2  C   UNL     1       3.303   5.066  19.389  0.00  0.00    +0.000 C 
ATOM      3  C   UNL     1       2.298   6.111  19.708  0.00  0.00    +0.000 C 
ATOM      4  C   UNL     1       2.201   7.266  19.029  0.00  0.00    +0.000 C 
ATOM      5  C   UNL     1       3.097   7.502  17.858  0.00  0.00    +0.000 C 
ATOM      6  O   UNL     1       3.037   8.537  17.205  0.00  0.00    +0.000 OA
ATOM      7  C   UNL     1       4.091   6.456  17.503  0.00  0.00    +0.000 A 
ATOM      8  C   UNL     1       4.954   6.642  16.413  0.00  0.00    +0.000 A 
ATOM      9  C   UNL     1       5.906   5.668  16.091  0.00  0.00    +0.000 A 
ATOM     10  C   UNL     1       6.011   4.508  16.860  0.00  0.00    +0.000 A 
ATOM     11  C   UNL     1       5.160   4.318  17.944  0.00  0.00    +0.000 A 
ATOM     12  C   UNL     1       4.198   5.289  18.253  0.00  0.00    +0.000 A 
ENDROOT
BRANCH   4  13
ATOM     13  C   UNL     1       1.290   8.375  19.532  0.00  0.00    +0.000 C 
ATOM     14  C   UNL     1       1.666   8.802  20.956  0.00  0.00    +0.000 C 
ATOM     15  C   UNL     1       0.513   9.587  21.571  0.00  0.00    +0.000 C 
ATOM     16  C   UNL     1       0.146  10.827  20.734  0.00  0.00    +0.000 C 
ATOM     17  C   UNL     1      -0.048  10.484  19.237  0.00  0.00    +0.000 C 
ATOM     18  C   UNL     1       1.099   9.625  18.659  0.00  0.00    +0.000 C 
BRANCH  16  19
ATOM     19  C   UNL     1      -1.032  11.521  21.410  0.00  0.00    +0.000 A 
ATOM     20  C   UNL     1      -1.260  11.287  22.778  0.00  0.00    +0.000 A 
ATOM     21  C   UNL     1      -2.387  11.808  23.421  0.00  0.00    +0.000 A 
ATOM     22  C   UNL     1      -3.300  12.573  22.702  0.00  0.00    +0.000 A 
ATOM     23 CL   UNL     1      -4.699  13.198  23.485  0.00  0.00    +0.000 Cl
ATOM     24  C   UNL     1      -3.094  12.820  21.347  0.00  0.00    +0.000 A 
ATOM     25  C   UNL     1      -1.970  12.292  20.703  0.00  0.00    +0.000 A 
ENDBRANCH  16  19
ENDBRANCH   4  13
BRANCH   3  26
ATOM     26  O   UNL     1       1.505   5.841  20.814  0.00  0.00    +0.000 OA
ATOM     27  H   UNL     1       1.710   4.911  21.057  0.00  0.00    +0.000 HD
ENDBRANCH   3  26
TORSDOF 3
ENDMDL
MODEL 9
REMARK VINA RESULT:      -7.6      1.443      2.849
REMARK  Name = 
REMARK  3 active torsions:
REMARK  status: ('A' for Active; 'I' for Inactive)
REMARK    1  A    between atoms: C_3  and  O_4
REMARK    2  A    between atoms: C_5  and  C_6
REMARK    3  A    between atoms: C_9  and  C_10
REMARK                            x       y       z     vdW  Elec       q    Type
REMARK                         _______ _______ _______ _____ _____    ______ ____
ROOT
ATOM      1  O   UNL     1      -0.903  11.004  23.745  0.00  0.00    +0.000 OA
ATOM      2  C   UNL     1      -0.892  11.062  22.519  0.00  0.00    +0.000 C 
ATOM      3  C   UNL     1       0.173  10.341  21.776  0.00  0.00    +0.000 C 
ATOM      4  C   UNL     1       0.223  10.288  20.435  0.00  0.00    +0.000 C 
ATOM      5  C   UNL     1      -0.795  11.033  19.636  0.00  0.00    +0.000 C 
ATOM      6  O   UNL     1      -0.782  11.020  18.412  0.00  0.00    +0.000 OA
ATOM      7  C   UNL     1      -1.853  11.785  20.360  0.00  0.00    +0.000 A 
ATOM      8  C   UNL     1      -2.831  12.493  19.645  0.00  0.00    +0.000 A 
ATOM      9  C   UNL     1      -3.841  13.183  20.325  0.00  0.00    +0.000 A 
ATOM     10  C   UNL     1      -3.890  13.163  21.720  0.00  0.00    +0.000 A 
ATOM     11  C   UNL     1      -2.924  12.461  22.435  0.00  0.00    +0.000 A 
ATOM     12  C   UNL     1      -1.906  11.784  21.750  0.00  0.00    +0.000 A 
ENDROOT
BRANCH   4  13
ATOM     13  C   UNL     1       1.218   9.369  19.742  0.00  0.00    +0.000 C 
ATOM     14  C   UNL     1       1.111   7.933  20.270  0.00  0.00    +0.000 C 
ATOM     15  C   UNL     1       2.362   7.155  19.879  0.00  0.00    +0.000 C 
ATOM     16  C   UNL     1       2.576   7.135  18.354  0.00  0.00    +0.000 C 
ATOM     17  C   UNL     1       2.492   8.552  17.734  0.00  0.00    +0.000 C 
ATOM     18  C   UNL     1       1.253   9.346  18.206  0.00  0.00    +0.000 C 
BRANCH  16  19
ATOM     19  C   UNL     1       3.862   6.366  18.068  0.00  0.00    +0.000 A 
ATOM     20  C   UNL     1       4.475   5.660  19.119  0.00  0.00    +0.000 A 
ATOM     21  C   UNL     1       5.711   5.031  18.941  0.00  0.00    +0.000 A 
ATOM     22  C   UNL     1       6.349   5.099  17.706  0.00  0.00    +0.000 A 
ATOM     23 CL   UNL     1       7.880   4.344  17.490  0.00  0.00    +0.000 Cl
ATOM     24  C   UNL     1       5.761   5.790  16.651  0.00  0.00    +0.000 A 
ATOM     25  C   UNL     1       4.527   6.426  16.832  0.00  0.00    +0.000 A 
ENDBRANCH  16  19
ENDBRANCH   4  13
BRANCH   3  26
ATOM     26  O   UNL     1       1.080   9.658  22.572  0.00  0.00    +0.000 OA
ATOM     27  H   UNL     1       0.631   9.546  23.438  0.00  0.00    +0.000 HD
ENDBRANCH   3  26
TORSDOF 3
ENDMDL
