MODEL 1
REMARK VINA RESULT:      -4.1      0.000      0.000
REMARK  Name = 
REMARK  3 active torsions:
REMARK  status: ('A' for Active; 'I' for Inactive)
REMARK    1  A    between atoms: C_1  and  C_2
REMARK    2  A    between atoms: C_2  and  N_3
REMARK    3  A    between atoms: N_3  and  C_4
REMARK                            x       y       z     vdW  Elec       q    Type
REMARK                         _______ _______ _______ _____ _____    ______ ____
ROOT
ATOM      1  N   UNL     1       2.834   2.737  19.185  0.00  0.00    +0.000 N 
ATOM      2  C   UNL     1       3.400   1.713  18.204  0.00  0.00    +0.000 C 
ATOM      3  C   UNL     1       1.367   2.362  19.484  0.00  0.00    +0.000 C 
ATOM      4  C   UNL     1       1.126   2.982  20.854  0.00  0.00    +0.000 C 
ATOM      5  C   UNL     1       2.432   2.763  21.586  0.00  0.00    +0.000 C 
ATOM      6  C   UNL     1       3.526   2.650  20.532  0.00  0.00    +0.000 C 
ENDROOT
BRANCH   1   8
ATOM      7  C   UNL     1       1.707   4.488  17.647  0.00  0.00    +0.000 C 
ATOM      8  C   UNL     1       2.838   4.160  18.601  0.00  0.00    +0.000 C 
ENDBRANCH   1   8
TORSDOF 1
ENDMDL
MODEL 2
REMARK VINA RESULT:      -4.0      0.850      1.264
REMARK  Name = 
REMARK  3 active torsions:
REMARK  status: ('A' for Active; 'I' for Inactive)
REMARK    1  A    between atoms: C_1  and  C_2
REMARK    2  A    between atoms: C_2  and  N_3
REMARK    3  A    between atoms: N_3  and  C_4
REMARK                            x       y       z     vdW  Elec       q    Type
REMARK                         _______ _______ _______ _____ _____    ______ ____
ROOT
ATOM      1  N   UNL     1       2.877   2.928  19.131  0.00  0.00    +0.000 N 
ATOM      2  C   UNL     1       3.378   1.774  18.264  0.00  0.00    +0.000 C 
ATOM      3  C   UNL     1       1.333   2.917  19.106  0.00  0.00    +0.000 C 
ATOM      4  C   UNL     1       0.963   3.610  20.410  0.00  0.00    +0.000 C 
ATOM      5  C   UNL     1       1.997   3.108  21.394  0.00  0.00    +0.000 C 
ATOM      6  C   UNL     1       3.231   2.713  20.591  0.00  0.00    +0.000 C 
ENDROOT
BRANCH   1   8
ATOM      7  C   UNL     1       4.574   4.879  19.252  0.00  0.00    +0.000 C 
ATOM      8  C   UNL     1       3.338   4.294  18.597  0.00  0.00    +0.000 C 
ENDBRANCH   1   8
TORSDOF 1
ENDMDL
MODEL 3
REMARK VINA RESULT:      -4.0      1.106      3.122
REMARK  Name = 
REMARK  3 active torsions:
REMARK  status: ('A' for Active; 'I' for Inactive)
REMARK    1  A    between atoms: C_1  and  C_2
REMARK    2  A    between atoms: C_2  and  N_3
REMARK    3  A    between atoms: N_3  and  C_4
REMARK                            x       y       z     vdW  Elec       q    Type
REMARK                         _______ _______ _______ _____ _____    ______ ____
ROOT
ATOM      1  N   UNL     1       3.000   3.478  19.653  0.00  0.00    +0.000 N 
ATOM      2  C   UNL     1       4.165   2.512  19.858  0.00  0.00    +0.000 C 
ATOM      3  C   UNL     1       3.559   4.792  19.066  0.00  0.00    +0.000 C 
ATOM      4  C   UNL     1       2.359   5.381  18.336  0.00  0.00    +0.000 C 
ATOM      5  C   UNL     1       1.674   4.174  17.733  0.00  0.00    +0.000 C 
ATOM      6  C   UNL     1       2.043   2.970  18.591  0.00  0.00    +0.000 C 
ENDROOT
BRANCH   1   8
ATOM      7  C   UNL     1       1.532   2.695  21.637  0.00  0.00    +0.000 C 
ATOM      8  C   UNL     1       2.297   3.825  20.976  0.00  0.00    +0.000 C 
ENDBRANCH   1   8
TORSDOF 1
ENDMDL
MODEL 4
REMARK VINA RESULT:      -4.0      1.026      2.912
REMARK  Name = 
REMARK  3 active torsions:
REMARK  status: ('A' for Active; 'I' for Inactive)
REMARK    1  A    between atoms: C_1  and  C_2
REMARK    2  A    between atoms: C_2  and  N_3
REMARK    3  A    between atoms: N_3  and  C_4
REMARK                            x       y       z     vdW  Elec       q    Type
REMARK                         _______ _______ _______ _____ _____    ______ ____
ROOT
ATOM      1  N   UNL     1       2.738   3.802  19.469  0.00  0.00    +0.000 N 
ATOM      2  C   UNL     1       3.409   5.138  19.786  0.00  0.00    +0.000 C 
ATOM      3  C   UNL     1       2.455   3.751  17.952  0.00  0.00    +0.000 C 
ATOM      4  C   UNL     1       2.413   2.257  17.660  0.00  0.00    +0.000 C 
ATOM      5  C   UNL     1       3.502   1.685  18.541  0.00  0.00    +0.000 C 
ATOM      6  C   UNL     1       3.683   2.640  19.714  0.00  0.00    +0.000 C 
ENDROOT
BRANCH   1   8
ATOM      7  C   UNL     1       1.403   2.755  21.424  0.00  0.00    +0.000 C 
ATOM      8  C   UNL     1       1.393   3.644  20.196  0.00  0.00    +0.000 C 
ENDBRANCH   1   8
TORSDOF 1
ENDMDL
MODEL 5
REMARK VINA RESULT:      -4.0      0.993      2.350
REMARK  Name = 
REMARK  3 active torsions:
REMARK  status: ('A' for Active; 'I' for Inactive)
REMARK    1  A    between atoms: C_1  and  C_2
REMARK    2  A    between atoms: C_2  and  N_3
REMARK    3  A    between atoms: N_3  and  C_4
REMARK                            x       y       z     vdW  Elec       q    Type
REMARK                         _______ _______ _______ _____ _____    ______ ____
ROOT
ATOM      1  N   UNL     1       2.258   3.717  19.039  0.00  0.00    +0.000 N 
ATOM      2  C   UNL     1       1.803   4.488  17.801  0.00  0.00    +0.000 C 
ATOM      3  C   UNL     1       2.443   4.723  20.195  0.00  0.00    +0.000 C 
ATOM      4  C   UNL     1       2.256   3.860  21.436  0.00  0.00    +0.000 C 
ATOM      5  C   UNL     1       1.150   2.903  21.048  0.00  0.00    +0.000 C 
ATOM      6  C   UNL     1       1.175   2.775  19.530  0.00  0.00    +0.000 C 
ENDROOT
BRANCH   1   8
ATOM      7  C   UNL     1       3.536   1.568  18.367  0.00  0.00    +0.000 C 
ATOM      8  C   UNL     1       3.608   3.013  18.818  0.00  0.00    +0.000 C 
ENDBRANCH   1   8
TORSDOF 1
ENDMDL
MODEL 6
REMARK VINA RESULT:      -4.0      1.148      1.617
REMARK  Name = 
REMARK  3 active torsions:
REMARK  status: ('A' for Active; 'I' for Inactive)
REMARK    1  A    between atoms: C_1  and  C_2
REMARK    2  A    between atoms: C_2  and  N_3
REMARK    3  A    between atoms: N_3  and  C_4
REMARK                            x       y       z     vdW  Elec       q    Type
REMARK                         _______ _______ _______ _____ _____    ______ ____
ROOT
ATOM      1  N   UNL     1       3.179   3.073  19.576  0.00  0.00    +0.000 N 
ATOM      2  C   UNL     1       4.423   2.287  19.985  0.00  0.00    +0.000 C 
ATOM      3  C   UNL     1       2.178   2.093  18.927  0.00  0.00    +0.000 C 
ATOM      4  C   UNL     1       0.835   2.774  19.151  0.00  0.00    +0.000 C 
ATOM      5  C   UNL     1       0.960   3.379  20.531  0.00  0.00    +0.000 C 
ATOM      6  C   UNL     1       2.444   3.611  20.790  0.00  0.00    +0.000 C 
ENDROOT
BRANCH   1   8
ATOM      7  C   UNL     1       3.889   3.670  17.159  0.00  0.00    +0.000 C 
ATOM      8  C   UNL     1       3.498   4.162  18.539  0.00  0.00    +0.000 C 
ENDBRANCH   1   8
TORSDOF 1
ENDMDL
MODEL 7
REMARK VINA RESULT:      -4.0      1.279      1.728
REMARK  Name = 
REMARK  3 active torsions:
REMARK  status: ('A' for Active; 'I' for Inactive)
REMARK    1  A    between atoms: C_1  and  C_2
REMARK    2  A    between atoms: C_2  and  N_3
REMARK    3  A    between atoms: N_3  and  C_4
REMARK                            x       y       z     vdW  Elec       q    Type
REMARK                         _______ _______ _______ _____ _____    ______ ____
ROOT
ATOM      1  N   UNL     1       3.079   2.951  19.688  0.00  0.00    +0.000 N 
ATOM      2  C   UNL     1       4.383   2.250  20.063  0.00  0.00    +0.000 C 
ATOM      3  C   UNL     1       2.025   2.623  20.768  0.00  0.00    +0.000 C 
ATOM      4  C   UNL     1       1.061   3.798  20.676  0.00  0.00    +0.000 C 
ATOM      5  C   UNL     1       1.961   4.986  20.418  0.00  0.00    +0.000 C 
ATOM      6  C   UNL     1       3.226   4.459  19.752  0.00  0.00    +0.000 C 
ENDROOT
BRANCH   1   8
ATOM      7  C   UNL     1       2.704   3.404  17.166  0.00  0.00    +0.000 C 
ATOM      8  C   UNL     1       2.526   2.460  18.339  0.00  0.00    +0.000 C 
ENDBRANCH   1   8
TORSDOF 1
ENDMDL
MODEL 8
REMARK VINA RESULT:      -4.0      1.333      1.730
REMARK  Name = 
REMARK  3 active torsions:
REMARK  status: ('A' for Active; 'I' for Inactive)
REMARK    1  A    between atoms: C_1  and  C_2
REMARK    2  A    between atoms: C_2  and  N_3
REMARK    3  A    between atoms: N_3  and  C_4
REMARK                            x       y       z     vdW  Elec       q    Type
REMARK                         _______ _______ _______ _____ _____    ______ ____
ROOT
ATOM      1  N   UNL     1       3.006   3.640  18.934  0.00  0.00    +0.000 N 
ATOM      2  C   UNL     1       4.488   3.366  19.180  0.00  0.00    +0.000 C 
ATOM      3  C   UNL     1       2.332   2.316  18.512  0.00  0.00    +0.000 C 
ATOM      4  C   UNL     1       0.878   2.527  18.911  0.00  0.00    +0.000 C 
ATOM      5  C   UNL     1       0.967   3.285  20.217  0.00  0.00    +0.000 C 
ATOM      6  C   UNL     1       2.298   4.028  20.219  0.00  0.00    +0.000 C 
ENDROOT
BRANCH   1   8
ATOM      7  C   UNL     1       2.529   6.085  18.228  0.00  0.00    +0.000 C 
ATOM      8  C   UNL     1       2.785   4.653  17.799  0.00  0.00    +0.000 C 
ENDBRANCH   1   8
TORSDOF 1
ENDMDL
MODEL 9
REMARK VINA RESULT:      -3.9      4.721      5.871
REMARK  Name = 
REMARK  3 active torsions:
REMARK  status: ('A' for Active; 'I' for Inactive)
REMARK    1  A    between atoms: C_1  and  C_2
REMARK    2  A    between atoms: C_2  and  N_3
REMARK    3  A    between atoms: N_3  and  C_4
REMARK                            x       y       z     vdW  Elec       q    Type
REMARK                         _______ _______ _______ _____ _____    ______ ____
ROOT
ATOM      1  N   UNL     1       6.187   5.091  16.746  0.00  0.00    +0.000 N 
ATOM      2  C   UNL     1       4.816   4.416  16.768  0.00  0.00    +0.000 C 
ATOM      3  C   UNL     1       5.978   6.615  16.881  0.00  0.00    +0.000 C 
ATOM      4  C   UNL     1       7.298   7.091  17.474  0.00  0.00    +0.000 C 
ATOM      5  C   UNL     1       7.674   5.996  18.447  0.00  0.00    +0.000 C 
ATOM      6  C   UNL     1       7.006   4.714  17.966  0.00  0.00    +0.000 C 
ENDROOT
BRANCH   1   8
ATOM      7  C   UNL     1       6.209   3.981  14.407  0.00  0.00    +0.000 C 
ATOM      8  C   UNL     1       6.932   4.842  15.424  0.00  0.00    +0.000 C 
ENDBRANCH   1   8
TORSDOF 1
ENDMDL
