MODEL 1
REMARK VINA RESULT:      -7.5      0.000      0.000
REMARK  Name = 
REMARK  4 active torsions:
REMARK  status: ('A' for Active; 'I' for Inactive)
REMARK    1  A    between atoms: C_2  and  C_4
REMARK    2  A    between atoms: N_8  and  C_9
REMARK    3  A    between atoms: C_9  and  C_10
REMARK    4  A    between atoms: C_10  and  C_12
REMARK                            x       y       z     vdW  Elec       q    Type
REMARK                         _______ _______ _______ _____ _____    ______ ____
ROOT
ATOM      1  C   UNL     1       6.837   5.421  18.026  0.00  0.00    +0.000 A 
ATOM      2  C   UNL     1       7.173   4.642  16.922  0.00  0.00    +0.000 A 
ATOM      3  C   UNL     1       6.155   4.136  16.118  0.00  0.00    +0.000 A 
ATOM      4  C   UNL     1       4.825   4.430  16.413  0.00  0.00    +0.000 A 
ATOM      5  N   UNL     1       4.511   5.192  17.489  0.00  0.00    +0.000 N 
ATOM      6  C   UNL     1       5.488   5.659  18.304  0.00  0.00    +0.000 A 
ENDROOT
BRANCH   1   8
ATOM      7  N   UNL     1       8.233   5.419  20.045  0.00  0.00    +0.000 N 
ATOM      8  C   UNL     1       7.818   6.071  18.924  0.00  0.00    +0.000 C 
ATOM      9  O   UNL     1       8.264   7.171  18.622  0.00  0.00    +0.000 OA
ATOM     10  H   UNL     1       8.936   5.883  20.614  0.00  0.00    +0.000 HD
ATOM     11  H   UNL     1       7.954   4.498  20.346  0.00  0.00    +0.000 HD
ENDBRANCH   1   8
BRANCH   5  12
ATOM     12  C   UNL     1       3.104   5.615  17.724  0.00  0.00    +0.000 C 
BRANCH  12  13
ATOM     13  C   UNL     1       2.137   4.486  17.969  0.00  0.00    +0.000 C 
ATOM     14  O   UNL     1       1.306   4.161  17.124  0.00  0.00    +0.000 OA
BRANCH  13  15
ATOM     15  C   UNL     1       2.186   3.785  19.291  0.00  0.00    +0.000 A 
ATOM     16  C   UNL     1       1.124   3.832  20.208  0.00  0.00    +0.000 A 
ATOM     17  C   UNL     1       1.222   3.159  21.430  0.00  0.00    +0.000 A 
ATOM     18  C   UNL     1       2.371   2.436  21.743  0.00  0.00    +0.000 A 
ATOM     19  C   UNL     1       3.427   2.381  20.835  0.00  0.00    +0.000 A 
ATOM     20  C   UNL     1       3.337   3.053  19.615  0.00  0.00    +0.000 A 
ENDBRANCH  13  15
ENDBRANCH  12  13
ENDBRANCH   5  12
TORSDOF 4
ENDMDL
MODEL 2
REMARK VINA RESULT:      -7.5      1.352      1.540
REMARK  Name = 
REMARK  4 active torsions:
REMARK  status: ('A' for Active; 'I' for Inactive)
REMARK    1  A    between atoms: C_2  and  C_4
REMARK    2  A    between atoms: N_8  and  C_9
REMARK    3  A    between atoms: C_9  and  C_10
REMARK    4  A    between atoms: C_10  and  C_12
REMARK                            x       y       z     vdW  Elec       q    Type
REMARK                         _______ _______ _______ _____ _____    ______ ____
ROOT
ATOM      1  C   UNL     1       6.793   5.493  18.124  0.00  0.00    +0.000 A 
ATOM      2  C   UNL     1       7.034   4.551  17.128  0.00  0.00    +0.000 A 
ATOM      3  C   UNL     1       5.970   4.107  16.347  0.00  0.00    +0.000 A 
ATOM      4  C   UNL     1       4.693   4.623  16.554  0.00  0.00    +0.000 A 
ATOM      5  N   UNL     1       4.471   5.542  17.525  0.00  0.00    +0.000 N 
ATOM      6  C   UNL     1       5.489   5.955  18.320  0.00  0.00    +0.000 A 
ENDROOT
BRANCH   1   8
ATOM      7  N   UNL     1       8.286   5.411  20.071  0.00  0.00    +0.000 N 
ATOM      8  C   UNL     1       7.839   6.095  18.981  0.00  0.00    +0.000 C 
ATOM      9  O   UNL     1       8.307   7.184  18.673  0.00  0.00    +0.000 OA
ATOM     10  H   UNL     1       9.032   5.841  20.610  0.00  0.00    +0.000 HD
ATOM     11  H   UNL     1       7.990   4.495  20.371  0.00  0.00    +0.000 HD
ENDBRANCH   1   8
BRANCH   5  12
ATOM     12  C   UNL     1       3.137   6.189  17.656  0.00  0.00    +0.000 C 
BRANCH  12  13
ATOM     13  C   UNL     1       2.583   6.219  19.056  0.00  0.00    +0.000 C 
ATOM     14  O   UNL     1       2.515   7.266  19.695  0.00  0.00    +0.000 OA
BRANCH  13  15
ATOM     15  C   UNL     1       2.146   4.927  19.674  0.00  0.00    +0.000 A 
ATOM     16  C   UNL     1       2.370   4.626  21.026  0.00  0.00    +0.000 A 
ATOM     17  C   UNL     1       1.941   3.404  21.553  0.00  0.00    +0.000 A 
ATOM     18  C   UNL     1       1.287   2.479  20.741  0.00  0.00    +0.000 A 
ATOM     19  C   UNL     1       1.058   2.774  19.398  0.00  0.00    +0.000 A 
ATOM     20  C   UNL     1       1.486   3.991  18.865  0.00  0.00    +0.000 A 
ENDBRANCH  13  15
ENDBRANCH  12  13
ENDBRANCH   5  12
TORSDOF 4
ENDMDL
MODEL 3
REMARK VINA RESULT:      -7.5      1.520      2.413
REMARK  Name = 
REMARK  4 active torsions:
REMARK  status: ('A' for Active; 'I' for Inactive)
REMARK    1  A    between atoms: C_2  and  C_4
REMARK    2  A    between atoms: N_8  and  C_9
REMARK    3  A    between atoms: C_9  and  C_10
REMARK    4  A    between atoms: C_10  and  C_12
REMARK                            x       y       z     vdW  Elec       q    Type
REMARK                         _______ _______ _______ _____ _____    ______ ____
ROOT
ATOM      1  C   UNL     1       6.947   5.444  17.803  0.00  0.00    +0.000 A 
ATOM      2  C   UNL     1       7.040   5.687  16.435  0.00  0.00    +0.000 A 
ATOM      3  C   UNL     1       6.140   5.062  15.575  0.00  0.00    +0.000 A 
ATOM      4  C   UNL     1       5.152   4.226  16.091  0.00  0.00    +0.000 A 
ATOM      5  N   UNL     1       5.070   3.999  17.425  0.00  0.00    +0.000 N 
ATOM      6  C   UNL     1       5.963   4.568  18.271  0.00  0.00    +0.000 A 
ENDROOT
BRANCH   1   8
ATOM      7  N   UNL     1       8.066   5.423  19.987  0.00  0.00    +0.000 N 
ATOM      8  C   UNL     1       7.795   6.088  18.830  0.00  0.00    +0.000 C 
ATOM      9  O   UNL     1       8.267   7.196  18.603  0.00  0.00    +0.000 OA
ATOM     10  H   UNL     1       8.684   5.884  20.649  0.00  0.00    +0.000 HD
ATOM     11  H   UNL     1       7.759   4.496  20.237  0.00  0.00    +0.000 HD
ENDBRANCH   1   8
BRANCH   5  12
ATOM     12  C   UNL     1       3.936   3.215  17.983  0.00  0.00    +0.000 C 
BRANCH  12  13
ATOM     13  C   UNL     1       2.591   3.886  17.878  0.00  0.00    +0.000 C 
ATOM     14  O   UNL     1       1.709   3.440  17.147  0.00  0.00    +0.000 OA
BRANCH  13  15
ATOM     15  C   UNL     1       2.360   5.139  18.663  0.00  0.00    +0.000 A 
ATOM     16  C   UNL     1       1.927   5.123  19.998  0.00  0.00    +0.000 A 
ATOM     17  C   UNL     1       1.727   6.324  20.686  0.00  0.00    +0.000 A 
ATOM     18  C   UNL     1       1.957   7.543  20.051  0.00  0.00    +0.000 A 
ATOM     19  C   UNL     1       2.392   7.566  18.727  0.00  0.00    +0.000 A 
ATOM     20  C   UNL     1       2.591   6.372  18.034  0.00  0.00    +0.000 A 
ENDBRANCH  13  15
ENDBRANCH  12  13
ENDBRANCH   5  12
TORSDOF 4
ENDMDL
MODEL 4
REMARK VINA RESULT:      -7.4      1.529      2.460
REMARK  Name = 
REMARK  4 active torsions:
REMARK  status: ('A' for Active; 'I' for Inactive)
REMARK    1  A    between atoms: C_2  and  C_4
REMARK    2  A    between atoms: N_8  and  C_9
REMARK    3  A    between atoms: C_9  and  C_10
REMARK    4  A    between atoms: C_10  and  C_12
REMARK                            x       y       z     vdW  Elec       q    Type
REMARK                         _______ _______ _______ _____ _____    ______ ____
ROOT
ATOM      1  C   UNL     1       6.967   5.467  17.736  0.00  0.00    +0.000 A 
ATOM      2  C   UNL     1       7.077   5.689  16.366  0.00  0.00    +0.000 A 
ATOM      3  C   UNL     1       6.199   5.038  15.503  0.00  0.00    +0.000 A 
ATOM      4  C   UNL     1       5.214   4.197  16.018  0.00  0.00    +0.000 A 
ATOM      5  N   UNL     1       5.114   3.992  17.355  0.00  0.00    +0.000 N 
ATOM      6  C   UNL     1       5.987   4.587  18.204  0.00  0.00    +0.000 A 
ENDROOT
BRANCH   1   8
ATOM      7  N   UNL     1       8.113   5.472  19.906  0.00  0.00    +0.000 N 
ATOM      8  C   UNL     1       7.791   6.140  18.764  0.00  0.00    +0.000 C 
ATOM      9  O   UNL     1       8.199   7.276  18.551  0.00  0.00    +0.000 OA
ATOM     10  H   UNL     1       8.713   5.955  20.569  0.00  0.00    +0.000 HD
ATOM     11  H   UNL     1       7.860   4.524  20.143  0.00  0.00    +0.000 HD
ENDBRANCH   1   8
BRANCH   5  12
ATOM     12  C   UNL     1       3.982   3.203  17.910  0.00  0.00    +0.000 C 
BRANCH  12  13
ATOM     13  C   UNL     1       2.636   3.873  17.812  0.00  0.00    +0.000 C 
ATOM     14  O   UNL     1       1.748   3.420  17.094  0.00  0.00    +0.000 OA
BRANCH  13  15
ATOM     15  C   UNL     1       2.413   5.134  18.588  0.00  0.00    +0.000 A 
ATOM     16  C   UNL     1       2.630   6.405  18.036  0.00  0.00    +0.000 A 
ATOM     17  C   UNL     1       2.406   7.551  18.805  0.00  0.00    +0.000 A 
ATOM     18  C   UNL     1       1.964   7.438  20.122  0.00  0.00    +0.000 A 
ATOM     19  C   UNL     1       1.742   6.178  20.675  0.00  0.00    +0.000 A 
ATOM     20  C   UNL     1       1.966   5.030  19.913  0.00  0.00    +0.000 A 
ENDBRANCH  13  15
ENDBRANCH  12  13
ENDBRANCH   5  12
TORSDOF 4
ENDMDL
MODEL 5
REMARK VINA RESULT:      -7.4      0.766      1.371
REMARK  Name = 
REMARK  4 active torsions:
REMARK  status: ('A' for Active; 'I' for Inactive)
REMARK    1  A    between atoms: C_2  and  C_4
REMARK    2  A    between atoms: N_8  and  C_9
REMARK    3  A    between atoms: C_9  and  C_10
REMARK    4  A    between atoms: C_10  and  C_12
REMARK                            x       y       z     vdW  Elec       q    Type
REMARK                         _______ _______ _______ _____ _____    ______ ____
ROOT
ATOM      1  C   UNL     1       6.793   5.322  18.199  0.00  0.00    +0.000 A 
ATOM      2  C   UNL     1       7.190   4.628  17.059  0.00  0.00    +0.000 A 
ATOM      3  C   UNL     1       6.221   4.207  16.153  0.00  0.00    +0.000 A 
ATOM      4  C   UNL     1       4.879   4.501  16.384  0.00  0.00    +0.000 A 
ATOM      5  N   UNL     1       4.504   5.180  17.496  0.00  0.00    +0.000 N 
ATOM      6  C   UNL     1       5.432   5.562  18.408  0.00  0.00    +0.000 A 
ENDROOT
BRANCH   1   8
ATOM      7  N   UNL     1       8.397   7.029  18.933  0.00  0.00    +0.000 N 
ATOM      8  C   UNL     1       7.721   5.879  19.209  0.00  0.00    +0.000 C 
ATOM      9  O   UNL     1       7.835   5.313  20.289  0.00  0.00    +0.000 OA
ATOM     10  H   UNL     1       8.994   7.399  19.667  0.00  0.00    +0.000 HD
ATOM     11  H   UNL     1       8.330   7.582  18.092  0.00  0.00    +0.000 HD
ENDBRANCH   1   8
BRANCH   5  12
ATOM     12  C   UNL     1       3.091   5.609  17.673  0.00  0.00    +0.000 C 
BRANCH  12  13
ATOM     13  C   UNL     1       2.121   4.490  17.949  0.00  0.00    +0.000 C 
ATOM     14  O   UNL     1       1.241   4.192  17.144  0.00  0.00    +0.000 OA
BRANCH  13  15
ATOM     15  C   UNL     1       2.228   3.763  19.254  0.00  0.00    +0.000 A 
ATOM     16  C   UNL     1       3.331   2.959  19.579  0.00  0.00    +0.000 A 
ATOM     17  C   UNL     1       3.381   2.302  20.812  0.00  0.00    +0.000 A 
ATOM     18  C   UNL     1       2.339   2.444  21.726  0.00  0.00    +0.000 A 
ATOM     19  C   UNL     1       1.243   3.246  21.412  0.00  0.00    +0.000 A 
ATOM     20  C   UNL     1       1.185   3.902  20.181  0.00  0.00    +0.000 A 
ENDBRANCH  13  15
ENDBRANCH  12  13
ENDBRANCH   5  12
TORSDOF 4
ENDMDL
MODEL 6
REMARK VINA RESULT:      -7.4      2.134      3.465
REMARK  Name = 
REMARK  4 active torsions:
REMARK  status: ('A' for Active; 'I' for Inactive)
REMARK    1  A    between atoms: C_2  and  C_4
REMARK    2  A    between atoms: N_8  and  C_9
REMARK    3  A    between atoms: C_9  and  C_10
REMARK    4  A    between atoms: C_10  and  C_12
REMARK                            x       y       z     vdW  Elec       q    Type
REMARK                         _______ _______ _______ _____ _____    ______ ____
ROOT
ATOM      1  C   UNL     1       6.543   4.637  16.114  0.00  0.00    +0.000 A 
ATOM      2  C   UNL     1       7.347   5.186  17.109  0.00  0.00    +0.000 A 
ATOM      3  C   UNL     1       6.920   5.126  18.433  0.00  0.00    +0.000 A 
ATOM      4  C   UNL     1       5.714   4.502  18.746  0.00  0.00    +0.000 A 
ATOM      5  N   UNL     1       4.941   3.968  17.770  0.00  0.00    +0.000 N 
ATOM      6  C   UNL     1       5.324   4.054  16.472  0.00  0.00    +0.000 A 
ENDROOT
BRANCH   1   8
ATOM      7  N   UNL     1       6.334   3.628  13.886  0.00  0.00    +0.000 N 
ATOM      8  C   UNL     1       6.904   4.577  14.680  0.00  0.00    +0.000 C 
ATOM      9  O   UNL     1       7.683   5.406  14.227  0.00  0.00    +0.000 OA
ATOM     10  H   UNL     1       6.579   3.646  12.900  0.00  0.00    +0.000 HD
ATOM     11  H   UNL     1       5.653   2.938  14.164  0.00  0.00    +0.000 HD
ENDBRANCH   1   8
BRANCH   5  12
ATOM     12  C   UNL     1       3.724   3.188  18.119  0.00  0.00    +0.000 C 
BRANCH  12  13
ATOM     13  C   UNL     1       2.426   3.937  17.966  0.00  0.00    +0.000 C 
ATOM     14  O   UNL     1       1.539   3.535  17.217  0.00  0.00    +0.000 OA
BRANCH  13  15
ATOM     15  C   UNL     1       2.252   5.215  18.727  0.00  0.00    +0.000 A 
ATOM     16  C   UNL     1       1.855   5.242  20.072  0.00  0.00    +0.000 A 
ATOM     17  C   UNL     1       1.707   6.464  20.736  0.00  0.00    +0.000 A 
ATOM     18  C   UNL     1       1.954   7.661  20.067  0.00  0.00    +0.000 A 
ATOM     19  C   UNL     1       2.353   7.641  18.731  0.00  0.00    +0.000 A 
ATOM     20  C   UNL     1       2.501   6.425  18.062  0.00  0.00    +0.000 A 
ENDBRANCH  13  15
ENDBRANCH  12  13
ENDBRANCH   5  12
TORSDOF 4
ENDMDL
MODEL 7
REMARK VINA RESULT:      -7.2      1.543      1.944
REMARK  Name = 
REMARK  4 active torsions:
REMARK  status: ('A' for Active; 'I' for Inactive)
REMARK    1  A    between atoms: C_2  and  C_4
REMARK    2  A    between atoms: N_8  and  C_9
REMARK    3  A    between atoms: C_9  and  C_10
REMARK    4  A    between atoms: C_10  and  C_12
REMARK                            x       y       z     vdW  Elec       q    Type
REMARK                         _______ _______ _______ _____ _____    ______ ____
ROOT
ATOM      1  C   UNL     1       6.892   5.239  17.725  0.00  0.00    +0.000 A 
ATOM      2  C   UNL     1       7.456   5.317  16.454  0.00  0.00    +0.000 A 
ATOM      3  C   UNL     1       6.767   4.769  15.375  0.00  0.00    +0.000 A 
ATOM      4  C   UNL     1       5.523   4.174  15.574  0.00  0.00    +0.000 A 
ATOM      5  N   UNL     1       4.983   4.107  16.816  0.00  0.00    +0.000 N 
ATOM      6  C   UNL     1       5.659   4.600  17.882  0.00  0.00    +0.000 A 
ENDROOT
BRANCH   1   8
ATOM      7  N   UNL     1       8.274   6.938  18.835  0.00  0.00    +0.000 N 
ATOM      8  C   UNL     1       7.485   5.833  18.944  0.00  0.00    +0.000 C 
ATOM      9  O   UNL     1       7.225   5.338  20.034  0.00  0.00    +0.000 OA
ATOM     10  H   UNL     1       8.629   7.337  19.699  0.00  0.00    +0.000 HD
ATOM     11  H   UNL     1       8.502   7.435  17.987  0.00  0.00    +0.000 HD
ENDBRANCH   1   8
BRANCH   5  12
ATOM     12  C   UNL     1       3.599   3.594  17.005  0.00  0.00    +0.000 C 
BRANCH  12  13
ATOM     13  C   UNL     1       3.478   2.445  17.973  0.00  0.00    +0.000 C 
ATOM     14  O   UNL     1       3.952   1.341  17.717  0.00  0.00    +0.000 OA
BRANCH  13  15
ATOM     15  C   UNL     1       2.729   2.670  19.250  0.00  0.00    +0.000 A 
ATOM     16  C   UNL     1       3.310   2.459  20.509  0.00  0.00    +0.000 A 
ATOM     17  C   UNL     1       2.565   2.683  21.672  0.00  0.00    +0.000 A 
ATOM     18  C   UNL     1       1.245   3.120  21.586  0.00  0.00    +0.000 A 
ATOM     19  C   UNL     1       0.663   3.336  20.338  0.00  0.00    +0.000 A 
ATOM     20  C   UNL     1       1.400   3.112  19.174  0.00  0.00    +0.000 A 
ENDBRANCH  13  15
ENDBRANCH  12  13
ENDBRANCH   5  12
TORSDOF 4
ENDMDL
MODEL 8
REMARK VINA RESULT:      -7.1      1.597      2.634
REMARK  Name = 
REMARK  4 active torsions:
REMARK  status: ('A' for Active; 'I' for Inactive)
REMARK    1  A    between atoms: C_2  and  C_4
REMARK    2  A    between atoms: N_8  and  C_9
REMARK    3  A    between atoms: C_9  and  C_10
REMARK    4  A    between atoms: C_10  and  C_12
REMARK                            x       y       z     vdW  Elec       q    Type
REMARK                         _______ _______ _______ _____ _____    ______ ____
ROOT
ATOM      1  C   UNL     1       6.380   5.049  16.406  0.00  0.00    +0.000 A 
ATOM      2  C   UNL     1       7.204   5.083  17.527  0.00  0.00    +0.000 A 
ATOM      3  C   UNL     1       6.653   5.419  18.761  0.00  0.00    +0.000 A 
ATOM      4  C   UNL     1       5.291   5.693  18.861  0.00  0.00    +0.000 A 
ATOM      5  N   UNL     1       4.497   5.654  17.763  0.00  0.00    +0.000 N 
ATOM      6  C   UNL     1       5.027   5.367  16.548  0.00  0.00    +0.000 A 
ENDROOT
BRANCH   1   8
ATOM      7  N   UNL     1       6.278   3.542  14.470  0.00  0.00    +0.000 N 
ATOM      8  C   UNL     1       6.822   4.648  15.051  0.00  0.00    +0.000 C 
ATOM      9  O   UNL     1       7.644   5.340  14.464  0.00  0.00    +0.000 OA
ATOM     10  H   UNL     1       6.580   3.324  13.525  0.00  0.00    +0.000 HD
ATOM     11  H   UNL     1       5.567   2.943  14.861  0.00  0.00    +0.000 HD
ENDBRANCH   1   8
BRANCH   5  12
ATOM     12  C   UNL     1       3.024   5.815  17.895  0.00  0.00    +0.000 C 
BRANCH  12  13
ATOM     13  C   UNL     1       2.255   4.525  18.009  0.00  0.00    +0.000 C 
ATOM     14  O   UNL     1       1.568   4.105  17.081  0.00  0.00    +0.000 OA
BRANCH  13  15
ATOM     15  C   UNL     1       2.316   3.775  19.304  0.00  0.00    +0.000 A 
ATOM     16  C   UNL     1       3.411   2.973  19.658  0.00  0.00    +0.000 A 
ATOM     17  C   UNL     1       3.417   2.293  20.881  0.00  0.00    +0.000 A 
ATOM     18  C   UNL     1       2.337   2.411  21.754  0.00  0.00    +0.000 A 
ATOM     19  C   UNL     1       1.249   3.210  21.411  0.00  0.00    +0.000 A 
ATOM     20  C   UNL     1       1.235   3.889  20.191  0.00  0.00    +0.000 A 
ENDBRANCH  13  15
ENDBRANCH  12  13
ENDBRANCH   5  12
TORSDOF 4
ENDMDL
MODEL 9
REMARK VINA RESULT:      -7.1      2.160      3.591
REMARK  Name = 
REMARK  4 active torsions:
REMARK  status: ('A' for Active; 'I' for Inactive)
REMARK    1  A    between atoms: C_2  and  C_4
REMARK    2  A    between atoms: N_8  and  C_9
REMARK    3  A    between atoms: C_9  and  C_10
REMARK    4  A    between atoms: C_10  and  C_12
REMARK                            x       y       z     vdW  Elec       q    Type
REMARK                         _______ _______ _______ _____ _____    ______ ____
ROOT
ATOM      1  C   UNL     1       6.624   4.891  16.501  0.00  0.00    +0.000 A 
ATOM      2  C   UNL     1       7.416   5.659  17.350  0.00  0.00    +0.000 A 
ATOM      3  C   UNL     1       7.067   5.759  18.694  0.00  0.00    +0.000 A 
ATOM      4  C   UNL     1       5.951   5.076  19.174  0.00  0.00    +0.000 A 
ATOM      5  N   UNL     1       5.189   4.328  18.338  0.00  0.00    +0.000 N 
ATOM      6  C   UNL     1       5.493   4.254  17.019  0.00  0.00    +0.000 A 
ENDROOT
BRANCH   1   8
ATOM      7  N   UNL     1       6.302   3.618  14.427  0.00  0.00    +0.000 N 
ATOM      8  C   UNL     1       6.916   4.650  15.070  0.00  0.00    +0.000 C 
ATOM      9  O   UNL     1       7.678   5.407  14.482  0.00  0.00    +0.000 OA
ATOM     10  H   UNL     1       6.499   3.511  13.436  0.00  0.00    +0.000 HD
ATOM     11  H   UNL     1       5.630   2.976  14.819  0.00  0.00    +0.000 HD
ENDBRANCH   1   8
BRANCH   5  12
ATOM     12  C   UNL     1       4.080   3.496  18.877  0.00  0.00    +0.000 C 
BRANCH  12  13
ATOM     13  C   UNL     1       2.698   4.034  18.612  0.00  0.00    +0.000 C 
ATOM     14  O   UNL     1       1.842   3.350  18.056  0.00  0.00    +0.000 OA
BRANCH  13  15
ATOM     15  C   UNL     1       2.398   5.445  19.011  0.00  0.00    +0.000 A 
ATOM     16  C   UNL     1       2.557   6.526  18.131  0.00  0.00    +0.000 A 
ATOM     17  C   UNL     1       2.262   7.826  18.555  0.00  0.00    +0.000 A 
ATOM     18  C   UNL     1       1.806   8.055  19.851  0.00  0.00    +0.000 A 
ATOM     19  C   UNL     1       1.641   6.985  20.729  0.00  0.00    +0.000 A 
ATOM     20  C   UNL     1       1.936   5.686  20.313  0.00  0.00    +0.000 A 
ENDBRANCH  13  15
ENDBRANCH  12  13
ENDBRANCH   5  12
TORSDOF 4
ENDMDL
