MODEL 1
REMARK VINA RESULT:      -9.1      0.000      0.000
REMARK  Name = 
REMARK  4 active torsions:
REMARK  status: ('A' for Active; 'I' for Inactive)
REMARK    1  A    between atoms: C_10  and  C_11
REMARK    2  A    between atoms: N_18  and  C_19
REMARK    3  A    between atoms: C_19  and  C_20
REMARK    4  A    between atoms: C_20  and  C_21
REMARK                            x       y       z     vdW  Elec       q    Type
REMARK                         _______ _______ _______ _____ _____    ______ ____
ROOT
ATOM      1  O   UNL     1       2.005   3.240  16.705  0.00  0.00    +0.000 OA
ATOM      2  C   UNL     1       2.703   3.729  17.592  0.00  0.00    +0.000 A 
ATOM      3  C   UNL     1       2.245   3.589  18.976  0.00  0.00    +0.000 A 
ATOM      4  C   UNL     1       1.163   2.759  19.302  0.00  0.00    +0.000 A 
ATOM      5  C   UNL     1       0.797   2.589  20.635  0.00  0.00    +0.000 A 
ATOM      6  C   UNL     1       1.511   3.250  21.632  0.00  0.00    +0.000 A 
ATOM      7  C   UNL     1       2.584   4.084  21.291  0.00  0.00    +0.000 A 
ATOM      8  C   UNL     1       2.961   4.255  19.955  0.00  0.00    +0.000 A 
ATOM      9  N   UNL     1       4.067   5.054  19.650  0.00  0.00    +0.000 NA
ATOM     10  C   UNL     1       4.535   5.093  18.437  0.00  0.00    +0.000 A 
ATOM     11  N   UNL     1       3.912   4.411  17.375  0.00  0.00    +0.000 N 
ENDROOT
BRANCH  10  12
ATOM     12  C   UNL     1       5.820   5.846  18.254  0.00  0.00    +0.000 A 
ATOM     13  C   UNL     1       7.019   5.512  18.895  0.00  0.00    +0.000 A 
ATOM     14  C   UNL     1       8.117   6.381  18.854  0.00  0.00    +0.000 A 
ATOM     15  C   UNL     1       8.074   7.534  18.074  0.00  0.00    +0.000 A 
ATOM     16  C   UNL     1       6.944   7.798  17.307  0.00  0.00    +0.000 A 
ATOM     17  C   UNL     1       5.827   6.966  17.404  0.00  0.00    +0.000 A 
ATOM     18  F   UNL     1       4.756   7.301  16.670  0.00  0.00    +0.000 F 
ENDBRANCH  10  12
BRANCH  11  19
ATOM     19  C   UNL     1       4.353   4.378  15.968  0.00  0.00    +0.000 C 
BRANCH  19  20
ATOM     20  C   UNL     1       5.712   3.732  15.663  0.00  0.00    +0.000 C 
BRANCH  20  21
ATOM     21  C   UNL     1       6.378   4.008  14.338  0.00  0.00    +0.000 A 
ATOM     22  C   UNL     1       6.041   3.343  13.155  0.00  0.00    +0.000 A 
ATOM     23  C   UNL     1       6.642   3.703  11.945  0.00  0.00    +0.000 A 
ATOM     24  C   UNL     1       7.570   4.744  11.902  0.00  0.00    +0.000 A 
ATOM     25  C   UNL     1       7.903   5.423  13.069  0.00  0.00    +0.000 A 
ATOM     26  C   UNL     1       7.309   5.059  14.277  0.00  0.00    +0.000 A 
ENDBRANCH  20  21
ENDBRANCH  19  20
ENDBRANCH  11  19
TORSDOF 4
ENDMDL
MODEL 2
REMARK VINA RESULT:      -8.7      3.589      5.025
REMARK  Name = 
REMARK  4 active torsions:
REMARK  status: ('A' for Active; 'I' for Inactive)
REMARK    1  A    between atoms: C_10  and  C_11
REMARK    2  A    between atoms: N_18  and  C_19
REMARK    3  A    between atoms: C_19  and  C_20
REMARK    4  A    between atoms: C_20  and  C_21
REMARK                            x       y       z     vdW  Elec       q    Type
REMARK                         _______ _______ _______ _____ _____    ______ ____
ROOT
ATOM      1  O   UNL     1       2.330   9.806  17.574  0.00  0.00    +0.000 OA
ATOM      2  C   UNL     1       2.137   8.865  18.343  0.00  0.00    +0.000 A 
ATOM      3  C   UNL     1       1.365   9.127  19.560  0.00  0.00    +0.000 A 
ATOM      4  C   UNL     1       0.700  10.346  19.749  0.00  0.00    +0.000 A 
ATOM      5  C   UNL     1      -0.086  10.538  20.883  0.00  0.00    +0.000 A 
ATOM      6  C   UNL     1      -0.199   9.513  21.820  0.00  0.00    +0.000 A 
ATOM      7  C   UNL     1       0.480   8.304  21.623  0.00  0.00    +0.000 A 
ATOM      8  C   UNL     1       1.266   8.102  20.484  0.00  0.00    +0.000 A 
ATOM      9  N   UNL     1       1.891   6.867  20.291  0.00  0.00    +0.000 NA
ATOM     10  C   UNL     1       2.486   6.600  19.165  0.00  0.00    +0.000 A 
ATOM     11  N   UNL     1       2.600   7.556  18.138  0.00  0.00    +0.000 N 
ENDROOT
BRANCH  10  12
ATOM     12  C   UNL     1       2.977   5.191  19.000  0.00  0.00    +0.000 A 
ATOM     13  C   UNL     1       4.069   4.659  19.694  0.00  0.00    +0.000 A 
ATOM     14  C   UNL     1       4.609   3.417  19.334  0.00  0.00    +0.000 A 
ATOM     15  C   UNL     1       3.992   2.639  18.358  0.00  0.00    +0.000 A 
ATOM     16  C   UNL     1       2.814   3.087  17.769  0.00  0.00    +0.000 A 
ATOM     17  C   UNL     1       2.318   4.354  18.083  0.00  0.00    +0.000 A 
ATOM     18  F   UNL     1       1.203   4.743  17.448  0.00  0.00    +0.000 F 
ENDBRANCH  10  12
BRANCH  11  19
ATOM     19  C   UNL     1       3.244   7.365  16.824  0.00  0.00    +0.000 C 
BRANCH  19  20
ATOM     20  C   UNL     1       4.745   7.672  16.716  0.00  0.00    +0.000 C 
BRANCH  20  21
ATOM     21  C   UNL     1       5.738   6.547  16.866  0.00  0.00    +0.000 A 
ATOM     22  C   UNL     1       6.710   6.510  17.872  0.00  0.00    +0.000 A 
ATOM     23  C   UNL     1       7.548   5.399  18.004  0.00  0.00    +0.000 A 
ATOM     24  C   UNL     1       7.413   4.308  17.145  0.00  0.00    +0.000 A 
ATOM     25  C   UNL     1       6.442   4.327  16.150  0.00  0.00    +0.000 A 
ATOM     26  C   UNL     1       5.610   5.437  16.014  0.00  0.00    +0.000 A 
ENDBRANCH  20  21
ENDBRANCH  19  20
ENDBRANCH  11  19
TORSDOF 4
ENDMDL
MODEL 3
REMARK VINA RESULT:      -8.7      0.912      1.311
REMARK  Name = 
REMARK  4 active torsions:
REMARK  status: ('A' for Active; 'I' for Inactive)
REMARK    1  A    between atoms: C_10  and  C_11
REMARK    2  A    between atoms: N_18  and  C_19
REMARK    3  A    between atoms: C_19  and  C_20
REMARK    4  A    between atoms: C_20  and  C_21
REMARK                            x       y       z     vdW  Elec       q    Type
REMARK                         _______ _______ _______ _____ _____    ______ ____
ROOT
ATOM      1  O   UNL     1       2.094   3.097  16.720  0.00  0.00    +0.000 OA
ATOM      2  C   UNL     1       2.721   3.678  17.605  0.00  0.00    +0.000 A 
ATOM      3  C   UNL     1       2.246   3.535  18.983  0.00  0.00    +0.000 A 
ATOM      4  C   UNL     1       1.241   2.615  19.312  0.00  0.00    +0.000 A 
ATOM      5  C   UNL     1       0.862   2.450  20.642  0.00  0.00    +0.000 A 
ATOM      6  C   UNL     1       1.486   3.206  21.632  0.00  0.00    +0.000 A 
ATOM      7  C   UNL     1       2.481   4.129  21.287  0.00  0.00    +0.000 A 
ATOM      8  C   UNL     1       2.871   4.296  19.954  0.00  0.00    +0.000 A 
ATOM      9  N   UNL     1       3.902   5.189  19.647  0.00  0.00    +0.000 NA
ATOM     10  C   UNL     1       4.393   5.236  18.444  0.00  0.00    +0.000 A 
ATOM     11  N   UNL     1       3.863   4.466  17.391  0.00  0.00    +0.000 N 
ENDROOT
BRANCH  10  12
ATOM     12  C   UNL     1       5.604   6.105  18.263  0.00  0.00    +0.000 A 
ATOM     13  C   UNL     1       5.649   7.213  17.408  0.00  0.00    +0.000 A 
ATOM     14  C   UNL     1       6.866   7.843  17.119  0.00  0.00    +0.000 A 
ATOM     15  C   UNL     1       8.033   7.452  17.771  0.00  0.00    +0.000 A 
ATOM     16  C   UNL     1       7.975   6.455  18.739  0.00  0.00    +0.000 A 
ATOM     17  C   UNL     1       6.773   5.785  18.975  0.00  0.00    +0.000 A 
ATOM     18  F   UNL     1       6.794   4.805  19.890  0.00  0.00    +0.000 F 
ENDBRANCH  10  12
BRANCH  11  19
ATOM     19  C   UNL     1       4.339   4.434  15.995  0.00  0.00    +0.000 C 
BRANCH  19  20
ATOM     20  C   UNL     1       5.749   3.885  15.735  0.00  0.00    +0.000 C 
BRANCH  20  21
ATOM     21  C   UNL     1       6.367   4.058  14.371  0.00  0.00    +0.000 A 
ATOM     22  C   UNL     1       5.945   3.350  13.240  0.00  0.00    +0.000 A 
ATOM     23  C   UNL     1       6.507   3.617  11.989  0.00  0.00    +0.000 A 
ATOM     24  C   UNL     1       7.482   4.605  11.850  0.00  0.00    +0.000 A 
ATOM     25  C   UNL     1       7.900   5.326  12.964  0.00  0.00    +0.000 A 
ATOM     26  C   UNL     1       7.344   5.055  14.213  0.00  0.00    +0.000 A 
ENDBRANCH  20  21
ENDBRANCH  19  20
ENDBRANCH  11  19
TORSDOF 4
ENDMDL
MODEL 4
REMARK VINA RESULT:      -8.5      3.904      5.341
REMARK  Name = 
REMARK  4 active torsions:
REMARK  status: ('A' for Active; 'I' for Inactive)
REMARK    1  A    between atoms: C_10  and  C_11
REMARK    2  A    between atoms: N_18  and  C_19
REMARK    3  A    between atoms: C_19  and  C_20
REMARK    4  A    between atoms: C_20  and  C_21
REMARK                            x       y       z     vdW  Elec       q    Type
REMARK                         _______ _______ _______ _____ _____    ______ ____
ROOT
ATOM      1  O   UNL     1       1.872   9.710  17.874  0.00  0.00    +0.000 OA
ATOM      2  C   UNL     1       1.729   8.898  18.787  0.00  0.00    +0.000 A 
ATOM      3  C   UNL     1       1.035   9.347  19.996  0.00  0.00    +0.000 A 
ATOM      4  C   UNL     1       0.382  10.587  20.040  0.00  0.00    +0.000 A 
ATOM      5  C   UNL     1      -0.330  10.955  21.179  0.00  0.00    +0.000 A 
ATOM      6  C   UNL     1      -0.383  10.084  22.265  0.00  0.00    +0.000 A 
ATOM      7  C   UNL     1       0.282   8.853  22.211  0.00  0.00    +0.000 A 
ATOM      8  C   UNL     1       0.995   8.474  21.068  0.00  0.00    +0.000 A 
ATOM      9  N   UNL     1       1.607   7.218  21.025  0.00  0.00    +0.000 NA
ATOM     10  C   UNL     1       2.129   6.779  19.918  0.00  0.00    +0.000 A 
ATOM     11  N   UNL     1       2.177   7.568  18.753  0.00  0.00    +0.000 N 
ENDROOT
BRANCH  10  12
ATOM     12  C   UNL     1       2.608   5.357  19.936  0.00  0.00    +0.000 A 
ATOM     13  C   UNL     1       3.950   4.984  19.792  0.00  0.00    +0.000 A 
ATOM     14  C   UNL     1       4.301   3.642  19.597  0.00  0.00    +0.000 A 
ATOM     15  C   UNL     1       3.332   2.644  19.664  0.00  0.00    +0.000 A 
ATOM     16  C   UNL     1       2.018   2.986  19.963  0.00  0.00    +0.000 A 
ATOM     17  C   UNL     1       1.660   4.330  20.089  0.00  0.00    +0.000 A 
ATOM     18  F   UNL     1       0.369   4.594  20.335  0.00  0.00    +0.000 F 
ENDBRANCH  10  12
BRANCH  11  19
ATOM     19  C   UNL     1       2.737   7.176  17.445  0.00  0.00    +0.000 C 
BRANCH  19  20
ATOM     20  C   UNL     1       4.212   7.506  17.174  0.00  0.00    +0.000 C 
BRANCH  20  21
ATOM     21  C   UNL     1       5.209   6.381  17.057  0.00  0.00    +0.000 A 
ATOM     22  C   UNL     1       4.995   5.243  16.273  0.00  0.00    +0.000 A 
ATOM     23  C   UNL     1       5.994   4.274  16.145  0.00  0.00    +0.000 A 
ATOM     24  C   UNL     1       7.223   4.441  16.782  0.00  0.00    +0.000 A 
ATOM     25  C   UNL     1       7.455   5.576  17.553  0.00  0.00    +0.000 A 
ATOM     26  C   UNL     1       6.455   6.539  17.686  0.00  0.00    +0.000 A 
ENDBRANCH  20  21
ENDBRANCH  19  20
ENDBRANCH  11  19
TORSDOF 4
ENDMDL
MODEL 5
REMARK VINA RESULT:      -8.3      0.870      1.379
REMARK  Name = 
REMARK  4 active torsions:
REMARK  status: ('A' for Active; 'I' for Inactive)
REMARK    1  A    between atoms: C_10  and  C_11
REMARK    2  A    between atoms: N_18  and  C_19
REMARK    3  A    between atoms: C_19  and  C_20
REMARK    4  A    between atoms: C_20  and  C_21
REMARK                            x       y       z     vdW  Elec       q    Type
REMARK                         _______ _______ _______ _____ _____    ______ ____
ROOT
ATOM      1  O   UNL     1       3.009   2.607  16.508  0.00  0.00    +0.000 OA
ATOM      2  C   UNL     1       3.399   3.393  17.370  0.00  0.00    +0.000 A 
ATOM      3  C   UNL     1       2.555   3.585  18.551  0.00  0.00    +0.000 A 
ATOM      4  C   UNL     1       1.445   2.761  18.791  0.00  0.00    +0.000 A 
ATOM      5  C   UNL     1       0.704   2.922  19.959  0.00  0.00    +0.000 A 
ATOM      6  C   UNL     1       1.074   3.903  20.876  0.00  0.00    +0.000 A 
ATOM      7  C   UNL     1       2.178   4.725  20.618  0.00  0.00    +0.000 A 
ATOM      8  C   UNL     1       2.930   4.566  19.450  0.00  0.00    +0.000 A 
ATOM      9  N   UNL     1       4.057   5.368  19.244  0.00  0.00    +0.000 NA
ATOM     10  C   UNL     1       4.863   5.127  18.252  0.00  0.00    +0.000 A 
ATOM     11  N   UNL     1       4.600   4.117  17.307  0.00  0.00    +0.000 N 
ENDROOT
BRANCH  10  12
ATOM     12  C   UNL     1       6.126   5.938  18.221  0.00  0.00    +0.000 A 
ATOM     13  C   UNL     1       7.240   5.677  19.026  0.00  0.00    +0.000 A 
ATOM     14  C   UNL     1       8.294   6.598  19.107  0.00  0.00    +0.000 A 
ATOM     15  C   UNL     1       8.303   7.729  18.295  0.00  0.00    +0.000 A 
ATOM     16  C   UNL     1       7.278   7.920  17.376  0.00  0.00    +0.000 A 
ATOM     17  C   UNL     1       6.197   7.037  17.347  0.00  0.00    +0.000 A 
ATOM     18  F   UNL     1       5.220   7.302  16.467  0.00  0.00    +0.000 F 
ENDBRANCH  10  12
BRANCH  11  19
ATOM     19  C   UNL     1       5.441   3.752  16.151  0.00  0.00    +0.000 C 
BRANCH  19  20
ATOM     20  C   UNL     1       5.327   4.615  14.886  0.00  0.00    +0.000 C 
BRANCH  20  21
ATOM     21  C   UNL     1       5.717   4.025  13.555  0.00  0.00    +0.000 A 
ATOM     22  C   UNL     1       7.037   3.974  13.093  0.00  0.00    +0.000 A 
ATOM     23  C   UNL     1       7.339   3.341  11.884  0.00  0.00    +0.000 A 
ATOM     24  C   UNL     1       6.331   2.737  11.134  0.00  0.00    +0.000 A 
ATOM     25  C   UNL     1       5.016   2.769  11.588  0.00  0.00    +0.000 A 
ATOM     26  C   UNL     1       4.714   3.406  12.790  0.00  0.00    +0.000 A 
ENDBRANCH  20  21
ENDBRANCH  19  20
ENDBRANCH  11  19
TORSDOF 4
ENDMDL
MODEL 6
REMARK VINA RESULT:      -8.3      3.833      5.599
REMARK  Name = 
REMARK  4 active torsions:
REMARK  status: ('A' for Active; 'I' for Inactive)
REMARK    1  A    between atoms: C_10  and  C_11
REMARK    2  A    between atoms: N_18  and  C_19
REMARK    3  A    between atoms: C_19  and  C_20
REMARK    4  A    between atoms: C_20  and  C_21
REMARK                            x       y       z     vdW  Elec       q    Type
REMARK                         _______ _______ _______ _____ _____    ______ ____
ROOT
ATOM      1  O   UNL     1       2.048   9.698  18.075  0.00  0.00    +0.000 OA
ATOM      2  C   UNL     1       1.756   8.900  18.965  0.00  0.00    +0.000 A 
ATOM      3  C   UNL     1       1.103   9.427  20.166  0.00  0.00    +0.000 A 
ATOM      4  C   UNL     1       0.647  10.752  20.221  0.00  0.00    +0.000 A 
ATOM      5  C   UNL     1      -0.034  11.202  21.350  0.00  0.00    +0.000 A 
ATOM      6  C   UNL     1      -0.252  10.330  22.414  0.00  0.00    +0.000 A 
ATOM      7  C   UNL     1       0.219   9.013  22.348  0.00  0.00    +0.000 A 
ATOM      8  C   UNL     1       0.899   8.551  21.216  0.00  0.00    +0.000 A 
ATOM      9  N   UNL     1       1.313   7.217  21.160  0.00  0.00    +0.000 NA
ATOM     10  C   UNL     1       1.795   6.724  20.057  0.00  0.00    +0.000 A 
ATOM     11  N   UNL     1       1.997   7.518  18.912  0.00  0.00    +0.000 N 
ENDROOT
BRANCH  10  12
ATOM     12  C   UNL     1       2.051   5.245  20.055  0.00  0.00    +0.000 A 
ATOM     13  C   UNL     1       1.039   4.279  20.083  0.00  0.00    +0.000 A 
ATOM     14  C   UNL     1       1.346   2.929  20.302  0.00  0.00    +0.000 A 
ATOM     15  C   UNL     1       2.673   2.513  20.377  0.00  0.00    +0.000 A 
ATOM     16  C   UNL     1       3.692   3.441  20.194  0.00  0.00    +0.000 A 
ATOM     17  C   UNL     1       3.382   4.794  20.043  0.00  0.00    +0.000 A 
ATOM     18  F   UNL     1       4.413   5.641  19.915  0.00  0.00    +0.000 F 
ENDBRANCH  10  12
BRANCH  11  19
ATOM     19  C   UNL     1       2.529   7.070  17.611  0.00  0.00    +0.000 C 
BRANCH  19  20
ATOM     20  C   UNL     1       3.935   7.542  17.215  0.00  0.00    +0.000 C 
BRANCH  20  21
ATOM     21  C   UNL     1       5.034   6.523  17.048  0.00  0.00    +0.000 A 
ATOM     22  C   UNL     1       6.350   6.734  17.472  0.00  0.00    +0.000 A 
ATOM     23  C   UNL     1       7.302   5.717  17.358  0.00  0.00    +0.000 A 
ATOM     24  C   UNL     1       6.945   4.473  16.839  0.00  0.00    +0.000 A 
ATOM     25  C   UNL     1       5.635   4.244  16.427  0.00  0.00    +0.000 A 
ATOM     26  C   UNL     1       4.688   5.261  16.534  0.00  0.00    +0.000 A 
ENDBRANCH  20  21
ENDBRANCH  19  20
ENDBRANCH  11  19
TORSDOF 4
ENDMDL
MODEL 7
REMARK VINA RESULT:      -8.2      1.642      6.353
REMARK  Name = 
REMARK  4 active torsions:
REMARK  status: ('A' for Active; 'I' for Inactive)
REMARK    1  A    between atoms: C_10  and  C_11
REMARK    2  A    between atoms: N_18  and  C_19
REMARK    3  A    between atoms: C_19  and  C_20
REMARK    4  A    between atoms: C_20  and  C_21
REMARK                            x       y       z     vdW  Elec       q    Type
REMARK                         _______ _______ _______ _____ _____    ______ ____
ROOT
ATOM      1  O   UNL     1       4.071   3.771  15.904  0.00  0.00    +0.000 OA
ATOM      2  C   UNL     1       5.073   4.462  15.723  0.00  0.00    +0.000 A 
ATOM      3  C   UNL     1       5.813   4.275  14.473  0.00  0.00    +0.000 A 
ATOM      4  C   UNL     1       5.296   3.489  13.434  0.00  0.00    +0.000 A 
ATOM      5  C   UNL     1       5.989   3.389  12.230  0.00  0.00    +0.000 A 
ATOM      6  C   UNL     1       7.193   4.072  12.074  0.00  0.00    +0.000 A 
ATOM      7  C   UNL     1       7.703   4.845  13.124  0.00  0.00    +0.000 A 
ATOM      8  C   UNL     1       7.010   4.955  14.334  0.00  0.00    +0.000 A 
ATOM      9  N   UNL     1       7.519   5.774  15.346  0.00  0.00    +0.000 NA
ATOM     10  C   UNL     1       6.811   6.022  16.409  0.00  0.00    +0.000 A 
ATOM     11  N   UNL     1       5.557   5.422  16.626  0.00  0.00    +0.000 N 
ENDROOT
BRANCH  10  12
ATOM     12  C   UNL     1       7.378   7.044  17.351  0.00  0.00    +0.000 A 
ATOM     13  C   UNL     1       7.338   8.424  17.122  0.00  0.00    +0.000 A 
ATOM     14  C   UNL     1       8.075   9.303  17.926  0.00  0.00    +0.000 A 
ATOM     15  C   UNL     1       8.764   8.829  19.039  0.00  0.00    +0.000 A 
ATOM     16  C   UNL     1       8.685   7.481  19.369  0.00  0.00    +0.000 A 
ATOM     17  C   UNL     1       8.005   6.598  18.528  0.00  0.00    +0.000 A 
ATOM     18  F   UNL     1       8.002   5.304  18.881  0.00  0.00    +0.000 F 
ENDBRANCH  10  12
BRANCH  11  19
ATOM     19  C   UNL     1       4.668   5.631  17.785  0.00  0.00    +0.000 C 
BRANCH  19  20
ATOM     20  C   UNL     1       4.760   4.627  18.943  0.00  0.00    +0.000 C 
BRANCH  20  21
ATOM     21  C   UNL     1       3.491   4.061  19.530  0.00  0.00    +0.000 A 
ATOM     22  C   UNL     1       2.624   4.799  20.342  0.00  0.00    +0.000 A 
ATOM     23  C   UNL     1       1.423   4.238  20.787  0.00  0.00    +0.000 A 
ATOM     24  C   UNL     1       1.068   2.943  20.411  0.00  0.00    +0.000 A 
ATOM     25  C   UNL     1       1.915   2.203  19.592  0.00  0.00    +0.000 A 
ATOM     26  C   UNL     1       3.116   2.760  19.153  0.00  0.00    +0.000 A 
ENDBRANCH  20  21
ENDBRANCH  19  20
ENDBRANCH  11  19
TORSDOF 4
ENDMDL
MODEL 8
REMARK VINA RESULT:      -8.1      3.784      6.194
REMARK  Name = 
REMARK  4 active torsions:
REMARK  status: ('A' for Active; 'I' for Inactive)
REMARK    1  A    between atoms: C_10  and  C_11
REMARK    2  A    between atoms: N_18  and  C_19
REMARK    3  A    between atoms: C_19  and  C_20
REMARK    4  A    between atoms: C_20  and  C_21
REMARK                            x       y       z     vdW  Elec       q    Type
REMARK                         _______ _______ _______ _____ _____    ______ ____
ROOT
ATOM      1  O   UNL     1       0.425   7.828  21.665  0.00  0.00    +0.000 OA
ATOM      2  C   UNL     1       1.132   7.960  20.667  0.00  0.00    +0.000 A 
ATOM      3  C   UNL     1       1.064   9.233  19.947  0.00  0.00    +0.000 A 
ATOM      4  C   UNL     1       0.377  10.333  20.481  0.00  0.00    +0.000 A 
ATOM      5  C   UNL     1       0.391  11.552  19.807  0.00  0.00    +0.000 A 
ATOM      6  C   UNL     1       1.088  11.663  18.606  0.00  0.00    +0.000 A 
ATOM      7  C   UNL     1       1.761  10.554  18.080  0.00  0.00    +0.000 A 
ATOM      8  C   UNL     1       1.756   9.328  18.753  0.00  0.00    +0.000 A 
ATOM      9  N   UNL     1       2.479   8.252  18.228  0.00  0.00    +0.000 NA
ATOM     10  C   UNL     1       2.625   7.160  18.918  0.00  0.00    +0.000 A 
ATOM     11  N   UNL     1       2.004   6.979  20.168  0.00  0.00    +0.000 N 
ENDROOT
BRANCH  10  12
ATOM     12  C   UNL     1       3.555   6.135  18.336  0.00  0.00    +0.000 A 
ATOM     13  C   UNL     1       4.928   6.087  18.603  0.00  0.00    +0.000 A 
ATOM     14  C   UNL     1       5.772   5.250  17.861  0.00  0.00    +0.000 A 
ATOM     15  C   UNL     1       5.239   4.365  16.926  0.00  0.00    +0.000 A 
ATOM     16  C   UNL     1       3.861   4.292  16.762  0.00  0.00    +0.000 A 
ATOM     17  C   UNL     1       3.030   5.174  17.455  0.00  0.00    +0.000 A 
ATOM     18  F   UNL     1       1.713   5.079  17.219  0.00  0.00    +0.000 F 
ENDBRANCH  10  12
BRANCH  11  19
ATOM     19  C   UNL     1       2.102   5.791  21.038  0.00  0.00    +0.000 C 
BRANCH  19  20
ATOM     20  C   UNL     1       1.288   4.550  20.644  0.00  0.00    +0.000 C 
BRANCH  20  21
ATOM     21  C   UNL     1       1.996   3.371  20.027  0.00  0.00    +0.000 A 
ATOM     22  C   UNL     1       1.409   2.535  19.072  0.00  0.00    +0.000 A 
ATOM     23  C   UNL     1       2.148   1.506  18.482  0.00  0.00    +0.000 A 
ATOM     24  C   UNL     1       3.486   1.314  18.825  0.00  0.00    +0.000 A 
ATOM     25  C   UNL     1       4.087   2.147  19.763  0.00  0.00    +0.000 A 
ATOM     26  C   UNL     1       3.347   3.168  20.357  0.00  0.00    +0.000 A 
ENDBRANCH  20  21
ENDBRANCH  19  20
ENDBRANCH  11  19
TORSDOF 4
ENDMDL
MODEL 9
REMARK VINA RESULT:      -8.1      3.294      5.273
REMARK  Name = 
REMARK  4 active torsions:
REMARK  status: ('A' for Active; 'I' for Inactive)
REMARK    1  A    between atoms: C_10  and  C_11
REMARK    2  A    between atoms: N_18  and  C_19
REMARK    3  A    between atoms: C_19  and  C_20
REMARK    4  A    between atoms: C_20  and  C_21
REMARK                            x       y       z     vdW  Elec       q    Type
REMARK                         _______ _______ _______ _____ _____    ______ ____
ROOT
ATOM      1  O   UNL     1       2.783   9.076  17.657  0.00  0.00    +0.000 OA
ATOM      2  C   UNL     1       2.422   8.193  18.434  0.00  0.00    +0.000 A 
ATOM      3  C   UNL     1       1.631   8.592  19.601  0.00  0.00    +0.000 A 
ATOM      4  C   UNL     1       1.132   9.896  19.727  0.00  0.00    +0.000 A 
ATOM      5  C   UNL     1       0.323  10.225  20.812  0.00  0.00    +0.000 A 
ATOM      6  C   UNL     1       0.021   9.253  21.762  0.00  0.00    +0.000 A 
ATOM      7  C   UNL     1       0.535   7.957  21.628  0.00  0.00    +0.000 A 
ATOM      8  C   UNL     1       1.344   7.617  20.539  0.00  0.00    +0.000 A 
ATOM      9  N   UNL     1       1.800   6.303  20.406  0.00  0.00    +0.000 NA
ATOM     10  C   UNL     1       2.410   5.925  19.320  0.00  0.00    +0.000 A 
ATOM     11  N   UNL     1       2.708   6.827  18.281  0.00  0.00    +0.000 N 
ENDROOT
BRANCH  10  12
ATOM     12  C   UNL     1       2.709   4.458  19.211  0.00  0.00    +0.000 A 
ATOM     13  C   UNL     1       3.701   3.807  19.952  0.00  0.00    +0.000 A 
ATOM     14  C   UNL     1       4.076   2.492  19.645  0.00  0.00    +0.000 A 
ATOM     15  C   UNL     1       3.382   1.772  18.675  0.00  0.00    +0.000 A 
ATOM     16  C   UNL     1       2.292   2.355  18.040  0.00  0.00    +0.000 A 
ATOM     17  C   UNL     1       1.965   3.687  18.301  0.00  0.00    +0.000 A 
ATOM     18  F   UNL     1       0.928   4.202  17.624  0.00  0.00    +0.000 F 
ENDBRANCH  10  12
BRANCH  11  19
ATOM     19  C   UNL     1       3.387   6.513  17.010  0.00  0.00    +0.000 C 
BRANCH  19  20
ATOM     20  C   UNL     1       4.605   5.579  17.064  0.00  0.00    +0.000 C 
BRANCH  20  21
ATOM     21  C   UNL     1       5.924   6.116  17.559  0.00  0.00    +0.000 A 
ATOM     22  C   UNL     1       6.478   7.322  17.117  0.00  0.00    +0.000 A 
ATOM     23  C   UNL     1       7.666   7.802  17.676  0.00  0.00    +0.000 A 
ATOM     24  C   UNL     1       8.301   7.093  18.695  0.00  0.00    +0.000 A 
ATOM     25  C   UNL     1       7.753   5.900  19.155  0.00  0.00    +0.000 A 
ATOM     26  C   UNL     1       6.572   5.418  18.592  0.00  0.00    +0.000 A 
ENDBRANCH  20  21
ENDBRANCH  19  20
ENDBRANCH  11  19
TORSDOF 4
ENDMDL
