MODEL 1
REMARK VINA RESULT:      -6.5      0.000      0.000
REMARK  Name = 
REMARK  5 active torsions:
REMARK  status: ('A' for Active; 'I' for Inactive)
REMARK    1  A    between atoms: C_1  and  C_2
REMARK    2  A    between atoms: C_4  and  C_5
REMARK    3  A    between atoms: C_5  and  N_6
REMARK    4  A    between atoms: C_13  and  C_14
REMARK    5  A    between atoms: C_14  and  O_16
REMARK                            x       y       z     vdW  Elec       q    Type
REMARK                         _______ _______ _______ _____ _____    ______ ____
ROOT
ATOM      1  C   UNL     1       7.529   6.922  17.391  0.00  0.00    +0.000 C 
ATOM      2  C   UNL     1       6.397   6.005  17.129  0.00  0.00    +0.000 A 
ATOM      3  O   UNL     1       5.399   6.060  18.062  0.00  0.00    +0.000 OA
ATOM      4  C   UNL     1       4.451   5.146  17.709  0.00  0.00    +0.000 A 
ATOM      5  C   UNL     1       4.863   4.470  16.584  0.00  0.00    +0.000 A 
ATOM      6  C   UNL     1       6.077   5.087  16.137  0.00  0.00    +0.000 A 
ENDROOT
BRANCH   6   7
ATOM      7  C   UNL     1       6.757   4.758  14.891  0.00  0.00    +0.000 C 
ATOM      8  O   UNL     1       7.651   5.449  14.427  0.00  0.00    +0.000 OA
BRANCH   7   9
ATOM      9  O   UNL     1       6.395   3.597  14.288  0.00  0.00    +0.000 OA
ATOM     10  H   UNL     1       7.063   3.240  13.683  0.00  0.00    +0.000 HD
ENDBRANCH   7   9
ENDBRANCH   6   7
BRANCH   4  11
ATOM     11  C   UNL     1       3.174   5.158  18.483  0.00  0.00    +0.000 C 
BRANCH  11  12
ATOM     12  N   UNL     1       3.265   4.663  19.868  0.00  0.00    +0.000 NA
ATOM     13  C   UNL     1       3.640   3.226  19.867  0.00  0.00    +0.000 C 
ATOM     14  C   UNL     1       2.512   2.274  19.417  0.00  0.00    +0.000 C 
ATOM     15  O   UNL     1       1.311   2.474  20.170  0.00  0.00    +0.000 OA
ATOM     16  C   UNL     1       0.886   3.841  20.126  0.00  0.00    +0.000 C 
ATOM     17  C   UNL     1       1.999   4.785  20.617  0.00  0.00    +0.000 C 
ENDBRANCH  11  12
ENDBRANCH   4  11
TORSDOF 4
ENDMDL
MODEL 2
REMARK VINA RESULT:      -6.5      1.196      1.788
REMARK  Name = 
REMARK  5 active torsions:
REMARK  status: ('A' for Active; 'I' for Inactive)
REMARK    1  A    between atoms: C_1  and  C_2
REMARK    2  A    between atoms: C_4  and  C_5
REMARK    3  A    between atoms: C_5  and  N_6
REMARK    4  A    between atoms: C_13  and  C_14
REMARK    5  A    between atoms: C_14  and  O_16
REMARK                            x       y       z     vdW  Elec       q    Type
REMARK                         _______ _______ _______ _____ _____    ______ ____
ROOT
ATOM      1  C   UNL     1       7.688   5.310  18.302  0.00  0.00    +0.000 C 
ATOM      2  C   UNL     1       6.391   4.887  17.727  0.00  0.00    +0.000 A 
ATOM      3  O   UNL     1       5.359   4.861  18.623  0.00  0.00    +0.000 OA
ATOM      4  C   UNL     1       4.248   4.425  17.964  0.00  0.00    +0.000 A 
ATOM      5  C   UNL     1       4.578   4.121  16.663  0.00  0.00    +0.000 A 
ATOM      6  C   UNL     1       5.942   4.512  16.467  0.00  0.00    +0.000 A 
ENDROOT
BRANCH   6   7
ATOM      7  C   UNL     1       6.628   4.492  15.181  0.00  0.00    +0.000 C 
ATOM      8  O   UNL     1       7.476   5.316  14.874  0.00  0.00    +0.000 OA
BRANCH   7   9
ATOM      9  O   UNL     1       6.329   3.463  14.348  0.00  0.00    +0.000 OA
ATOM     10  H   UNL     1       5.620   3.658  13.716  0.00  0.00    +0.000 HD
ENDBRANCH   7   9
ENDBRANCH   6   7
BRANCH   4  11
ATOM     11  C   UNL     1       2.951   4.492  18.699  0.00  0.00    +0.000 C 
BRANCH  11  12
ATOM     12  N   UNL     1       2.310   3.196  18.978  0.00  0.00    +0.000 NA
ATOM     13  C   UNL     1       1.309   3.349  20.066  0.00  0.00    +0.000 C 
ATOM     14  C   UNL     1       1.921   3.545  21.469  0.00  0.00    +0.000 C 
ATOM     15  O   UNL     1       2.855   2.510  21.796  0.00  0.00    +0.000 OA
ATOM     16  C   UNL     1       3.874   2.390  20.796  0.00  0.00    +0.000 C 
ATOM     17  C   UNL     1       3.262   2.151  19.404  0.00  0.00    +0.000 C 
ENDBRANCH  11  12
ENDBRANCH   4  11
TORSDOF 4
ENDMDL
MODEL 3
REMARK VINA RESULT:      -6.4      1.485      2.006
REMARK  Name = 
REMARK  5 active torsions:
REMARK  status: ('A' for Active; 'I' for Inactive)
REMARK    1  A    between atoms: C_1  and  C_2
REMARK    2  A    between atoms: C_4  and  C_5
REMARK    3  A    between atoms: C_5  and  N_6
REMARK    4  A    between atoms: C_13  and  C_14
REMARK    5  A    between atoms: C_14  and  O_16
REMARK                            x       y       z     vdW  Elec       q    Type
REMARK                         _______ _______ _______ _____ _____    ______ ____
ROOT
ATOM      1  C   UNL     1       7.765   5.871  18.935  0.00  0.00    +0.000 C 
ATOM      2  C   UNL     1       6.659   5.111  18.308  0.00  0.00    +0.000 A 
ATOM      3  O   UNL     1       5.932   4.351  19.180  0.00  0.00    +0.000 OA
ATOM      4  C   UNL     1       4.981   3.689  18.461  0.00  0.00    +0.000 A 
ATOM      5  C   UNL     1       5.132   3.983  17.126  0.00  0.00    +0.000 A 
ATOM      6  C   UNL     1       6.151   4.983  17.021  0.00  0.00    +0.000 A 
ENDROOT
BRANCH   6   7
ATOM      7  C   UNL     1       6.509   5.670  15.786  0.00  0.00    +0.000 C 
ATOM      8  O   UNL     1       7.560   5.465  15.199  0.00  0.00    +0.000 OA
BRANCH   7   9
ATOM      9  O   UNL     1       5.580   6.515  15.270  0.00  0.00    +0.000 OA
ATOM     10  H   UNL     1       5.740   7.449  15.470  0.00  0.00    +0.000 HD
ENDBRANCH   7   9
ENDBRANCH   6   7
BRANCH   4  11
ATOM     11  C   UNL     1       3.947   2.937  19.232  0.00  0.00    +0.000 C 
BRANCH  11  12
ATOM     12  N   UNL     1       2.572   3.031  18.711  0.00  0.00    +0.000 NA
ATOM     13  C   UNL     1       2.115   4.444  18.740  0.00  0.00    +0.000 C 
ATOM     14  C   UNL     1       1.801   4.982  20.152  0.00  0.00    +0.000 C 
ATOM     15  O   UNL     1       0.873   4.145  20.850  0.00  0.00    +0.000 OA
ATOM     16  C   UNL     1       1.327   2.787  20.900  0.00  0.00    +0.000 C 
ATOM     17  C   UNL     1       1.597   2.239  19.487  0.00  0.00    +0.000 C 
ENDBRANCH  11  12
ENDBRANCH   4  11
TORSDOF 4
ENDMDL
MODEL 4
REMARK VINA RESULT:      -6.3      0.898      1.357
REMARK  Name = 
REMARK  5 active torsions:
REMARK  status: ('A' for Active; 'I' for Inactive)
REMARK    1  A    between atoms: C_1  and  C_2
REMARK    2  A    between atoms: C_4  and  C_5
REMARK    3  A    between atoms: C_5  and  N_6
REMARK    4  A    between atoms: C_13  and  C_14
REMARK    5  A    between atoms: C_14  and  O_16
REMARK                            x       y       z     vdW  Elec       q    Type
REMARK                         _______ _______ _______ _____ _____    ______ ____
ROOT
ATOM      1  C   UNL     1       7.459   7.141  17.416  0.00  0.00    +0.000 C 
ATOM      2  C   UNL     1       6.577   5.955  17.322  0.00  0.00    +0.000 A 
ATOM      3  O   UNL     1       5.777   5.760  18.413  0.00  0.00    +0.000 OA
ATOM      4  C   UNL     1       5.053   4.625  18.198  0.00  0.00    +0.000 A 
ATOM      5  C   UNL     1       5.426   4.065  16.998  0.00  0.00    +0.000 A 
ATOM      6  C   UNL     1       6.340   4.971  16.371  0.00  0.00    +0.000 A 
ENDROOT
BRANCH   6   7
ATOM      7  C   UNL     1       6.857   4.815  15.016  0.00  0.00    +0.000 C 
ATOM      8  O   UNL     1       7.786   5.479  14.586  0.00  0.00    +0.000 OA
BRANCH   7   9
ATOM      9  O   UNL     1       6.294   3.838  14.261  0.00  0.00    +0.000 OA
ATOM     10  H   UNL     1       6.420   2.943  14.612  0.00  0.00    +0.000 HD
ENDBRANCH   7   9
ENDBRANCH   6   7
BRANCH   4  11
ATOM     11  C   UNL     1       3.971   4.313  19.179  0.00  0.00    +0.000 C 
BRANCH  11  12
ATOM     12  N   UNL     1       2.665   4.938  18.907  0.00  0.00    +0.000 NA
ATOM     13  C   UNL     1       1.901   5.085  20.172  0.00  0.00    +0.000 C 
ATOM     14  C   UNL     1       1.345   3.761  20.737  0.00  0.00    +0.000 C 
ATOM     15  O   UNL     1       0.568   3.049  19.768  0.00  0.00    +0.000 OA
ATOM     16  C   UNL     1       1.309   2.830  18.561  0.00  0.00    +0.000 C 
ATOM     17  C   UNL     1       1.825   4.157  17.977  0.00  0.00    +0.000 C 
ENDBRANCH  11  12
ENDBRANCH   4  11
TORSDOF 4
ENDMDL
MODEL 5
REMARK VINA RESULT:      -6.3      0.899      1.617
REMARK  Name = 
REMARK  5 active torsions:
REMARK  status: ('A' for Active; 'I' for Inactive)
REMARK    1  A    between atoms: C_1  and  C_2
REMARK    2  A    between atoms: C_4  and  C_5
REMARK    3  A    between atoms: C_5  and  N_6
REMARK    4  A    between atoms: C_13  and  C_14
REMARK    5  A    between atoms: C_14  and  O_16
REMARK                            x       y       z     vdW  Elec       q    Type
REMARK                         _______ _______ _______ _____ _____    ______ ____
ROOT
ATOM      1  C   UNL     1       7.394   7.092  17.403  0.00  0.00    +0.000 C 
ATOM      2  C   UNL     1       6.443   5.961  17.303  0.00  0.00    +0.000 A 
ATOM      3  O   UNL     1       5.561   5.873  18.343  0.00  0.00    +0.000 OA
ATOM      4  C   UNL     1       4.779   4.776  18.132  0.00  0.00    +0.000 A 
ATOM      5  C   UNL     1       5.194   4.133  16.989  0.00  0.00    +0.000 A 
ATOM      6  C   UNL     1       6.206   4.946  16.385  0.00  0.00    +0.000 A 
ENDROOT
BRANCH   6   7
ATOM      7  C   UNL     1       6.800   4.688  15.079  0.00  0.00    +0.000 C 
ATOM      8  O   UNL     1       6.354   3.854  14.306  0.00  0.00    +0.000 OA
BRANCH   7   9
ATOM      9  O   UNL     1       7.850   5.472  14.723  0.00  0.00    +0.000 OA
ATOM     10  H   UNL     1       8.342   5.839  15.473  0.00  0.00    +0.000 HD
ENDBRANCH   7   9
ENDBRANCH   6   7
BRANCH   4  11
ATOM     11  C   UNL     1       3.616   4.583  19.048  0.00  0.00    +0.000 C 
BRANCH  11  12
ATOM     12  N   UNL     1       2.902   3.303  18.910  0.00  0.00    +0.000 NA
ATOM     13  C   UNL     1       1.436   3.541  18.885  0.00  0.00    +0.000 C 
ATOM     14  C   UNL     1       0.832   3.928  20.251  0.00  0.00    +0.000 C 
ATOM     15  O   UNL     1       1.165   2.981  21.272  0.00  0.00    +0.000 OA
ATOM     16  C   UNL     1       2.581   2.788  21.366  0.00  0.00    +0.000 C 
ATOM     17  C   UNL     1       3.174   2.358  20.012  0.00  0.00    +0.000 C 
ENDBRANCH  11  12
ENDBRANCH   4  11
TORSDOF 4
ENDMDL
MODEL 6
REMARK VINA RESULT:      -6.3      1.711      2.684
REMARK  Name = 
REMARK  5 active torsions:
REMARK  status: ('A' for Active; 'I' for Inactive)
REMARK    1  A    between atoms: C_1  and  C_2
REMARK    2  A    between atoms: C_4  and  C_5
REMARK    3  A    between atoms: C_5  and  N_6
REMARK    4  A    between atoms: C_13  and  C_14
REMARK    5  A    between atoms: C_14  and  O_16
REMARK                            x       y       z     vdW  Elec       q    Type
REMARK                         _______ _______ _______ _____ _____    ______ ____
ROOT
ATOM      1  C   UNL     1       6.289   4.905  15.451  0.00  0.00    +0.000 C 
ATOM      2  C   UNL     1       6.068   5.007  16.912  0.00  0.00    +0.000 A 
ATOM      3  O   UNL     1       5.179   4.098  17.413  0.00  0.00    +0.000 OA
ATOM      4  C   UNL     1       5.054   4.334  18.750  0.00  0.00    +0.000 A 
ATOM      5  C   UNL     1       5.820   5.423  19.095  0.00  0.00    +0.000 A 
ATOM      6  C   UNL     1       6.563   5.808  17.933  0.00  0.00    +0.000 A 
ENDROOT
BRANCH   6   7
ATOM      7  C   UNL     1       7.602   6.831  17.920  0.00  0.00    +0.000 C 
ATOM      8  O   UNL     1       7.722   7.635  17.009  0.00  0.00    +0.000 OA
BRANCH   7   9
ATOM      9  O   UNL     1       8.404   6.896  19.013  0.00  0.00    +0.000 OA
ATOM     10  H   UNL     1       8.808   6.051  19.259  0.00  0.00    +0.000 HD
ENDBRANCH   7   9
ENDBRANCH   6   7
BRANCH   4  11
ATOM     11  C   UNL     1       4.272   3.341  19.545  0.00  0.00    +0.000 C 
BRANCH  11  12
ATOM     12  N   UNL     1       2.972   3.814  20.051  0.00  0.00    +0.000 NA
ATOM     13  C   UNL     1       2.083   2.655  20.324  0.00  0.00    +0.000 C 
ATOM     14  C   UNL     1       1.535   1.963  19.059  0.00  0.00    +0.000 C 
ATOM     15  O   UNL     1       0.888   2.889  18.179  0.00  0.00    +0.000 OA
ATOM     16  C   UNL     1       1.751   3.982  17.841  0.00  0.00    +0.000 C 
ATOM     17  C   UNL     1       2.261   4.698  19.105  0.00  0.00    +0.000 C 
ENDBRANCH  11  12
ENDBRANCH   4  11
TORSDOF 4
ENDMDL
MODEL 7
REMARK VINA RESULT:      -6.2      1.821      6.150
REMARK  Name = 
REMARK  5 active torsions:
REMARK  status: ('A' for Active; 'I' for Inactive)
REMARK    1  A    between atoms: C_1  and  C_2
REMARK    2  A    between atoms: C_4  and  C_5
REMARK    3  A    between atoms: C_5  and  N_6
REMARK    4  A    between atoms: C_13  and  C_14
REMARK    5  A    between atoms: C_14  and  O_16
REMARK                            x       y       z     vdW  Elec       q    Type
REMARK                         _______ _______ _______ _____ _____    ______ ____
ROOT
ATOM      1  C   UNL     1       4.757   1.633  20.896  0.00  0.00    +0.000 C 
ATOM      2  C   UNL     1       4.008   2.543  20.000  0.00  0.00    +0.000 A 
ATOM      3  O   UNL     1       4.655   2.848  18.836  0.00  0.00    +0.000 OA
ATOM      4  C   UNL     1       3.866   3.712  18.136  0.00  0.00    +0.000 A 
ATOM      5  C   UNL     1       2.740   4.002  18.873  0.00  0.00    +0.000 A 
ATOM      6  C   UNL     1       2.769   3.171  20.040  0.00  0.00    +0.000 A 
ENDROOT
BRANCH   6   7
ATOM      7  C   UNL     1       1.682   3.069  21.006  0.00  0.00    +0.000 C 
ATOM      8  O   UNL     1       1.874   2.859  22.193  0.00  0.00    +0.000 OA
BRANCH   7   9
ATOM      9  O   UNL     1       0.428   3.284  20.534  0.00  0.00    +0.000 OA
ATOM     10  H   UNL     1      -0.089   3.917  21.056  0.00  0.00    +0.000 HD
ENDBRANCH   7   9
ENDBRANCH   6   7
BRANCH   4  11
ATOM     11  C   UNL     1       4.287   4.041  16.742  0.00  0.00    +0.000 C 
BRANCH  11  12
ATOM     12  N   UNL     1       4.998   5.320  16.578  0.00  0.00    +0.000 NA
ATOM     13  C   UNL     1       5.538   5.425  15.197  0.00  0.00    +0.000 C 
ATOM     14  C   UNL     1       6.752   4.515  14.919  0.00  0.00    +0.000 C 
ATOM     15  O   UNL     1       7.798   4.708  15.877  0.00  0.00    +0.000 OA
ATOM     16  C   UNL     1       7.319   4.541  17.217  0.00  0.00    +0.000 C 
ATOM     17  C   UNL     1       6.136   5.482  17.506  0.00  0.00    +0.000 C 
ENDBRANCH  11  12
ENDBRANCH   4  11
TORSDOF 4
ENDMDL
MODEL 8
REMARK VINA RESULT:      -6.2      1.585      2.345
REMARK  Name = 
REMARK  5 active torsions:
REMARK  status: ('A' for Active; 'I' for Inactive)
REMARK    1  A    between atoms: C_1  and  C_2
REMARK    2  A    between atoms: C_4  and  C_5
REMARK    3  A    between atoms: C_5  and  N_6
REMARK    4  A    between atoms: C_13  and  C_14
REMARK    5  A    between atoms: C_14  and  O_16
REMARK                            x       y       z     vdW  Elec       q    Type
REMARK                         _______ _______ _______ _____ _____    ______ ____
ROOT
ATOM      1  C   UNL     1       5.199   6.535  15.733  0.00  0.00    +0.000 C 
ATOM      2  C   UNL     1       5.216   5.919  17.080  0.00  0.00    +0.000 A 
ATOM      3  O   UNL     1       4.056   6.072  17.785  0.00  0.00    +0.000 OA
ATOM      4  C   UNL     1       4.231   5.488  19.004  0.00  0.00    +0.000 A 
ATOM      5  C   UNL     1       5.517   5.009  19.101  0.00  0.00    +0.000 A 
ATOM      6  C   UNL     1       6.137   5.190  17.822  0.00  0.00    +0.000 A 
ENDROOT
BRANCH   6   7
ATOM      7  C   UNL     1       7.455   4.680  17.465  0.00  0.00    +0.000 C 
ATOM      8  O   UNL     1       7.814   4.537  16.307  0.00  0.00    +0.000 OA
BRANCH   7   9
ATOM      9  O   UNL     1       8.307   4.426  18.491  0.00  0.00    +0.000 OA
ATOM     10  H   UNL     1       9.021   5.075  18.583  0.00  0.00    +0.000 HD
ENDBRANCH   7   9
ENDBRANCH   6   7
BRANCH   4  11
ATOM     11  C   UNL     1       3.029   5.369  19.881  0.00  0.00    +0.000 C 
BRANCH  11  12
ATOM     12  N   UNL     1       1.864   4.699  19.277  0.00  0.00    +0.000 NA
ATOM     13  C   UNL     1       0.907   4.293  20.339  0.00  0.00    +0.000 C 
ATOM     14  C   UNL     1       1.374   3.094  21.191  0.00  0.00    +0.000 C 
ATOM     15  O   UNL     1       1.727   1.967  20.382  0.00  0.00    +0.000 OA
ATOM     16  C   UNL     1       2.705   2.316  19.394  0.00  0.00    +0.000 C 
ATOM     17  C   UNL     1       2.217   3.483  18.517  0.00  0.00    +0.000 C 
ENDBRANCH  11  12
ENDBRANCH   4  11
TORSDOF 4
ENDMDL
MODEL 9
REMARK VINA RESULT:      -6.2      2.061      6.071
REMARK  Name = 
REMARK  5 active torsions:
REMARK  status: ('A' for Active; 'I' for Inactive)
REMARK    1  A    between atoms: C_1  and  C_2
REMARK    2  A    between atoms: C_4  and  C_5
REMARK    3  A    between atoms: C_5  and  N_6
REMARK    4  A    between atoms: C_13  and  C_14
REMARK    5  A    between atoms: C_14  and  O_16
REMARK                            x       y       z     vdW  Elec       q    Type
REMARK                         _______ _______ _______ _____ _____    ______ ____
ROOT
ATOM      1  C   UNL     1       3.737   1.007  18.667  0.00  0.00    +0.000 C 
ATOM      2  C   UNL     1       3.561   2.439  18.998  0.00  0.00    +0.000 A 
ATOM      3  O   UNL     1       4.719   3.164  18.999  0.00  0.00    +0.000 OA
ATOM      4  C   UNL     1       4.407   4.444  19.350  0.00  0.00    +0.000 A 
ATOM      5  C   UNL     1       3.061   4.527  19.625  0.00  0.00    +0.000 A 
ATOM      6  C   UNL     1       2.481   3.258  19.302  0.00  0.00    +0.000 A 
ENDROOT
BRANCH   6   7
ATOM      7  C   UNL     1       1.050   2.979  19.314  0.00  0.00    +0.000 C 
ATOM      8  O   UNL     1       0.495   2.350  18.427  0.00  0.00    +0.000 OA
BRANCH   7   9
ATOM      9  O   UNL     1       0.358   3.401  20.403  0.00  0.00    +0.000 OA
ATOM     10  H   UNL     1      -0.493   2.954  20.528  0.00  0.00    +0.000 HD
ENDBRANCH   7   9
ENDBRANCH   6   7
BRANCH   4  11
ATOM     11  C   UNL     1       5.491   5.464  19.239  0.00  0.00    +0.000 C 
BRANCH  11  12
ATOM     12  N   UNL     1       6.790   4.961  18.759  0.00  0.00    +0.000 NA
ATOM     13  C   UNL     1       7.838   5.995  18.960  0.00  0.00    +0.000 C 
ATOM     14  C   UNL     1       7.746   7.191  17.989  0.00  0.00    +0.000 C 
ATOM     15  O   UNL     1       7.720   6.770  16.621  0.00  0.00    +0.000 OA
ATOM     16  C   UNL     1       6.669   5.825  16.384  0.00  0.00    +0.000 C 
ATOM     17  C   UNL     1       6.789   4.612  17.324  0.00  0.00    +0.000 C 
ENDBRANCH  11  12
ENDBRANCH   4  11
TORSDOF 4
ENDMDL
