MODEL 1
REMARK VINA RESULT:      -6.6      0.000      0.000
REMARK  Name = 
REMARK  4 active torsions:
REMARK  status: ('A' for Active; 'I' for Inactive)
REMARK    1  A    between atoms: C_1  and  N_2
REMARK    2  A    between atoms: C_6  and  C_7
REMARK    3  A    between atoms: N_9  and  C_10
REMARK    4  A    between atoms: C_10  and  C_11
REMARK                            x       y       z     vdW  Elec       q    Type
REMARK                         _______ _______ _______ _____ _____    ______ ____
ROOT
ATOM      1  C   UNL     1       7.176   4.948  16.005  0.00  0.00    +0.000 A 
ATOM      2  C   UNL     1       6.207   5.622  16.711  0.00  0.00    +0.000 A 
ATOM      3  N   UNL     1       6.463   5.296  18.009  0.00  0.00    +0.000 N 
ATOM      4  N   UNL     1       7.555   4.507  18.109  0.00  0.00    +0.000 NA
ATOM      5  N   UNL     1       7.987   4.272  16.876  0.00  0.00    +0.000 NA
ENDROOT
BRANCH   1  11
ATOM      6  C   UNL     1       5.342   3.512  13.942  0.00  0.00    +0.000 C 
ATOM      7  N   UNL     1       6.517   4.290  13.631  0.00  0.00    +0.000 N 
ATOM      8  C   UNL     1       7.003   4.523  12.373  0.00  0.00    +0.000 A 
ATOM      9  C   UNL     1       8.079   5.355  12.555  0.00  0.00    +0.000 A 
ATOM     10  N   UNL     1       8.265   5.623  13.886  0.00  0.00    +0.000 NA
ATOM     11  C   UNL     1       7.322   4.955  14.527  0.00  0.00    +0.000 A 
ENDBRANCH   1  11
BRANCH   3  12
ATOM     12  C   UNL     1       5.757   5.732  19.198  0.00  0.00    +0.000 C 
BRANCH  12  13
ATOM     13  C   UNL     1       4.484   4.978  19.377  0.00  0.00    +0.000 A 
ATOM     14  C   UNL     1       3.290   5.395  19.960  0.00  0.00    +0.000 A 
ATOM     15  N   UNL     1       2.456   4.343  19.795  0.00  0.00    +0.000 N 
ATOM     16  C   UNL     1       3.124   3.361  19.150  0.00  0.00    +0.000 A 
ATOM     17  N   UNL     1       4.355   3.689  18.871  0.00  0.00    +0.000 NA
ATOM     18  S   UNL     1       2.162   1.984  18.820  0.00  0.00    +0.000 S 
ATOM     19  C   UNL     1       0.679   2.740  19.597  0.00  0.00    +0.000 C 
ATOM     20  C   UNL     1       1.063   4.137  20.103  0.00  0.00    +0.000 C 
ENDBRANCH  12  13
ENDBRANCH   3  12
TORSDOF 3
ENDMDL
MODEL 2
REMARK VINA RESULT:      -6.5      2.451      6.948
REMARK  Name = 
REMARK  4 active torsions:
REMARK  status: ('A' for Active; 'I' for Inactive)
REMARK    1  A    between atoms: C_1  and  N_2
REMARK    2  A    between atoms: C_6  and  C_7
REMARK    3  A    between atoms: N_9  and  C_10
REMARK    4  A    between atoms: C_10  and  C_11
REMARK                            x       y       z     vdW  Elec       q    Type
REMARK                         _______ _______ _______ _____ _____    ______ ____
ROOT
ATOM      1  C   UNL     1       3.678   4.733  19.228  0.00  0.00    +0.000 A 
ATOM      2  C   UNL     1       4.981   4.384  18.961  0.00  0.00    +0.000 A 
ATOM      3  N   UNL     1       5.429   5.388  18.157  0.00  0.00    +0.000 N 
ATOM      4  N   UNL     1       4.479   6.331  17.974  0.00  0.00    +0.000 NA
ATOM      5  N   UNL     1       3.390   5.923  18.614  0.00  0.00    +0.000 NA
ENDROOT
BRANCH   1  11
ATOM      6  C   UNL     1       1.948   2.321  18.294  0.00  0.00    +0.000 C 
ATOM      7  N   UNL     1       1.951   2.897  19.616  0.00  0.00    +0.000 N 
ATOM      8  C   UNL     1       1.195   2.463  20.672  0.00  0.00    +0.000 A 
ATOM      9  C   UNL     1       1.570   3.254  21.728  0.00  0.00    +0.000 A 
ATOM     10  N   UNL     1       2.522   4.160  21.342  0.00  0.00    +0.000 NA
ATOM     11  C   UNL     1       2.729   3.944  20.055  0.00  0.00    +0.000 A 
ENDBRANCH   1  11
BRANCH   3  12
ATOM     12  C   UNL     1       6.747   5.549  17.575  0.00  0.00    +0.000 C 
BRANCH  12  13
ATOM     13  C   UNL     1       6.779   5.062  16.167  0.00  0.00    +0.000 A 
ATOM     14  C   UNL     1       6.015   4.066  15.564  0.00  0.00    +0.000 A 
ATOM     15  N   UNL     1       6.407   4.086  14.270  0.00  0.00    +0.000 N 
ATOM     16  C   UNL     1       7.350   5.042  14.121  0.00  0.00    +0.000 A 
ATOM     17  N   UNL     1       7.615   5.666  15.235  0.00  0.00    +0.000 NA
ATOM     18  S   UNL     1       7.895   5.218  12.508  0.00  0.00    +0.000 S 
ATOM     19  C   UNL     1       6.768   3.899  11.903  0.00  0.00    +0.000 C 
ATOM     20  C   UNL     1       5.971   3.365  13.101  0.00  0.00    +0.000 C 
ENDBRANCH  12  13
ENDBRANCH   3  12
TORSDOF 3
ENDMDL
MODEL 3
REMARK VINA RESULT:      -6.5      1.066      1.689
REMARK  Name = 
REMARK  4 active torsions:
REMARK  status: ('A' for Active; 'I' for Inactive)
REMARK    1  A    between atoms: C_1  and  N_2
REMARK    2  A    between atoms: C_6  and  C_7
REMARK    3  A    between atoms: N_9  and  C_10
REMARK    4  A    between atoms: C_10  and  C_11
REMARK                            x       y       z     vdW  Elec       q    Type
REMARK                         _______ _______ _______ _____ _____    ______ ____
ROOT
ATOM      1  C   UNL     1       6.901   4.981  15.454  0.00  0.00    +0.000 A 
ATOM      2  C   UNL     1       6.440   4.378  16.601  0.00  0.00    +0.000 A 
ATOM      3  N   UNL     1       6.860   5.207  17.596  0.00  0.00    +0.000 N 
ATOM      4  N   UNL     1       7.501   6.287  17.097  0.00  0.00    +0.000 NA
ATOM      5  N   UNL     1       7.547   6.143  15.778  0.00  0.00    +0.000 NA
ENDROOT
BRANCH   1  11
ATOM      6  C   UNL     1       8.552   5.758  12.933  0.00  0.00    +0.000 C 
ATOM      7  N   UNL     1       7.446   4.833  12.967  0.00  0.00    +0.000 N 
ATOM      8  C   UNL     1       6.955   4.145  11.890  0.00  0.00    +0.000 A 
ATOM      9  C   UNL     1       5.963   3.345  12.399  0.00  0.00    +0.000 A 
ATOM     10  N   UNL     1       5.831   3.537  13.750  0.00  0.00    +0.000 NA
ATOM     11  C   UNL     1       6.723   4.456  14.076  0.00  0.00    +0.000 A 
ENDBRANCH   1  11
BRANCH   3  12
ATOM     12  C   UNL     1       6.647   5.071  19.024  0.00  0.00    +0.000 C 
BRANCH  12  13
ATOM     13  C   UNL     1       5.231   4.720  19.328  0.00  0.00    +0.000 A 
ATOM     14  C   UNL     1       4.126   5.558  19.458  0.00  0.00    +0.000 A 
ATOM     15  N   UNL     1       3.092   4.712  19.668  0.00  0.00    +0.000 N 
ATOM     16  C   UNL     1       3.564   3.446  19.660  0.00  0.00    +0.000 A 
ATOM     17  N   UNL     1       4.850   3.389  19.458  0.00  0.00    +0.000 NA
ATOM     18  S   UNL     1       2.343   2.261  19.855  0.00  0.00    +0.000 S 
ATOM     19  C   UNL     1       1.020   3.533  19.954  0.00  0.00    +0.000 C 
ATOM     20  C   UNL     1       1.672   4.914  19.813  0.00  0.00    +0.000 C 
ENDBRANCH  12  13
ENDBRANCH   3  12
TORSDOF 3
ENDMDL
MODEL 4
REMARK VINA RESULT:      -6.4      1.369      2.002
REMARK  Name = 
REMARK  4 active torsions:
REMARK  status: ('A' for Active; 'I' for Inactive)
REMARK    1  A    between atoms: C_1  and  N_2
REMARK    2  A    between atoms: C_6  and  C_7
REMARK    3  A    between atoms: N_9  and  C_10
REMARK    4  A    between atoms: C_10  and  C_11
REMARK                            x       y       z     vdW  Elec       q    Type
REMARK                         _______ _______ _______ _____ _____    ______ ____
ROOT
ATOM      1  C   UNL     1       6.694   4.703  15.237  0.00  0.00    +0.000 A 
ATOM      2  C   UNL     1       5.696   5.356  15.920  0.00  0.00    +0.000 A 
ATOM      3  N   UNL     1       6.212   5.524  17.170  0.00  0.00    +0.000 N 
ATOM      4  N   UNL     1       7.474   5.049  17.247  0.00  0.00    +0.000 NA
ATOM      5  N   UNL     1       7.770   4.523  16.064  0.00  0.00    +0.000 NA
ENDROOT
BRANCH   1  11
ATOM      6  C   UNL     1       8.427   5.738  12.869  0.00  0.00    +0.000 C 
ATOM      7  N   UNL     1       7.377   4.753  12.781  0.00  0.00    +0.000 N 
ATOM      8  C   UNL     1       6.984   4.113  11.636  0.00  0.00    +0.000 A 
ATOM      9  C   UNL     1       6.015   3.228  12.036  0.00  0.00    +0.000 A 
ATOM     10  N   UNL     1       5.801   3.321  13.386  0.00  0.00    +0.000 NA
ATOM     11  C   UNL     1       6.620   4.263  13.821  0.00  0.00    +0.000 A 
ENDBRANCH   1  11
BRANCH   3  12
ATOM     12  C   UNL     1       5.596   6.167  18.314  0.00  0.00    +0.000 C 
BRANCH  12  13
ATOM     13  C   UNL     1       4.583   5.279  18.952  0.00  0.00    +0.000 A 
ATOM     14  C   UNL     1       4.722   3.969  19.403  0.00  0.00    +0.000 A 
ATOM     15  N   UNL     1       3.520   3.677  19.948  0.00  0.00    +0.000 N 
ATOM     16  C   UNL     1       2.717   4.757  19.825  0.00  0.00    +0.000 A 
ATOM     17  N   UNL     1       3.307   5.756  19.230  0.00  0.00    +0.000 NA
ATOM     18  S   UNL     1       1.173   4.545  20.532  0.00  0.00    +0.000 S 
ATOM     19  C   UNL     1       1.577   2.841  21.087  0.00  0.00    +0.000 C 
ATOM     20  C   UNL     1       3.014   2.523  20.649  0.00  0.00    +0.000 C 
ENDBRANCH  12  13
ENDBRANCH   3  12
TORSDOF 3
ENDMDL
MODEL 5
REMARK VINA RESULT:      -6.4      0.978      1.222
REMARK  Name = 
REMARK  4 active torsions:
REMARK  status: ('A' for Active; 'I' for Inactive)
REMARK    1  A    between atoms: C_1  and  N_2
REMARK    2  A    between atoms: C_6  and  C_7
REMARK    3  A    between atoms: N_9  and  C_10
REMARK    4  A    between atoms: C_10  and  C_11
REMARK                            x       y       z     vdW  Elec       q    Type
REMARK                         _______ _______ _______ _____ _____    ______ ____
ROOT
ATOM      1  C   UNL     1       7.231   4.901  15.986  0.00  0.00    +0.000 A 
ATOM      2  C   UNL     1       6.223   5.479  16.721  0.00  0.00    +0.000 A 
ATOM      3  N   UNL     1       6.526   5.148  18.007  0.00  0.00    +0.000 N 
ATOM      4  N   UNL     1       7.679   4.448  18.074  0.00  0.00    +0.000 NA
ATOM      5  N   UNL     1       8.109   4.275  16.829  0.00  0.00    +0.000 NA
ENDROOT
BRANCH   1  11
ATOM      6  C   UNL     1       5.373   3.508  13.914  0.00  0.00    +0.000 C 
ATOM      7  N   UNL     1       6.536   4.304  13.606  0.00  0.00    +0.000 N 
ATOM      8  C   UNL     1       6.999   4.576  12.347  0.00  0.00    +0.000 A 
ATOM      9  C   UNL     1       8.071   5.411  12.533  0.00  0.00    +0.000 A 
ATOM     10  N   UNL     1       8.279   5.643  13.868  0.00  0.00    +0.000 NA
ATOM     11  C   UNL     1       7.352   4.950  14.506  0.00  0.00    +0.000 A 
ENDBRANCH   1  11
BRANCH   3  12
ATOM     12  C   UNL     1       5.807   5.501  19.216  0.00  0.00    +0.000 C 
BRANCH  12  13
ATOM     13  C   UNL     1       4.525   4.747  19.321  0.00  0.00    +0.000 A 
ATOM     14  C   UNL     1       4.250   3.428  18.971  0.00  0.00    +0.000 A 
ATOM     15  N   UNL     1       2.960   3.250  19.338  0.00  0.00    +0.000 N 
ATOM     16  C   UNL     1       2.503   4.403  19.875  0.00  0.00    +0.000 A 
ATOM     17  N   UNL     1       3.406   5.344  19.891  0.00  0.00    +0.000 NA
ATOM     18  S   UNL     1       0.891   4.301  20.440  0.00  0.00    +0.000 S 
ATOM     19  C   UNL     1       0.749   2.537  19.945  0.00  0.00    +0.000 C 
ATOM     20  C   UNL     1       2.083   2.107  19.321  0.00  0.00    +0.000 C 
ENDBRANCH  12  13
ENDBRANCH   3  12
TORSDOF 3
ENDMDL
MODEL 6
REMARK VINA RESULT:      -6.3      3.338      6.952
REMARK  Name = 
REMARK  4 active torsions:
REMARK  status: ('A' for Active; 'I' for Inactive)
REMARK    1  A    between atoms: C_1  and  N_2
REMARK    2  A    between atoms: C_6  and  C_7
REMARK    3  A    between atoms: N_9  and  C_10
REMARK    4  A    between atoms: C_10  and  C_11
REMARK                            x       y       z     vdW  Elec       q    Type
REMARK                         _______ _______ _______ _____ _____    ______ ____
ROOT
ATOM      1  C   UNL     1       3.158   6.744  18.126  0.00  0.00    +0.000 A 
ATOM      2  C   UNL     1       4.524   6.676  17.991  0.00  0.00    +0.000 A 
ATOM      3  N   UNL     1       4.771   5.345  17.841  0.00  0.00    +0.000 N 
ATOM      4  N   UNL     1       3.624   4.632  17.833  0.00  0.00    +0.000 NA
ATOM      5  N   UNL     1       2.627   5.486  18.029  0.00  0.00    +0.000 NA
ENDROOT
BRANCH   1  11
ATOM      6  C   UNL     1       1.699   7.604  20.737  0.00  0.00    +0.000 C 
ATOM      7  N   UNL     1       1.714   8.339  19.496  0.00  0.00    +0.000 N 
ATOM      8  C   UNL     1       1.092   9.539  19.277  0.00  0.00    +0.000 A 
ATOM      9  C   UNL     1       1.431   9.888  17.995  0.00  0.00    +0.000 A 
ATOM     10  N   UNL     1       2.229   8.931  17.426  0.00  0.00    +0.000 NA
ATOM     11  C   UNL     1       2.377   7.989  18.341  0.00  0.00    +0.000 A 
ENDBRANCH   1  11
BRANCH   3  12
ATOM     12  C   UNL     1       6.049   4.687  17.648  0.00  0.00    +0.000 C 
BRANCH  12  13
ATOM     13  C   UNL     1       6.347   4.502  16.199  0.00  0.00    +0.000 A 
ATOM     14  C   UNL     1       5.771   3.619  15.289  0.00  0.00    +0.000 A 
ATOM     15  N   UNL     1       6.366   3.921  14.113  0.00  0.00    +0.000 N 
ATOM     16  C   UNL     1       7.244   4.927  14.321  0.00  0.00    +0.000 A 
ATOM     17  N   UNL     1       7.275   5.319  15.564  0.00  0.00    +0.000 NA
ATOM     18  S   UNL     1       8.029   5.454  12.894  0.00  0.00    +0.000 S 
ATOM     19  C   UNL     1       7.121   4.240  11.856  0.00  0.00    +0.000 C 
ATOM     20  C   UNL     1       6.183   3.437  12.768  0.00  0.00    +0.000 C 
ENDBRANCH  12  13
ENDBRANCH   3  12
TORSDOF 3
ENDMDL
MODEL 7
REMARK VINA RESULT:      -6.2      2.350      6.680
REMARK  Name = 
REMARK  4 active torsions:
REMARK  status: ('A' for Active; 'I' for Inactive)
REMARK    1  A    between atoms: C_1  and  N_2
REMARK    2  A    between atoms: C_6  and  C_7
REMARK    3  A    between atoms: N_9  and  C_10
REMARK    4  A    between atoms: C_10  and  C_11
REMARK                            x       y       z     vdW  Elec       q    Type
REMARK                         _______ _______ _______ _____ _____    ______ ____
ROOT
ATOM      1  C   UNL     1       4.318   4.435  19.108  0.00  0.00    +0.000 A 
ATOM      2  C   UNL     1       4.654   5.175  17.999  0.00  0.00    +0.000 A 
ATOM      3  N   UNL     1       6.016   5.154  17.993  0.00  0.00    +0.000 N 
ATOM      4  N   UNL     1       6.499   4.407  19.010  0.00  0.00    +0.000 NA
ATOM      5  N   UNL     1       5.458   3.977  19.713  0.00  0.00    +0.000 NA
ENDROOT
BRANCH   1  11
ATOM      6  C   UNL     1       2.394   2.213  18.088  0.00  0.00    +0.000 C 
ATOM      7  N   UNL     1       2.087   3.200  19.095  0.00  0.00    +0.000 N 
ATOM      8  C   UNL     1       0.898   3.306  19.765  0.00  0.00    +0.000 A 
ATOM      9  C   UNL     1       1.083   4.329  20.660  0.00  0.00    +0.000 A 
ATOM     10  N   UNL     1       2.343   4.853  20.544  0.00  0.00    +0.000 NA
ATOM     11  C   UNL     1       2.934   4.171  19.578  0.00  0.00    +0.000 A 
ENDBRANCH   1  11
BRANCH   3  12
ATOM     12  C   UNL     1       6.917   5.768  17.038  0.00  0.00    +0.000 C 
BRANCH  12  13
ATOM     13  C   UNL     1       6.818   5.111  15.703  0.00  0.00    +0.000 A 
ATOM     14  C   UNL     1       5.985   4.074  15.294  0.00  0.00    +0.000 A 
ATOM     15  N   UNL     1       6.266   3.922  13.980  0.00  0.00    +0.000 N 
ATOM     16  C   UNL     1       7.213   4.823  13.636  0.00  0.00    +0.000 A 
ATOM     17  N   UNL     1       7.584   5.570  14.638  0.00  0.00    +0.000 NA
ATOM     18  S   UNL     1       7.622   4.783  11.974  0.00  0.00    +0.000 S 
ATOM     19  C   UNL     1       6.420   3.435  11.633  0.00  0.00    +0.000 C 
ATOM     20  C   UNL     1       5.717   3.077  12.950  0.00  0.00    +0.000 C 
ENDBRANCH  12  13
ENDBRANCH   3  12
TORSDOF 3
ENDMDL
MODEL 8
REMARK VINA RESULT:      -6.2      2.416      3.798
REMARK  Name = 
REMARK  4 active torsions:
REMARK  status: ('A' for Active; 'I' for Inactive)
REMARK    1  A    between atoms: C_1  and  N_2
REMARK    2  A    between atoms: C_6  and  C_7
REMARK    3  A    between atoms: N_9  and  C_10
REMARK    4  A    between atoms: C_10  and  C_11
REMARK                            x       y       z     vdW  Elec       q    Type
REMARK                         _______ _______ _______ _____ _____    ______ ____
ROOT
ATOM      1  C   UNL     1       6.739   5.673  16.935  0.00  0.00    +0.000 A 
ATOM      2  C   UNL     1       5.467   5.258  17.253  0.00  0.00    +0.000 A 
ATOM      3  N   UNL     1       5.268   4.174  16.452  0.00  0.00    +0.000 N 
ATOM      4  N   UNL     1       6.368   3.900  15.716  0.00  0.00    +0.000 NA
ATOM      5  N   UNL     1       7.271   4.832  15.995  0.00  0.00    +0.000 NA
ENDROOT
BRANCH   1  11
ATOM      6  C   UNL     1       8.281   5.772  19.636  0.00  0.00    +0.000 C 
ATOM      7  N   UNL     1       8.084   6.880  18.734  0.00  0.00    +0.000 N 
ATOM      8  C   UNL     1       8.556   8.151  18.925  0.00  0.00    +0.000 A 
ATOM      9  C   UNL     1       8.192   8.840  17.796  0.00  0.00    +0.000 A 
ATOM     10  N   UNL     1       7.504   8.028  16.932  0.00  0.00    +0.000 NA
ATOM     11  C   UNL     1       7.431   6.848  17.523  0.00  0.00    +0.000 A 
ENDBRANCH   1  11
BRANCH   3  12
ATOM     12  C   UNL     1       4.096   3.324  16.369  0.00  0.00    +0.000 C 
BRANCH  12  13
ATOM     13  C   UNL     1       3.471   3.135  17.709  0.00  0.00    +0.000 A 
ATOM     14  C   UNL     1       3.998   2.532  18.848  0.00  0.00    +0.000 A 
ATOM     15  N   UNL     1       3.036   2.695  19.784  0.00  0.00    +0.000 N 
ATOM     16  C   UNL     1       2.000   3.359  19.226  0.00  0.00    +0.000 A 
ATOM     17  N   UNL     1       2.207   3.651  17.972  0.00  0.00    +0.000 NA
ATOM     18  S   UNL     1       0.729   3.688  20.324  0.00  0.00    +0.000 S 
ATOM     19  C   UNL     1       1.620   2.884  21.715  0.00  0.00    +0.000 C 
ATOM     20  C   UNL     1       2.966   2.370  21.187  0.00  0.00    +0.000 C 
ENDBRANCH  12  13
ENDBRANCH   3  12
TORSDOF 3
ENDMDL
MODEL 9
REMARK VINA RESULT:      -6.1      3.116      6.892
REMARK  Name = 
REMARK  4 active torsions:
REMARK  status: ('A' for Active; 'I' for Inactive)
REMARK    1  A    between atoms: C_1  and  N_2
REMARK    2  A    between atoms: C_6  and  C_7
REMARK    3  A    between atoms: N_9  and  C_10
REMARK    4  A    between atoms: C_10  and  C_11
REMARK                            x       y       z     vdW  Elec       q    Type
REMARK                         _______ _______ _______ _____ _____    ______ ____
ROOT
ATOM      1  C   UNL     1       3.000   6.637  18.333  0.00  0.00    +0.000 A 
ATOM      2  C   UNL     1       4.317   6.469  17.975  0.00  0.00    +0.000 A 
ATOM      3  N   UNL     1       4.502   5.121  18.039  0.00  0.00    +0.000 N 
ATOM      4  N   UNL     1       3.357   4.484  18.368  0.00  0.00    +0.000 NA
ATOM      5  N   UNL     1       2.432   5.414  18.570  0.00  0.00    +0.000 NA
ENDROOT
BRANCH   1  11
ATOM      6  C   UNL     1       1.579   7.788  20.850  0.00  0.00    +0.000 C 
ATOM      7  N   UNL     1       1.652   8.423  19.557  0.00  0.00    +0.000 N 
ATOM      8  C   UNL     1       1.111   9.639  19.239  0.00  0.00    +0.000 A 
ATOM      9  C   UNL     1       1.481   9.866  17.938  0.00  0.00    +0.000 A 
ATOM     10  N   UNL     1       2.220   8.818  17.455  0.00  0.00    +0.000 NA
ATOM     11  C   UNL     1       2.299   7.942  18.441  0.00  0.00    +0.000 A 
ENDBRANCH   1  11
BRANCH   3  12
ATOM     12  C   UNL     1       5.708   4.368  17.753  0.00  0.00    +0.000 C 
BRANCH  12  13
ATOM     13  C   UNL     1       6.078   4.468  16.312  0.00  0.00    +0.000 A 
ATOM     14  C   UNL     1       7.099   5.202  15.715  0.00  0.00    +0.000 A 
ATOM     15  N   UNL     1       7.020   4.874  14.405  0.00  0.00    +0.000 N 
ATOM     16  C   UNL     1       6.007   3.995  14.242  0.00  0.00    +0.000 A 
ATOM     17  N   UNL     1       5.401   3.712  15.361  0.00  0.00    +0.000 NA
ATOM     18  S   UNL     1       5.833   3.447  12.630  0.00  0.00    +0.000 S 
ATOM     19  C   UNL     1       7.252   4.460  12.051  0.00  0.00    +0.000 C 
ATOM     20  C   UNL     1       7.819   5.222  13.257  0.00  0.00    +0.000 C 
ENDBRANCH  12  13
ENDBRANCH   3  12
TORSDOF 3
ENDMDL
