MODEL 1
REMARK VINA RESULT:      -8.9      0.000      0.000
REMARK  Name = 
REMARK  6 active torsions:
REMARK  status: ('A' for Active; 'I' for Inactive)
REMARK    1  A    between atoms: C_1  and  C_2
REMARK    2  A    between atoms: C_8  and  C_9
REMARK    3  A    between atoms: C_9  and  C_10
REMARK    4  A    between atoms: N_12  and  C_13
REMARK    5  A    between atoms: C_14  and  C_15
REMARK    6  A    between atoms: N_17  and  C_18
REMARK                            x       y       z     vdW  Elec       q    Type
REMARK                         _______ _______ _______ _____ _____    ______ ____
ROOT
ATOM      1  C   UNL     1       0.887  10.750  19.579  0.00  0.00    +0.000 A 
ATOM      2  C   UNL     1       1.148   9.392  19.546  0.00  0.00    +0.000 A 
ATOM      3  O   UNL     1       0.664   8.787  20.674  0.00  0.00    +0.000 OA
ATOM      4  C   UNL     1       0.051   9.771  21.409  0.00  0.00    +0.000 A 
ATOM      5  C   UNL     1      -0.573   9.609  22.649  0.00  0.00    +0.000 A 
ATOM      6  C   UNL     1      -1.173  10.747  23.213  0.00  0.00    +0.000 A 
ATOM      7  C   UNL     1      -1.157  11.976  22.555  0.00  0.00    +0.000 A 
ATOM      8  C   UNL     1      -0.510  12.114  21.323  0.00  0.00    +0.000 A 
ATOM      9  C   UNL     1       0.129  10.996  20.752  0.00  0.00    +0.000 A 
ENDROOT
BRANCH   1  12
ATOM     10  C   UNL     1       2.140  12.713  18.933  0.00  0.00    +0.000 C 
ATOM     11  O   UNL     1       2.535  12.978  20.066  0.00  0.00    +0.000 OA
ATOM     12  N   UNL     1       1.333  11.637  18.604  0.00  0.00    +0.000 N 
ATOM     13  H   UNL     1       1.505  11.218  17.685  0.00  0.00    +0.000 HD
BRANCH  10  14
ATOM     14  C   UNL     1       2.528  13.570  17.749  0.00  0.00    +0.000 C 
BRANCH  14  22
ATOM     15  C   UNL     1       8.378  14.186  17.999  0.00  0.00    +0.000 C 
ATOM     16  C   UNL     1       7.115  14.975  18.201  0.00  0.00    +0.000 A 
ATOM     17  C   UNL     1       7.171  16.336  18.528  0.00  0.00    +0.000 A 
ATOM     18  C   UNL     1       6.007  17.090  18.704  0.00  0.00    +0.000 A 
ATOM     19  C   UNL     1       4.798  16.423  18.517  0.00  0.00    +0.000 A 
ATOM     20  O   UNL     1       3.571  16.994  18.637  0.00  0.00    +0.000 OA
ATOM     21  C   UNL     1       2.661  16.030  18.372  0.00  0.00    +0.000 A 
ATOM     22  C   UNL     1       3.272  14.824  18.070  0.00  0.00    +0.000 A 
ATOM     23  C   UNL     1       4.679  15.078  18.183  0.00  0.00    +0.000 A 
ATOM     24  C   UNL     1       5.868  14.334  18.041  0.00  0.00    +0.000 A 
ENDBRANCH  14  22
ENDBRANCH  10  14
ENDBRANCH   1  12
BRANCH   2  25
ATOM     25  C   UNL     1       1.901   8.686  18.534  0.00  0.00    +0.000 C 
ATOM     26  O   UNL     1       2.011   9.188  17.412  0.00  0.00    +0.000 OA
ATOM     27  N   UNL     1       2.432   7.454  18.880  0.00  0.00    +0.000 N 
ATOM     28  H   UNL     1       2.087   7.030  19.734  0.00  0.00    +0.000 HD
BRANCH  27  29
ATOM     29  C   UNL     1       3.231   6.677  18.007  0.00  0.00    +0.000 A 
ATOM     30  C   UNL     1       3.021   5.302  17.824  0.00  0.00    +0.000 A 
ATOM     31  C   UNL     1       3.900   4.534  17.059  0.00  0.00    +0.000 A 
ATOM     32  C   UNL     1       4.986   5.145  16.447  0.00  0.00    +0.000 A 
ATOM     33 CL   UNL     1       6.111   4.190  15.564  0.00  0.00    +0.000 Cl
ATOM     34  C   UNL     1       5.168   6.523  16.556  0.00  0.00    +0.000 A 
ATOM     35  C   UNL     1       4.281   7.293  17.322  0.00  0.00    +0.000 A 
ENDBRANCH  27  29
ENDBRANCH   2  25
TORSDOF 5
ENDMDL
MODEL 2
REMARK VINA RESULT:      -8.7      1.566      3.100
REMARK  Name = 
REMARK  6 active torsions:
REMARK  status: ('A' for Active; 'I' for Inactive)
REMARK    1  A    between atoms: C_1  and  C_2
REMARK    2  A    between atoms: C_8  and  C_9
REMARK    3  A    between atoms: C_9  and  C_10
REMARK    4  A    between atoms: N_12  and  C_13
REMARK    5  A    between atoms: C_14  and  C_15
REMARK    6  A    between atoms: N_17  and  C_18
REMARK                            x       y       z     vdW  Elec       q    Type
REMARK                         _______ _______ _______ _____ _____    ______ ____
ROOT
ATOM      1  C   UNL     1       0.905  10.740  19.617  0.00  0.00    +0.000 A 
ATOM      2  C   UNL     1       1.124   9.375  19.578  0.00  0.00    +0.000 A 
ATOM      3  O   UNL     1       0.610   8.780  20.698  0.00  0.00    +0.000 OA
ATOM      4  C   UNL     1       0.022   9.779  21.433  0.00  0.00    +0.000 A 
ATOM      5  C   UNL     1      -0.618   9.630  22.666  0.00  0.00    +0.000 A 
ATOM      6  C   UNL     1      -1.188  10.784  23.231  0.00  0.00    +0.000 A 
ATOM      7  C   UNL     1      -1.127  12.015  22.580  0.00  0.00    +0.000 A 
ATOM      8  C   UNL     1      -0.464  12.139  21.355  0.00  0.00    +0.000 A 
ATOM      9  C   UNL     1       0.145  11.004  20.784  0.00  0.00    +0.000 A 
ENDROOT
BRANCH   1  12
ATOM     10  C   UNL     1       2.203  12.683  18.996  0.00  0.00    +0.000 C 
ATOM     11  O   UNL     1       2.575  12.945  20.138  0.00  0.00    +0.000 OA
ATOM     12  N   UNL     1       1.389  11.618  18.650  0.00  0.00    +0.000 N 
ATOM     13  H   UNL     1       1.577  11.195  17.737  0.00  0.00    +0.000 HD
BRANCH  10  14
ATOM     14  C   UNL     1       2.633  13.531  17.820  0.00  0.00    +0.000 C 
BRANCH  14  22
ATOM     15  C   UNL     1      -1.890  16.412  20.250  0.00  0.00    +0.000 C 
ATOM     16  C   UNL     1      -0.558  16.670  19.606  0.00  0.00    +0.000 A 
ATOM     17  C   UNL     1      -0.059  17.975  19.500  0.00  0.00    +0.000 A 
ATOM     18  C   UNL     1       1.186  18.232  18.920  0.00  0.00    +0.000 A 
ATOM     19  C   UNL     1       1.907  17.127  18.474  0.00  0.00    +0.000 A 
ATOM     20  O   UNL     1       3.134  17.184  17.894  0.00  0.00    +0.000 OA
ATOM     21  C   UNL     1       3.496  15.912  17.614  0.00  0.00    +0.000 A 
ATOM     22  C   UNL     1       2.525  15.008  18.010  0.00  0.00    +0.000 A 
ATOM     23  C   UNL     1       1.470  15.809  18.560  0.00  0.00    +0.000 A 
ATOM     24  C   UNL     1       0.198  15.580  19.123  0.00  0.00    +0.000 A 
ENDBRANCH  14  22
ENDBRANCH  10  14
ENDBRANCH   1  12
BRANCH   2  25
ATOM     25  C   UNL     1       1.864   8.651  18.569  0.00  0.00    +0.000 C 
ATOM     26  O   UNL     1       1.966   9.137  17.439  0.00  0.00    +0.000 OA
ATOM     27  N   UNL     1       2.392   7.422  18.928  0.00  0.00    +0.000 N 
ATOM     28  H   UNL     1       2.053   7.012  19.791  0.00  0.00    +0.000 HD
BRANCH  27  29
ATOM     29  C   UNL     1       3.178   6.629  18.058  0.00  0.00    +0.000 A 
ATOM     30  C   UNL     1       2.933   5.261  17.864  0.00  0.00    +0.000 A 
ATOM     31  C   UNL     1       3.799   4.474  17.104  0.00  0.00    +0.000 A 
ATOM     32  C   UNL     1       4.908   5.058  16.507  0.00  0.00    +0.000 A 
ATOM     33 CL   UNL     1       6.016   4.078  15.630  0.00  0.00    +0.000 Cl
ATOM     34  C   UNL     1       5.127   6.430  16.627  0.00  0.00    +0.000 A 
ATOM     35  C   UNL     1       4.252   7.220  17.388  0.00  0.00    +0.000 A 
ENDBRANCH  27  29
ENDBRANCH   2  25
TORSDOF 5
ENDMDL
MODEL 3
REMARK VINA RESULT:      -8.5      5.734      9.391
REMARK  Name = 
REMARK  6 active torsions:
REMARK  status: ('A' for Active; 'I' for Inactive)
REMARK    1  A    between atoms: C_1  and  C_2
REMARK    2  A    between atoms: C_8  and  C_9
REMARK    3  A    between atoms: C_9  and  C_10
REMARK    4  A    between atoms: N_12  and  C_13
REMARK    5  A    between atoms: C_14  and  C_15
REMARK    6  A    between atoms: N_17  and  C_18
REMARK                            x       y       z     vdW  Elec       q    Type
REMARK                         _______ _______ _______ _____ _____    ______ ____
ROOT
ATOM      1  C   UNL     1       0.624   9.772  19.876  0.00  0.00    +0.000 A 
ATOM      2  C   UNL     1       0.657   9.566  21.244  0.00  0.00    +0.000 A 
ATOM      3  O   UNL     1       1.355   8.425  21.536  0.00  0.00    +0.000 OA
ATOM      4  C   UNL     1       1.804   7.928  20.338  0.00  0.00    +0.000 A 
ATOM      5  C   UNL     1       2.552   6.763  20.156  0.00  0.00    +0.000 A 
ATOM      6  C   UNL     1       2.942   6.455  18.841  0.00  0.00    +0.000 A 
ATOM      7  C   UNL     1       2.608   7.286  17.773  0.00  0.00    +0.000 A 
ATOM      8  C   UNL     1       1.842   8.437  17.982  0.00  0.00    +0.000 A 
ATOM      9  C   UNL     1       1.410   8.750  19.286  0.00  0.00    +0.000 A 
ENDROOT
BRANCH   1  12
ATOM     10  C   UNL     1      -1.264  10.570  18.596  0.00  0.00    +0.000 C 
ATOM     11  O   UNL     1      -1.790   9.467  18.462  0.00  0.00    +0.000 OA
ATOM     12  N   UNL     1      -0.084  10.811  19.278  0.00  0.00    +0.000 N 
ATOM     13  H   UNL     1      -0.030  11.708  19.767  0.00  0.00    +0.000 HD
BRANCH  10  14
ATOM     14  C   UNL     1      -1.896  11.813  18.010  0.00  0.00    +0.000 C 
BRANCH  14  22
ATOM     15  C   UNL     1      -6.305  12.720  21.804  0.00  0.00    +0.000 C 
ATOM     16  C   UNL     1      -6.063  12.333  20.373  0.00  0.00    +0.000 A 
ATOM     17  C   UNL     1      -7.139  12.110  19.504  0.00  0.00    +0.000 A 
ATOM     18  C   UNL     1      -6.933  11.765  18.165  0.00  0.00    +0.000 A 
ATOM     19  C   UNL     1      -5.609  11.675  17.740  0.00  0.00    +0.000 A 
ATOM     20  O   UNL     1      -5.220  11.361  16.478  0.00  0.00    +0.000 OA
ATOM     21  C   UNL     1      -3.868  11.385  16.466  0.00  0.00    +0.000 A 
ATOM     22  C   UNL     1      -3.355  11.720  17.707  0.00  0.00    +0.000 A 
ATOM     23  C   UNL     1      -4.501  11.894  18.552  0.00  0.00    +0.000 A 
ATOM     24  C   UNL     1      -4.736  12.211  19.905  0.00  0.00    +0.000 A 
ENDBRANCH  14  22
ENDBRANCH  10  14
ENDBRANCH   1  12
BRANCH   2  25
ATOM     25  C   UNL     1      -0.013  10.360  22.249  0.00  0.00    +0.000 C 
ATOM     26  O   UNL     1       0.109  10.046  23.437  0.00  0.00    +0.000 OA
ATOM     27  N   UNL     1      -0.790  11.419  21.809  0.00  0.00    +0.000 N 
ATOM     28  H   UNL     1      -1.013  11.444  20.821  0.00  0.00    +0.000 HD
BRANCH  27  29
ATOM     29  C   UNL     1      -1.461  12.307  22.683  0.00  0.00    +0.000 A 
ATOM     30  C   UNL     1      -2.759  12.057  23.155  0.00  0.00    +0.000 A 
ATOM     31  C   UNL     1      -3.448  13.007  23.910  0.00  0.00    +0.000 A 
ATOM     32  C   UNL     1      -2.830  14.210  24.222  0.00  0.00    +0.000 A 
ATOM     33 CL   UNL     1      -3.702  15.412  25.090  0.00  0.00    +0.000 Cl
ATOM     34  C   UNL     1      -1.514  14.446  23.827  0.00  0.00    +0.000 A 
ATOM     35  C   UNL     1      -0.823  13.487  23.071  0.00  0.00    +0.000 A 
ENDBRANCH  27  29
ENDBRANCH   2  25
TORSDOF 5
ENDMDL
MODEL 4
REMARK VINA RESULT:      -8.4      3.308      8.116
REMARK  Name = 
REMARK  6 active torsions:
REMARK  status: ('A' for Active; 'I' for Inactive)
REMARK    1  A    between atoms: C_1  and  C_2
REMARK    2  A    between atoms: C_8  and  C_9
REMARK    3  A    between atoms: C_9  and  C_10
REMARK    4  A    between atoms: N_12  and  C_13
REMARK    5  A    between atoms: C_14  and  C_15
REMARK    6  A    between atoms: N_17  and  C_18
REMARK                            x       y       z     vdW  Elec       q    Type
REMARK                         _______ _______ _______ _____ _____    ______ ____
ROOT
ATOM      1  C   UNL     1      -0.348  11.076  18.280  0.00  0.00    +0.000 A 
ATOM      2  C   UNL     1      -0.263  12.251  19.005  0.00  0.00    +0.000 A 
ATOM      3  O   UNL     1      -1.514  12.741  19.264  0.00  0.00    +0.000 OA
ATOM      4  C   UNL     1      -2.401  11.840  18.730  0.00  0.00    +0.000 A 
ATOM      5  C   UNL     1      -3.794  11.944  18.748  0.00  0.00    +0.000 A 
ATOM      6  C   UNL     1      -4.519  10.885  18.175  0.00  0.00    +0.000 A 
ATOM      7  C   UNL     1      -3.872   9.778  17.627  0.00  0.00    +0.000 A 
ATOM      8  C   UNL     1      -2.476   9.709  17.607  0.00  0.00    +0.000 A 
ATOM      9  C   UNL     1      -1.726  10.773  18.146  0.00  0.00    +0.000 A 
ENDROOT
BRANCH   1  12
ATOM     10  C   UNL     1       1.432   9.470  18.592  0.00  0.00    +0.000 C 
ATOM     11  O   UNL     1       1.117   9.167  19.740  0.00  0.00    +0.000 OA
ATOM     12  N   UNL     1       0.767  10.392  17.801  0.00  0.00    +0.000 N 
ATOM     13  H   UNL     1       0.749  10.186  16.799  0.00  0.00    +0.000 HD
BRANCH  10  14
ATOM     14  C   UNL     1       2.619   8.826  17.911  0.00  0.00    +0.000 C 
BRANCH  14  22
ATOM     15  C   UNL     1       6.197   5.105  15.079  0.00  0.00    +0.000 C 
ATOM     16  C   UNL     1       5.255   5.151  16.249  0.00  0.00    +0.000 A 
ATOM     17  C   UNL     1       5.081   4.026  17.066  0.00  0.00    +0.000 A 
ATOM     18  C   UNL     1       4.222   4.054  18.168  0.00  0.00    +0.000 A 
ATOM     19  C   UNL     1       3.570   5.259  18.420  0.00  0.00    +0.000 A 
ATOM     20  O   UNL     1       2.708   5.475  19.448  0.00  0.00    +0.000 OA
ATOM     21  C   UNL     1       2.299   6.760  19.355  0.00  0.00    +0.000 A 
ATOM     22  C   UNL     1       2.886   7.404  18.279  0.00  0.00    +0.000 A 
ATOM     23  C   UNL     1       3.710   6.411  17.652  0.00  0.00    +0.000 A 
ATOM     24  C   UNL     1       4.559   6.346  16.529  0.00  0.00    +0.000 A 
ENDBRANCH  14  22
ENDBRANCH  10  14
ENDBRANCH   1  12
BRANCH   2  25
ATOM     25  C   UNL     1       0.950  12.946  19.377  0.00  0.00    +0.000 C 
ATOM     26  O   UNL     1       1.520  12.633  20.425  0.00  0.00    +0.000 OA
ATOM     27  N   UNL     1       1.382  13.961  18.538  0.00  0.00    +0.000 N 
ATOM     28  H   UNL     1       0.724  14.294  17.844  0.00  0.00    +0.000 HD
BRANCH  27  29
ATOM     29  C   UNL     1       2.576  14.690  18.753  0.00  0.00    +0.000 A 
ATOM     30  C   UNL     1       2.612  15.854  19.535  0.00  0.00    +0.000 A 
ATOM     31  C   UNL     1       3.771  16.627  19.626  0.00  0.00    +0.000 A 
ATOM     32  C   UNL     1       4.916  16.223  18.952  0.00  0.00    +0.000 A 
ATOM     33 CL   UNL     1       6.323  17.210  19.002  0.00  0.00    +0.000 Cl
ATOM     34  C   UNL     1       4.921  15.031  18.231  0.00  0.00    +0.000 A 
ATOM     35  C   UNL     1       3.756  14.254  18.145  0.00  0.00    +0.000 A 
ENDBRANCH  27  29
ENDBRANCH   2  25
TORSDOF 5
ENDMDL
MODEL 5
REMARK VINA RESULT:      -8.4      4.347      9.087
REMARK  Name = 
REMARK  6 active torsions:
REMARK  status: ('A' for Active; 'I' for Inactive)
REMARK    1  A    between atoms: C_1  and  C_2
REMARK    2  A    between atoms: C_8  and  C_9
REMARK    3  A    between atoms: C_9  and  C_10
REMARK    4  A    between atoms: N_12  and  C_13
REMARK    5  A    between atoms: C_14  and  C_15
REMARK    6  A    between atoms: N_17  and  C_18
REMARK                            x       y       z     vdW  Elec       q    Type
REMARK                         _______ _______ _______ _____ _____    ______ ____
ROOT
ATOM      1  C   UNL     1      -0.750  10.972  19.518  0.00  0.00    +0.000 A 
ATOM      2  C   UNL     1      -1.033  12.174  20.142  0.00  0.00    +0.000 A 
ATOM      3  O   UNL     1      -2.197  12.701  19.652  0.00  0.00    +0.000 OA
ATOM      4  C   UNL     1      -2.676  11.797  18.737  0.00  0.00    +0.000 A 
ATOM      5  C   UNL     1      -3.841  11.930  17.976  0.00  0.00    +0.000 A 
ATOM      6  C   UNL     1      -4.168  10.864  17.122  0.00  0.00    +0.000 A 
ATOM      7  C   UNL     1      -3.373   9.722  17.051  0.00  0.00    +0.000 A 
ATOM      8  C   UNL     1      -2.203   9.622  17.810  0.00  0.00    +0.000 A 
ATOM      9  C   UNL     1      -1.834  10.692  18.650  0.00  0.00    +0.000 A 
ENDROOT
BRANCH   1  12
ATOM     10  C   UNL     1       0.431   9.196  20.657  0.00  0.00    +0.000 C 
ATOM     11  O   UNL     1      -0.538   8.809  21.307  0.00  0.00    +0.000 OA
ATOM     12  N   UNL     1       0.415  10.246  19.754  0.00  0.00    +0.000 N 
ATOM     13  H   UNL     1       1.031  10.142  18.943  0.00  0.00    +0.000 HD
BRANCH  10  14
ATOM     14  C   UNL     1       1.779   8.523  20.787  0.00  0.00    +0.000 C 
BRANCH  14  22
ATOM     15  C   UNL     1       1.454   2.695  21.561  0.00  0.00    +0.000 C 
ATOM     16  C   UNL     1       1.825   3.712  20.519  0.00  0.00    +0.000 A 
ATOM     17  C   UNL     1       2.213   3.306  19.235  0.00  0.00    +0.000 A 
ATOM     18  C   UNL     1       2.545   4.237  18.248  0.00  0.00    +0.000 A 
ATOM     19  C   UNL     1       2.451   5.582  18.601  0.00  0.00    +0.000 A 
ATOM     20  O   UNL     1       2.726   6.622  17.773  0.00  0.00    +0.000 OA
ATOM     21  C   UNL     1       2.508   7.755  18.478  0.00  0.00    +0.000 A 
ATOM     22  C   UNL     1       2.084   7.477  19.766  0.00  0.00    +0.000 A 
ATOM     23  C   UNL     1       2.064   6.046  19.854  0.00  0.00    +0.000 A 
ATOM     24  C   UNL     1       1.762   5.085  20.841  0.00  0.00    +0.000 A 
ENDBRANCH  14  22
ENDBRANCH  10  14
ENDBRANCH   1  12
BRANCH   2  25
ATOM     25  C   UNL     1      -0.202  12.859  21.107  0.00  0.00    +0.000 C 
ATOM     26  O   UNL     1      -0.024  12.343  22.215  0.00  0.00    +0.000 OA
ATOM     27  N   UNL     1       0.322  14.086  20.737  0.00  0.00    +0.000 N 
ATOM     28  H   UNL     1      -0.073  14.524  19.913  0.00  0.00    +0.000 HD
BRANCH  27  29
ATOM     29  C   UNL     1       1.189  14.842  21.562  0.00  0.00    +0.000 A 
ATOM     30  C   UNL     1       0.719  15.846  22.422  0.00  0.00    +0.000 A 
ATOM     31  C   UNL     1       1.603  16.664  23.128  0.00  0.00    +0.000 A 
ATOM     32  C   UNL     1       2.971  16.464  22.997  0.00  0.00    +0.000 A 
ATOM     33 CL   UNL     1       4.064  17.516  23.807  0.00  0.00    +0.000 Cl
ATOM     34  C   UNL     1       3.455  15.424  22.205  0.00  0.00    +0.000 A 
ATOM     35  C   UNL     1       2.564  14.601  21.500  0.00  0.00    +0.000 A 
ENDBRANCH  27  29
ENDBRANCH   2  25
TORSDOF 5
ENDMDL
MODEL 6
REMARK VINA RESULT:      -8.3      3.394      8.648
REMARK  Name = 
REMARK  6 active torsions:
REMARK  status: ('A' for Active; 'I' for Inactive)
REMARK    1  A    between atoms: C_1  and  C_2
REMARK    2  A    between atoms: C_8  and  C_9
REMARK    3  A    between atoms: C_9  and  C_10
REMARK    4  A    between atoms: N_12  and  C_13
REMARK    5  A    between atoms: C_14  and  C_15
REMARK    6  A    between atoms: N_17  and  C_18
REMARK                            x       y       z     vdW  Elec       q    Type
REMARK                         _______ _______ _______ _____ _____    ______ ____
ROOT
ATOM      1  C   UNL     1      -0.236  10.691  18.806  0.00  0.00    +0.000 A 
ATOM      2  C   UNL     1       0.002  12.050  18.717  0.00  0.00    +0.000 A 
ATOM      3  O   UNL     1      -1.043  12.675  18.091  0.00  0.00    +0.000 OA
ATOM      4  C   UNL     1      -1.971  11.701  17.821  0.00  0.00    +0.000 A 
ATOM      5  C   UNL     1      -3.196  11.884  17.174  0.00  0.00    +0.000 A 
ATOM      6  C   UNL     1      -4.017  10.753  17.032  0.00  0.00    +0.000 A 
ATOM      7  C   UNL     1      -3.628   9.509  17.528  0.00  0.00    +0.000 A 
ATOM      8  C   UNL     1      -2.388   9.351  18.155  0.00  0.00    +0.000 A 
ATOM      9  C   UNL     1      -1.533  10.463  18.281  0.00  0.00    +0.000 A 
ENDROOT
BRANCH   1  12
ATOM     10  C   UNL     1       1.427   8.966  18.485  0.00  0.00    +0.000 C 
ATOM     11  O   UNL     1       1.352   8.957  17.258  0.00  0.00    +0.000 OA
ATOM     12  N   UNL     1       0.689   9.786  19.321  0.00  0.00    +0.000 N 
ATOM     13  H   UNL     1       1.166  10.094  20.173  0.00  0.00    +0.000 HD
BRANCH  10  14
ATOM     14  C   UNL     1       2.381   8.047  19.216  0.00  0.00    +0.000 C 
BRANCH  14  22
ATOM     15  C   UNL     1       0.726   2.405  18.922  0.00  0.00    +0.000 C 
ATOM     16  C   UNL     1       1.771   3.341  18.384  0.00  0.00    +0.000 A 
ATOM     17  C   UNL     1       2.727   2.887  17.465  0.00  0.00    +0.000 A 
ATOM     18  C   UNL     1       3.696   3.747  16.941  0.00  0.00    +0.000 A 
ATOM     19  C   UNL     1       3.647   5.074  17.362  0.00  0.00    +0.000 A 
ATOM     20  O   UNL     1       4.500   6.049  16.954  0.00  0.00    +0.000 OA
ATOM     21  C   UNL     1       4.121   7.188  17.576  0.00  0.00    +0.000 A 
ATOM     22  C   UNL     1       3.019   6.981  18.389  0.00  0.00    +0.000 A 
ATOM     23  C   UNL     1       2.718   5.585  18.263  0.00  0.00    +0.000 A 
ATOM     24  C   UNL     1       1.770   4.690  18.799  0.00  0.00    +0.000 A 
ENDBRANCH  14  22
ENDBRANCH  10  14
ENDBRANCH   1  12
BRANCH   2  25
ATOM     25  C   UNL     1       1.205  12.742  19.124  0.00  0.00    +0.000 C 
ATOM     26  O   UNL     1       1.797  12.362  20.139  0.00  0.00    +0.000 OA
ATOM     27  N   UNL     1       1.605  13.826  18.361  0.00  0.00    +0.000 N 
ATOM     28  H   UNL     1       0.929  14.196  17.702  0.00  0.00    +0.000 HD
BRANCH  27  29
ATOM     29  C   UNL     1       2.786  14.563  18.615  0.00  0.00    +0.000 A 
ATOM     30  C   UNL     1       2.803  15.682  19.461  0.00  0.00    +0.000 A 
ATOM     31  C   UNL     1       3.949  16.468  19.593  0.00  0.00    +0.000 A 
ATOM     32  C   UNL     1       5.099  16.122  18.898  0.00  0.00    +0.000 A 
ATOM     33 CL   UNL     1       6.490  17.129  19.002  0.00  0.00    +0.000 Cl
ATOM     34  C   UNL     1       5.124  14.972  18.112  0.00  0.00    +0.000 A 
ATOM     35  C   UNL     1       3.972  14.181  17.983  0.00  0.00    +0.000 A 
ENDBRANCH  27  29
ENDBRANCH   2  25
TORSDOF 5
ENDMDL
MODEL 7
REMARK VINA RESULT:      -8.3      4.662      7.161
REMARK  Name = 
REMARK  6 active torsions:
REMARK  status: ('A' for Active; 'I' for Inactive)
REMARK    1  A    between atoms: C_1  and  C_2
REMARK    2  A    between atoms: C_8  and  C_9
REMARK    3  A    between atoms: C_9  and  C_10
REMARK    4  A    between atoms: N_12  and  C_13
REMARK    5  A    between atoms: C_14  and  C_15
REMARK    6  A    between atoms: N_17  and  C_18
REMARK                            x       y       z     vdW  Elec       q    Type
REMARK                         _______ _______ _______ _____ _____    ______ ____
ROOT
ATOM      1  C   UNL     1       2.820   5.151  18.349  0.00  0.00    +0.000 A 
ATOM      2  C   UNL     1       3.918   4.507  17.807  0.00  0.00    +0.000 A 
ATOM      3  O   UNL     1       4.286   3.452  18.597  0.00  0.00    +0.000 OA
ATOM      4  C   UNL     1       3.381   3.405  19.629  0.00  0.00    +0.000 A 
ATOM      5  C   UNL     1       3.380   2.491  20.686  0.00  0.00    +0.000 A 
ATOM      6  C   UNL     1       2.335   2.599  21.618  0.00  0.00    +0.000 A 
ATOM      7  C   UNL     1       1.340   3.565  21.483  0.00  0.00    +0.000 A 
ATOM      8  C   UNL     1       1.376   4.479  20.425  0.00  0.00    +0.000 A 
ATOM      9  C   UNL     1       2.431   4.413  19.495  0.00  0.00    +0.000 A 
ENDROOT
BRANCH   1  12
ATOM     10  C   UNL     1       2.216   7.484  18.539  0.00  0.00    +0.000 C 
ATOM     11  O   UNL     1       2.633   7.620  19.686  0.00  0.00    +0.000 OA
ATOM     12  N   UNL     1       2.272   6.311  17.806  0.00  0.00    +0.000 N 
ATOM     13  H   UNL     1       2.411   6.424  16.798  0.00  0.00    +0.000 HD
BRANCH  10  14
ATOM     14  C   UNL     1       1.588   8.641  17.793  0.00  0.00    +0.000 C 
BRANCH  14  22
ATOM     15  C   UNL     1      -3.731  10.714  16.356  0.00  0.00    +0.000 C 
ATOM     16  C   UNL     1      -2.700  10.810  17.444  0.00  0.00    +0.000 A 
ATOM     17  C   UNL     1      -2.943  11.582  18.588  0.00  0.00    +0.000 A 
ATOM     18  C   UNL     1      -2.003  11.669  19.618  0.00  0.00    +0.000 A 
ATOM     19  C   UNL     1      -0.829  10.936  19.456  0.00  0.00    +0.000 A 
ATOM     20  O   UNL     1       0.189  10.894  20.354  0.00  0.00    +0.000 OA
ATOM     21  C   UNL     1       1.133  10.074  19.840  0.00  0.00    +0.000 A 
ATOM     22  C   UNL     1       0.749   9.564  18.612  0.00  0.00    +0.000 A 
ATOM     23  C   UNL     1      -0.536  10.145  18.350  0.00  0.00    +0.000 A 
ATOM     24  C   UNL     1      -1.488  10.098  17.312  0.00  0.00    +0.000 A 
ENDBRANCH  14  22
ENDBRANCH  10  14
ENDBRANCH   1  12
BRANCH   2  25
ATOM     25  C   UNL     1       4.659   4.909  16.633  0.00  0.00    +0.000 C 
ATOM     26  O   UNL     1       4.853   6.111  16.432  0.00  0.00    +0.000 OA
ATOM     27  N   UNL     1       5.081   3.908  15.774  0.00  0.00    +0.000 N 
ATOM     28  H   UNL     1       4.670   2.991  15.902  0.00  0.00    +0.000 HD
BRANCH  27  29
ATOM     29  C   UNL     1       5.856   4.153  14.615  0.00  0.00    +0.000 A 
ATOM     30  C   UNL     1       7.003   4.961  14.638  0.00  0.00    +0.000 A 
ATOM     31  C   UNL     1       7.675   5.292  13.460  0.00  0.00    +0.000 A 
ATOM     32  C   UNL     1       7.218   4.793  12.249  0.00  0.00    +0.000 A 
ATOM     33 CL   UNL     1       8.000   5.257  10.789  0.00  0.00    +0.000 Cl
ATOM     34  C   UNL     1       6.125   3.928  12.214  0.00  0.00    +0.000 A 
ATOM     35  C   UNL     1       5.453   3.593  13.400  0.00  0.00    +0.000 A 
ENDBRANCH  27  29
ENDBRANCH   2  25
TORSDOF 5
ENDMDL
MODEL 8
REMARK VINA RESULT:      -8.3      1.803      3.403
REMARK  Name = 
REMARK  6 active torsions:
REMARK  status: ('A' for Active; 'I' for Inactive)
REMARK    1  A    between atoms: C_1  and  C_2
REMARK    2  A    between atoms: C_8  and  C_9
REMARK    3  A    between atoms: C_9  and  C_10
REMARK    4  A    between atoms: N_12  and  C_13
REMARK    5  A    between atoms: C_14  and  C_15
REMARK    6  A    between atoms: N_17  and  C_18
REMARK                            x       y       z     vdW  Elec       q    Type
REMARK                         _______ _______ _______ _____ _____    ______ ____
ROOT
ATOM      1  C   UNL     1       0.593  11.593  20.001  0.00  0.00    +0.000 A 
ATOM      2  C   UNL     1       0.563  10.212  20.065  0.00  0.00    +0.000 A 
ATOM      3  O   UNL     1      -0.142   9.802  21.164  0.00  0.00    +0.000 OA
ATOM      4  C   UNL     1      -0.598  10.942  21.779  0.00  0.00    +0.000 A 
ATOM      5  C   UNL     1      -1.355  11.001  22.951  0.00  0.00    +0.000 A 
ATOM      6  C   UNL     1      -1.751  12.276  23.389  0.00  0.00    +0.000 A 
ATOM      7  C   UNL     1      -1.414  13.425  22.675  0.00  0.00    +0.000 A 
ATOM      8  C   UNL     1      -0.640  13.338  21.514  0.00  0.00    +0.000 A 
ATOM      9  C   UNL     1      -0.202  12.074  21.072  0.00  0.00    +0.000 A 
ENDROOT
BRANCH   1  12
ATOM     10  C   UNL     1       2.375  13.105  19.383  0.00  0.00    +0.000 C 
ATOM     11  O   UNL     1       2.791  13.270  20.527  0.00  0.00    +0.000 OA
ATOM     12  N   UNL     1       1.306  12.297  19.034  0.00  0.00    +0.000 N 
ATOM     13  H   UNL     1       1.382  11.829  18.127  0.00  0.00    +0.000 HD
BRANCH  10  14
ATOM     14  C   UNL     1       3.030  13.793  18.206  0.00  0.00    +0.000 C 
BRANCH  14  22
ATOM     15  C   UNL     1      -1.855  16.533  20.020  0.00  0.00    +0.000 C 
ATOM     16  C   UNL     1      -0.568  16.807  19.295  0.00  0.00    +0.000 A 
ATOM     17  C   UNL     1      -0.253  18.105  18.870  0.00  0.00    +0.000 A 
ATOM     18  C   UNL     1       0.947  18.382  18.209  0.00  0.00    +0.000 A 
ATOM     19  C   UNL     1       1.815  17.310  18.016  0.00  0.00    +0.000 A 
ATOM     20  O   UNL     1       3.024  17.392  17.403  0.00  0.00    +0.000 OA
ATOM     21  C   UNL     1       3.559  16.151  17.420  0.00  0.00    +0.000 A 
ATOM     22  C   UNL     1       2.720  15.244  18.046  0.00  0.00    +0.000 A 
ATOM     23  C   UNL     1       1.563  16.004  18.423  0.00  0.00    +0.000 A 
ATOM     24  C   UNL     1       0.332  15.746  19.061  0.00  0.00    +0.000 A 
ENDBRANCH  14  22
ENDBRANCH  10  14
ENDBRANCH   1  12
BRANCH   2  25
ATOM     25  C   UNL     1       1.241   9.295  19.176  0.00  0.00    +0.000 C 
ATOM     26  O   UNL     1       1.245   9.530  17.964  0.00  0.00    +0.000 OA
ATOM     27  N   UNL     1       1.823   8.173  19.744  0.00  0.00    +0.000 N 
ATOM     28  H   UNL     1       1.561   7.954  20.697  0.00  0.00    +0.000 HD
BRANCH  27  29
ATOM     29  C   UNL     1       2.560   7.219  19.002  0.00  0.00    +0.000 A 
ATOM     30  C   UNL     1       3.513   7.591  18.041  0.00  0.00    +0.000 A 
ATOM     31  C   UNL     1       4.132   6.636  17.233  0.00  0.00    +0.000 A 
ATOM     32  C   UNL     1       3.820   5.294  17.399  0.00  0.00    +0.000 A 
ATOM     33 CL   UNL     1       4.526   4.123  16.356  0.00  0.00    +0.000 Cl
ATOM     34  C   UNL     1       2.932   4.899  18.398  0.00  0.00    +0.000 A 
ATOM     35  C   UNL     1       2.314   5.861  19.212  0.00  0.00    +0.000 A 
ENDBRANCH  27  29
ENDBRANCH   2  25
TORSDOF 5
ENDMDL
MODEL 9
REMARK VINA RESULT:      -8.3      5.167      9.020
REMARK  Name = 
REMARK  6 active torsions:
REMARK  status: ('A' for Active; 'I' for Inactive)
REMARK    1  A    between atoms: C_1  and  C_2
REMARK    2  A    between atoms: C_8  and  C_9
REMARK    3  A    between atoms: C_9  and  C_10
REMARK    4  A    between atoms: N_12  and  C_13
REMARK    5  A    between atoms: C_14  and  C_15
REMARK    6  A    between atoms: N_17  and  C_18
REMARK                            x       y       z     vdW  Elec       q    Type
REMARK                         _______ _______ _______ _____ _____    ______ ____
ROOT
ATOM      1  C   UNL     1       0.435   9.575  19.972  0.00  0.00    +0.000 A 
ATOM      2  C   UNL     1       0.581   9.473  21.344  0.00  0.00    +0.000 A 
ATOM      3  O   UNL     1       1.384   8.411  21.659  0.00  0.00    +0.000 OA
ATOM      4  C   UNL     1       1.784   7.861  20.467  0.00  0.00    +0.000 A 
ATOM      5  C   UNL     1       2.607   6.743  20.308  0.00  0.00    +0.000 A 
ATOM      6  C   UNL     1       2.925   6.369  18.992  0.00  0.00    +0.000 A 
ATOM      7  C   UNL     1       2.452   7.092  17.898  0.00  0.00    +0.000 A 
ATOM      8  C   UNL     1       1.616   8.197  18.086  0.00  0.00    +0.000 A 
ATOM      9  C   UNL     1       1.254   8.573  19.395  0.00  0.00    +0.000 A 
ENDROOT
BRANCH   1  12
ATOM     10  C   UNL     1       0.130  11.659  18.787  0.00  0.00    +0.000 C 
ATOM     11  O   UNL     1       1.323  11.950  18.752  0.00  0.00    +0.000 OA
ATOM     12  N   UNL     1      -0.393  10.513  19.360  0.00  0.00    +0.000 N 
ATOM     13  H   UNL     1      -1.219  10.123  18.898  0.00  0.00    +0.000 HD
BRANCH  10  14
ATOM     14  C   UNL     1      -0.914  12.564  18.170  0.00  0.00    +0.000 C 
BRANCH  14  22
ATOM     15  C   UNL     1      -5.821  12.948  21.400  0.00  0.00    +0.000 C 
ATOM     16  C   UNL     1      -5.299  12.300  20.149  0.00  0.00    +0.000 A 
ATOM     17  C   UNL     1      -6.142  11.519  19.348  0.00  0.00    +0.000 A 
ATOM     18  C   UNL     1      -5.678  10.921  18.172  0.00  0.00    +0.000 A 
ATOM     19  C   UNL     1      -4.348  11.159  17.834  0.00  0.00    +0.000 A 
ATOM     20  O   UNL     1      -3.730  10.669  16.729  0.00  0.00    +0.000 OA
ATOM     21  C   UNL     1      -2.458  11.128  16.753  0.00  0.00    +0.000 A 
ATOM     22  C   UNL     1      -2.227  11.925  17.861  0.00  0.00    +0.000 A 
ATOM     23  C   UNL     1      -3.466  11.931  18.583  0.00  0.00    +0.000 A 
ATOM     24  C   UNL     1      -3.951  12.499  19.779  0.00  0.00    +0.000 A 
ENDBRANCH  14  22
ENDBRANCH  10  14
ENDBRANCH   1  12
BRANCH   2  25
ATOM     25  C   UNL     1      -0.076  10.289  22.342  0.00  0.00    +0.000 C 
ATOM     26  O   UNL     1       0.043   9.987  23.532  0.00  0.00    +0.000 OA
ATOM     27  N   UNL     1      -0.840  11.353  21.890  0.00  0.00    +0.000 N 
ATOM     28  H   UNL     1      -1.064  11.369  20.902  0.00  0.00    +0.000 HD
BRANCH  27  29
ATOM     29  C   UNL     1      -1.497  12.261  22.755  0.00  0.00    +0.000 A 
ATOM     30  C   UNL     1      -2.758  11.990  23.307  0.00  0.00    +0.000 A 
ATOM     31  C   UNL     1      -3.441  12.953  24.051  0.00  0.00    +0.000 A 
ATOM     32  C   UNL     1      -2.853  14.191  24.271  0.00  0.00    +0.000 A 
ATOM     33 CL   UNL     1      -3.721  15.405  25.126  0.00  0.00    +0.000 Cl
ATOM     34  C   UNL     1      -1.569  14.451  23.795  0.00  0.00    +0.000 A 
ATOM     35  C   UNL     1      -0.882  13.480  23.051  0.00  0.00    +0.000 A 
ENDBRANCH  27  29
ENDBRANCH   2  25
TORSDOF 5
ENDMDL
