MODEL 1
REMARK VINA RESULT:      -6.7      0.000      0.000
REMARK  Name = 
REMARK  8 active torsions:
REMARK  status: ('A' for Active; 'I' for Inactive)
REMARK    1  A    between atoms: C_1  and  C_2
REMARK    2  A    between atoms: C_2  and  N_3
REMARK    3  A    between atoms: N_7  and  C_8
REMARK    4  A    between atoms: C_8  and  C_9
REMARK    5  A    between atoms: C_8  and  C_10
REMARK    6  A    between atoms: N_13  and  C_14
REMARK    7  A    between atoms: N_13  and  C_16
REMARK    8  A    between atoms: C_16  and  C_17
REMARK                            x       y       z     vdW  Elec       q    Type
REMARK                         _______ _______ _______ _____ _____    ______ ____
ROOT
ATOM      1  N   UNL     1       6.767   4.329  13.651  0.00  0.00    +0.000 N 
ATOM      2  C   UNL     1       6.405   4.441  14.993  0.00  0.00    +0.000 A 
ATOM      3  N   UNL     1       5.441   3.663  15.469  0.00  0.00    +0.000 NA
ATOM      4  C   UNL     1       5.244   3.729  16.773  0.00  0.00    +0.000 A 
ATOM      5  N   UNL     1       4.356   2.838  17.327  0.00  0.00    +0.000 N 
ATOM      6  N   UNL     1       5.904   4.546  17.573  0.00  0.00    +0.000 NA
ATOM      7  C   UNL     1       6.807   5.337  17.027  0.00  0.00    +0.000 A 
ATOM      8  N   UNL     1       7.490   6.229  17.842  0.00  0.00    +0.000 N 
ATOM      9  N   UNL     1       7.089   5.311  15.716  0.00  0.00    +0.000 NA
ATOM     10  H   UNL     1       7.273   5.169  13.391  0.00  0.00    +0.000 HD
ATOM     11  H   UNL     1       4.145   2.024  16.779  0.00  0.00    +0.000 HD
ENDROOT
BRANCH   5  12
ATOM     12  C   UNL     1       3.637   3.150  18.554  0.00  0.00    +0.000 C 
ATOM     13  C   UNL     1       2.121   3.052  18.356  0.00  0.00    +0.000 C 
ATOM     14  C   UNL     1       4.056   2.170  19.647  0.00  0.00    +0.000 C 
ENDBRANCH   5  12
BRANCH   1  16
ATOM     15  C   UNL     1       6.172   2.793  11.867  0.00  0.00    +0.000 C 
ATOM     16  C   UNL     1       5.694   3.925  12.761  0.00  0.00    +0.000 C 
ENDBRANCH   1  16
BRANCH   8  17
ATOM     17  C   UNL     1       7.698   5.889  19.224  0.00  0.00    +0.000 C 
ATOM     18  N   UNL     1       7.913   5.571  20.330  0.00  0.00    +0.000 NA
ENDBRANCH   8  17
BRANCH   8  19
ATOM     19  C   UNL     1       7.643   7.604  17.411  0.00  0.00    +0.000 C 
ATOM     20  C   UNL     1       8.427   8.476  18.389  0.00  0.00    +0.000 C 
ENDBRANCH   8  19
TORSDOF 4
ENDMDL
MODEL 2
REMARK VINA RESULT:      -6.5      3.366      6.212
REMARK  Name = 
REMARK  8 active torsions:
REMARK  status: ('A' for Active; 'I' for Inactive)
REMARK    1  A    between atoms: C_1  and  C_2
REMARK    2  A    between atoms: C_2  and  N_3
REMARK    3  A    between atoms: N_7  and  C_8
REMARK    4  A    between atoms: C_8  and  C_9
REMARK    5  A    between atoms: C_8  and  C_10
REMARK    6  A    between atoms: N_13  and  C_14
REMARK    7  A    between atoms: N_13  and  C_16
REMARK    8  A    between atoms: C_16  and  C_17
REMARK                            x       y       z     vdW  Elec       q    Type
REMARK                         _______ _______ _______ _____ _____    ______ ____
ROOT
ATOM      1  N   UNL     1       1.988   8.027  19.139  0.00  0.00    +0.000 N 
ATOM      2  C   UNL     1       2.693   6.868  18.816  0.00  0.00    +0.000 A 
ATOM      3  N   UNL     1       3.605   6.913  17.854  0.00  0.00    +0.000 NA
ATOM      4  C   UNL     1       4.323   5.817  17.694  0.00  0.00    +0.000 A 
ATOM      5  N   UNL     1       5.373   5.869  16.808  0.00  0.00    +0.000 N 
ATOM      6  N   UNL     1       4.135   4.710  18.388  0.00  0.00    +0.000 NA
ATOM      7  C   UNL     1       3.170   4.712  19.289  0.00  0.00    +0.000 A 
ATOM      8  N   UNL     1       2.930   3.549  20.007  0.00  0.00    +0.000 N 
ATOM      9  N   UNL     1       2.415   5.792  19.533  0.00  0.00    +0.000 NA
ATOM     10  H   UNL     1       1.155   7.756  19.650  0.00  0.00    +0.000 HD
ATOM     11  H   UNL     1       5.707   6.785  16.570  0.00  0.00    +0.000 HD
ENDROOT
BRANCH   5  12
ATOM     12  C   UNL     1       5.850   4.673  16.128  0.00  0.00    +0.000 C 
ATOM     13  C   UNL     1       5.714   4.800  14.608  0.00  0.00    +0.000 C 
ATOM     14  C   UNL     1       7.320   4.448  16.475  0.00  0.00    +0.000 C 
ENDBRANCH   5  12
BRANCH   1  16
ATOM     15  C   UNL     1       0.699   9.944  18.390  0.00  0.00    +0.000 C 
ATOM     16  C   UNL     1       1.792   8.950  18.036  0.00  0.00    +0.000 C 
ENDBRANCH   1  16
BRANCH   8  17
ATOM     17  C   UNL     1       4.021   2.642  20.249  0.00  0.00    +0.000 C 
ATOM     18  N   UNL     1       4.866   1.863  20.469  0.00  0.00    +0.000 NA
ENDBRANCH   8  17
BRANCH   8  19
ATOM     19  C   UNL     1       1.566   3.088  20.169  0.00  0.00    +0.000 C 
ATOM     20  C   UNL     1       0.949   2.518  18.895  0.00  0.00    +0.000 C 
ENDBRANCH   8  19
TORSDOF 4
ENDMDL
MODEL 3
REMARK VINA RESULT:      -6.3      4.072      4.742
REMARK  Name = 
REMARK  8 active torsions:
REMARK  status: ('A' for Active; 'I' for Inactive)
REMARK    1  A    between atoms: C_1  and  C_2
REMARK    2  A    between atoms: C_2  and  N_3
REMARK    3  A    between atoms: N_7  and  C_8
REMARK    4  A    between atoms: C_8  and  C_9
REMARK    5  A    between atoms: C_8  and  C_10
REMARK    6  A    between atoms: N_13  and  C_14
REMARK    7  A    between atoms: N_13  and  C_16
REMARK    8  A    between atoms: C_16  and  C_17
REMARK                            x       y       z     vdW  Elec       q    Type
REMARK                         _______ _______ _______ _____ _____    ______ ____
ROOT
ATOM      1  N   UNL     1       5.276   6.317  16.330  0.00  0.00    +0.000 N 
ATOM      2  C   UNL     1       4.227   6.192  17.239  0.00  0.00    +0.000 A 
ATOM      3  N   UNL     1       3.928   4.992  17.721  0.00  0.00    +0.000 NA
ATOM      4  C   UNL     1       3.015   4.969  18.674  0.00  0.00    +0.000 A 
ATOM      5  N   UNL     1       2.779   3.768  19.299  0.00  0.00    +0.000 N 
ATOM      6  N   UNL     1       2.378   6.043  19.105  0.00  0.00    +0.000 NA
ATOM      7  C   UNL     1       2.679   7.197  18.541  0.00  0.00    +0.000 A 
ATOM      8  N   UNL     1       1.999   8.335  18.953  0.00  0.00    +0.000 N 
ATOM      9  N   UNL     1       3.615   7.311  17.588  0.00  0.00    +0.000 NA
ATOM     10  H   UNL     1       5.172   7.204  15.849  0.00  0.00    +0.000 HD
ATOM     11  H   UNL     1       3.498   3.072  19.208  0.00  0.00    +0.000 HD
ENDROOT
BRANCH   5  12
ATOM     12  C   UNL     1       1.489   3.470  19.904  0.00  0.00    +0.000 C 
ATOM     13  C   UNL     1       0.655   2.540  19.018  0.00  0.00    +0.000 C 
ATOM     14  C   UNL     1       1.711   2.795  21.256  0.00  0.00    +0.000 C 
ENDBRANCH   5  12
BRANCH   1  16
ATOM     15  C   UNL     1       6.927   4.668  15.655  0.00  0.00    +0.000 C 
ATOM     16  C   UNL     1       5.497   5.154  15.489  0.00  0.00    +0.000 C 
ENDBRANCH   1  16
BRANCH   8  17
ATOM     17  C   UNL     1       1.500   8.398  20.301  0.00  0.00    +0.000 C 
ATOM     18  N   UNL     1       1.155   8.447  21.418  0.00  0.00    +0.000 NA
ENDBRANCH   8  17
BRANCH   8  19
ATOM     19  C   UNL     1       1.481   9.248  17.954  0.00  0.00    +0.000 C 
ATOM     20  C   UNL     1       0.227  10.000  18.392  0.00  0.00    +0.000 C 
ENDBRANCH   8  19
TORSDOF 4
ENDMDL
MODEL 4
REMARK VINA RESULT:      -6.0      1.512      4.650
REMARK  Name = 
REMARK  8 active torsions:
REMARK  status: ('A' for Active; 'I' for Inactive)
REMARK    1  A    between atoms: C_1  and  C_2
REMARK    2  A    between atoms: C_2  and  N_3
REMARK    3  A    between atoms: N_7  and  C_8
REMARK    4  A    between atoms: C_8  and  C_9
REMARK    5  A    between atoms: C_8  and  C_10
REMARK    6  A    between atoms: N_13  and  C_14
REMARK    7  A    between atoms: N_13  and  C_16
REMARK    8  A    between atoms: C_16  and  C_17
REMARK                            x       y       z     vdW  Elec       q    Type
REMARK                         _______ _______ _______ _____ _____    ______ ____
ROOT
ATOM      1  N   UNL     1       5.462   3.960  13.810  0.00  0.00    +0.000 N 
ATOM      2  C   UNL     1       5.489   4.549  15.073  0.00  0.00    +0.000 A 
ATOM      3  N   UNL     1       6.334   5.547  15.302  0.00  0.00    +0.000 NA
ATOM      4  C   UNL     1       6.212   6.143  16.474  0.00  0.00    +0.000 A 
ATOM      5  N   UNL     1       6.967   7.270  16.695  0.00  0.00    +0.000 N 
ATOM      6  N   UNL     1       5.356   5.761  17.404  0.00  0.00    +0.000 NA
ATOM      7  C   UNL     1       4.587   4.723  17.136  0.00  0.00    +0.000 A 
ATOM      8  N   UNL     1       3.703   4.282  18.111  0.00  0.00    +0.000 N 
ATOM      9  N   UNL     1       4.628   4.081  15.960  0.00  0.00    +0.000 NA
ATOM     10  H   UNL     1       5.009   3.056  13.895  0.00  0.00    +0.000 HD
ATOM     11  H   UNL     1       7.327   7.730  15.879  0.00  0.00    +0.000 HD
ENDROOT
BRANCH   5  12
ATOM     12  C   UNL     1       7.362   7.664  18.040  0.00  0.00    +0.000 C 
ATOM     13  C   UNL     1       8.139   6.548  18.746  0.00  0.00    +0.000 C 
ATOM     14  C   UNL     1       8.247   8.906  17.961  0.00  0.00    +0.000 C 
ENDBRANCH   5  12
BRANCH   1  16
ATOM     15  C   UNL     1       6.631   3.103  11.861  0.00  0.00    +0.000 C 
ATOM     16  C   UNL     1       6.728   3.978  13.100  0.00  0.00    +0.000 C 
ENDBRANCH   1  16
BRANCH   8  17
ATOM     17  C   UNL     1       3.181   5.230  19.058  0.00  0.00    +0.000 C 
ATOM     18  N   UNL     1       2.706   5.963  19.837  0.00  0.00    +0.000 NA
ENDBRANCH   8  17
BRANCH   8  19
ATOM     19  C   UNL     1       3.618   2.864  18.396  0.00  0.00    +0.000 C 
ATOM     20  C   UNL     1       2.222   2.276  18.203  0.00  0.00    +0.000 C 
ENDBRANCH   8  19
TORSDOF 4
ENDMDL
MODEL 5
REMARK VINA RESULT:      -5.9      3.653      5.201
REMARK  Name = 
REMARK  8 active torsions:
REMARK  status: ('A' for Active; 'I' for Inactive)
REMARK    1  A    between atoms: C_1  and  C_2
REMARK    2  A    between atoms: C_2  and  N_3
REMARK    3  A    between atoms: N_7  and  C_8
REMARK    4  A    between atoms: C_8  and  C_9
REMARK    5  A    between atoms: C_8  and  C_10
REMARK    6  A    between atoms: N_13  and  C_14
REMARK    7  A    between atoms: N_13  and  C_16
REMARK    8  A    between atoms: C_16  and  C_17
REMARK                            x       y       z     vdW  Elec       q    Type
REMARK                         _______ _______ _______ _____ _____    ______ ____
ROOT
ATOM      1  N   UNL     1       2.081   8.986  18.012  0.00  0.00    +0.000 N 
ATOM      2  C   UNL     1       2.646   7.716  18.120  0.00  0.00    +0.000 A 
ATOM      3  N   UNL     1       2.004   6.780  18.808  0.00  0.00    +0.000 NA
ATOM      4  C   UNL     1       2.530   5.570  18.756  0.00  0.00    +0.000 A 
ATOM      5  N   UNL     1       1.821   4.544  19.333  0.00  0.00    +0.000 N 
ATOM      6  N   UNL     1       3.652   5.285  18.121  0.00  0.00    +0.000 NA
ATOM      7  C   UNL     1       4.274   6.275  17.508  0.00  0.00    +0.000 A 
ATOM      8  N   UNL     1       5.473   6.007  16.862  0.00  0.00    +0.000 N 
ATOM      9  N   UNL     1       3.791   7.526  17.487  0.00  0.00    +0.000 NA
ATOM     10  H   UNL     1       2.813   9.632  17.736  0.00  0.00    +0.000 HD
ATOM     11  H   UNL     1       0.843   4.712  19.488  0.00  0.00    +0.000 HD
ENDROOT
BRANCH   5  12
ATOM     12  C   UNL     1       2.489   3.356  19.846  0.00  0.00    +0.000 C 
ATOM     13  C   UNL     1       2.157   3.119  21.322  0.00  0.00    +0.000 C 
ATOM     14  C   UNL     1       2.044   2.139  19.038  0.00  0.00    +0.000 C 
ENDBRANCH   5  12
BRANCH   1  16
ATOM     15  C   UNL     1       0.043  10.147  18.642  0.00  0.00    +0.000 C 
ATOM     16  C   UNL     1       1.262   9.389  19.140  0.00  0.00    +0.000 C 
ENDBRANCH   1  16
BRANCH   8  17
ATOM     17  C   UNL     1       5.697   4.691  16.328  0.00  0.00    +0.000 C 
ATOM     18  N   UNL     1       5.934   3.617  15.926  0.00  0.00    +0.000 NA
ENDBRANCH   8  17
BRANCH   8  19
ATOM     19  C   UNL     1       6.596   6.901  17.061  0.00  0.00    +0.000 C 
ATOM     20  C   UNL     1       7.550   6.461  18.168  0.00  0.00    +0.000 C 
ENDBRANCH   8  19
TORSDOF 4
ENDMDL
MODEL 6
REMARK VINA RESULT:      -5.7      3.429      4.181
REMARK  Name = 
REMARK  8 active torsions:
REMARK  status: ('A' for Active; 'I' for Inactive)
REMARK    1  A    between atoms: C_1  and  C_2
REMARK    2  A    between atoms: C_2  and  N_3
REMARK    3  A    between atoms: N_7  and  C_8
REMARK    4  A    between atoms: C_8  and  C_9
REMARK    5  A    between atoms: C_8  and  C_10
REMARK    6  A    between atoms: N_13  and  C_14
REMARK    7  A    between atoms: N_13  and  C_16
REMARK    8  A    between atoms: C_16  and  C_17
REMARK                            x       y       z     vdW  Elec       q    Type
REMARK                         _______ _______ _______ _____ _____    ______ ____
ROOT
ATOM      1  N   UNL     1       6.163   5.321  16.718  0.00  0.00    +0.000 N 
ATOM      2  C   UNL     1       5.001   5.244  17.483  0.00  0.00    +0.000 A 
ATOM      3  N   UNL     1       4.629   4.069  17.976  0.00  0.00    +0.000 NA
ATOM      4  C   UNL     1       3.596   4.094  18.798  0.00  0.00    +0.000 A 
ATOM      5  N   UNL     1       3.268   2.924  19.442  0.00  0.00    +0.000 N 
ATOM      6  N   UNL     1       2.917   5.189  19.088  0.00  0.00    +0.000 NA
ATOM      7  C   UNL     1       3.302   6.314  18.517  0.00  0.00    +0.000 A 
ATOM      8  N   UNL     1       2.583   7.472  18.780  0.00  0.00    +0.000 N 
ATOM      9  N   UNL     1       4.358   6.380  17.694  0.00  0.00    +0.000 NA
ATOM     10  H   UNL     1       6.132   6.185  16.187  0.00  0.00    +0.000 HD
ATOM     11  H   UNL     1       3.986   2.224  19.481  0.00  0.00    +0.000 HD
ENDROOT
BRANCH   5  12
ATOM     12  C   UNL     1       1.906   2.659  19.882  0.00  0.00    +0.000 C 
ATOM     13  C   UNL     1       1.442   3.687  20.918  0.00  0.00    +0.000 C 
ATOM     14  C   UNL     1       0.968   2.715  18.678  0.00  0.00    +0.000 C 
ENDBRANCH   5  12
BRANCH   1  16
ATOM     15  C   UNL     1       5.984   4.258  14.542  0.00  0.00    +0.000 C 
ATOM     16  C   UNL     1       6.484   4.120  15.970  0.00  0.00    +0.000 C 
ENDBRANCH   1  16
BRANCH   8  17
ATOM     17  C   UNL     1       1.910   7.601  20.045  0.00  0.00    +0.000 C 
ATOM     18  N   UNL     1       1.363   7.769  21.066  0.00  0.00    +0.000 NA
ENDBRANCH   8  17
BRANCH   8  19
ATOM     19  C   UNL     1       2.213   8.338  17.679  0.00  0.00    +0.000 C 
ATOM     20  C   UNL     1       1.433   9.580  18.103  0.00  0.00    +0.000 C 
ENDBRANCH   8  19
TORSDOF 4
ENDMDL
MODEL 7
REMARK VINA RESULT:      -5.7      3.079      5.971
REMARK  Name = 
REMARK  8 active torsions:
REMARK  status: ('A' for Active; 'I' for Inactive)
REMARK    1  A    between atoms: C_1  and  C_2
REMARK    2  A    between atoms: C_2  and  N_3
REMARK    3  A    between atoms: N_7  and  C_8
REMARK    4  A    between atoms: C_8  and  C_9
REMARK    5  A    between atoms: C_8  and  C_10
REMARK    6  A    between atoms: N_13  and  C_14
REMARK    7  A    between atoms: N_13  and  C_16
REMARK    8  A    between atoms: C_16  and  C_17
REMARK                            x       y       z     vdW  Elec       q    Type
REMARK                         _______ _______ _______ _____ _____    ______ ____
ROOT
ATOM      1  N   UNL     1       6.936   4.379  18.223  0.00  0.00    +0.000 N 
ATOM      2  C   UNL     1       5.585   4.671  18.402  0.00  0.00    +0.000 A 
ATOM      3  N   UNL     1       5.138   5.881  18.091  0.00  0.00    +0.000 NA
ATOM      4  C   UNL     1       3.830   6.044  18.160  0.00  0.00    +0.000 A 
ATOM      5  N   UNL     1       3.313   7.235  17.709  0.00  0.00    +0.000 N 
ATOM      6  N   UNL     1       2.995   5.103  18.564  0.00  0.00    +0.000 NA
ATOM      7  C   UNL     1       3.510   3.941  18.917  0.00  0.00    +0.000 A 
ATOM      8  N   UNL     1       2.656   2.949  19.377  0.00  0.00    +0.000 N 
ATOM      9  N   UNL     1       4.824   3.686  18.848  0.00  0.00    +0.000 NA
ATOM     10  H   UNL     1       7.156   3.558  18.775  0.00  0.00    +0.000 HD
ATOM     11  H   UNL     1       3.902   7.771  17.099  0.00  0.00    +0.000 HD
ENDROOT
BRANCH   5  12
ATOM     12  C   UNL     1       2.058   7.761  18.229  0.00  0.00    +0.000 C 
ATOM     13  C   UNL     1       2.041   7.756  19.760  0.00  0.00    +0.000 C 
ATOM     14  C   UNL     1       1.871   9.195  17.738  0.00  0.00    +0.000 C 
ENDBRANCH   5  12
BRANCH   1  16
ATOM     15  C   UNL     1       8.177   5.697  19.841  0.00  0.00    +0.000 C 
ATOM     16  C   UNL     1       7.831   5.512  18.374  0.00  0.00    +0.000 C 
ENDBRANCH   1  16
BRANCH   8  17
ATOM     17  C   UNL     1       1.299   2.922  18.901  0.00  0.00    +0.000 C 
ATOM     18  N   UNL     1       0.183   2.951  18.549  0.00  0.00    +0.000 NA
ENDBRANCH   8  17
BRANCH   8  19
ATOM     19  C   UNL     1       3.011   2.212  20.574  0.00  0.00    +0.000 C 
ATOM     20  C   UNL     1       2.154   2.556  21.790  0.00  0.00    +0.000 C 
ENDBRANCH   8  19
TORSDOF 4
ENDMDL
MODEL 8
REMARK VINA RESULT:      -5.6      3.380      6.138
REMARK  Name = 
REMARK  8 active torsions:
REMARK  status: ('A' for Active; 'I' for Inactive)
REMARK    1  A    between atoms: C_1  and  C_2
REMARK    2  A    between atoms: C_2  and  N_3
REMARK    3  A    between atoms: N_7  and  C_8
REMARK    4  A    between atoms: C_8  and  C_9
REMARK    5  A    between atoms: C_8  and  C_10
REMARK    6  A    between atoms: N_13  and  C_14
REMARK    7  A    between atoms: N_13  and  C_16
REMARK    8  A    between atoms: C_16  and  C_17
REMARK                            x       y       z     vdW  Elec       q    Type
REMARK                         _______ _______ _______ _____ _____    ______ ____
ROOT
ATOM      1  N   UNL     1       1.950   8.197  18.876  0.00  0.00    +0.000 N 
ATOM      2  C   UNL     1       2.771   7.114  18.567  0.00  0.00    +0.000 A 
ATOM      3  N   UNL     1       3.789   7.291  17.734  0.00  0.00    +0.000 NA
ATOM      4  C   UNL     1       4.599   6.259  17.592  0.00  0.00    +0.000 A 
ATOM      5  N   UNL     1       5.743   6.445  16.853  0.00  0.00    +0.000 N 
ATOM      6  N   UNL     1       4.408   5.091  18.180  0.00  0.00    +0.000 NA
ATOM      7  C   UNL     1       3.343   4.963  18.948  0.00  0.00    +0.000 A 
ATOM      8  N   UNL     1       3.102   3.735  19.549  0.00  0.00    +0.000 N 
ATOM      9  N   UNL     1       2.487   5.971  19.167  0.00  0.00    +0.000 NA
ATOM     10  H   UNL     1       1.083   7.836  19.257  0.00  0.00    +0.000 HD
ATOM     11  H   UNL     1       6.036   7.396  16.722  0.00  0.00    +0.000 HD
ENDROOT
BRANCH   5  12
ATOM     12  C   UNL     1       6.385   5.337  16.160  0.00  0.00    +0.000 C 
ATOM     13  C   UNL     1       7.234   4.494  17.116  0.00  0.00    +0.000 C 
ATOM     14  C   UNL     1       5.314   4.447  15.534  0.00  0.00    +0.000 C 
ENDBRANCH   5  12
BRANCH   1  16
ATOM     15  C   UNL     1       1.413  10.522  18.422  0.00  0.00    +0.000 C 
ATOM     16  C   UNL     1       1.824   9.188  17.822  0.00  0.00    +0.000 C 
ENDBRANCH   1  16
BRANCH   8  17
ATOM     17  C   UNL     1       4.218   2.884  19.865  0.00  0.00    +0.000 C 
ATOM     18  N   UNL     1       5.087   2.142  20.118  0.00  0.00    +0.000 NA
ENDBRANCH   8  17
BRANCH   8  19
ATOM     19  C   UNL     1       1.766   3.177  19.504  0.00  0.00    +0.000 C 
ATOM     20  C   UNL     1       1.173   2.877  20.879  0.00  0.00    +0.000 C 
ENDBRANCH   8  19
TORSDOF 4
ENDMDL
MODEL 9
REMARK VINA RESULT:      -5.6      3.352      5.680
REMARK  Name = 
REMARK  8 active torsions:
REMARK  status: ('A' for Active; 'I' for Inactive)
REMARK    1  A    between atoms: C_1  and  C_2
REMARK    2  A    between atoms: C_2  and  N_3
REMARK    3  A    between atoms: N_7  and  C_8
REMARK    4  A    between atoms: C_8  and  C_9
REMARK    5  A    between atoms: C_8  and  C_10
REMARK    6  A    between atoms: N_13  and  C_14
REMARK    7  A    between atoms: N_13  and  C_16
REMARK    8  A    between atoms: C_16  and  C_17
REMARK                            x       y       z     vdW  Elec       q    Type
REMARK                         _______ _______ _______ _____ _____    ______ ____
ROOT
ATOM      1  N   UNL     1       2.952   2.690  19.820  0.00  0.00    +0.000 N 
ATOM      2  C   UNL     1       3.200   3.965  19.314  0.00  0.00    +0.000 A 
ATOM      3  N   UNL     1       2.484   4.988  19.763  0.00  0.00    +0.000 NA
ATOM      4  C   UNL     1       2.861   6.180  19.340  0.00  0.00    +0.000 A 
ATOM      5  N   UNL     1       2.240   7.276  19.891  0.00  0.00    +0.000 N 
ATOM      6  N   UNL     1       3.846   6.375  18.482  0.00  0.00    +0.000 NA
ATOM      7  C   UNL     1       4.478   5.310  18.027  0.00  0.00    +0.000 A 
ATOM      8  N   UNL     1       5.494   5.487  17.098  0.00  0.00    +0.000 N 
ATOM      9  N   UNL     1       4.176   4.067  18.428  0.00  0.00    +0.000 NA
ATOM     10  H   UNL     1       3.349   2.014  19.176  0.00  0.00    +0.000 HD
ATOM     11  H   UNL     1       1.769   7.126  20.765  0.00  0.00    +0.000 HD
ENDROOT
BRANCH   5  12
ATOM     12  C   UNL     1       2.129   8.530  19.160  0.00  0.00    +0.000 C 
ATOM     13  C   UNL     1       1.724   8.294  17.702  0.00  0.00    +0.000 C 
ATOM     14  C   UNL     1       1.075   9.411  19.828  0.00  0.00    +0.000 C 
ENDBRANCH   5  12
BRANCH   1  16
ATOM     15  C   UNL     1       1.485   2.526  21.748  0.00  0.00    +0.000 C 
ATOM     16  C   UNL     1       1.581   2.452  20.233  0.00  0.00    +0.000 C 
ENDBRANCH   1  16
BRANCH   8  17
ATOM     17  C   UNL     1       6.247   6.713  17.115  0.00  0.00    +0.000 C 
ATOM     18  N   UNL     1       6.902   7.682  17.168  0.00  0.00    +0.000 NA
ENDBRANCH   8  17
BRANCH   8  19
ATOM     19  C   UNL     1       5.531   4.639  15.924  0.00  0.00    +0.000 C 
ATOM     20  C   UNL     1       6.879   4.633  15.207  0.00  0.00    +0.000 C 
ENDBRANCH   8  19
TORSDOF 4
ENDMDL
