MODEL 1
REMARK VINA RESULT:      -7.3      0.000      0.000
REMARK  Name = 
REMARK  5 active torsions:
REMARK  status: ('A' for Active; 'I' for Inactive)
REMARK    1  A    between atoms: C_1  and  C_2
REMARK    2  A    between atoms: C_2  and  C_3
REMARK    3  A    between atoms: C_4  and  C_5
REMARK    4  A    between atoms: C_10  and  C_11
REMARK    5  A    between atoms: N_16  and  C_17
REMARK                            x       y       z     vdW  Elec       q    Type
REMARK                         _______ _______ _______ _____ _____    ______ ____
ROOT
ATOM      1  C   UNL     1       6.225   6.422  17.854  0.00  0.00    +0.000 A 
ATOM      2  C   UNL     1       7.470   6.878  18.306  0.00  0.00    +0.000 A 
ATOM      3  C   UNL     1       7.901   5.892  19.211  0.00  0.00    +0.000 A 
ATOM      4  N   UNL     1       7.001   4.936  19.407  0.00  0.00    +0.000 NA
ATOM      5  N   UNL     1       5.971   5.244  18.575  0.00  0.00    +0.000 N 
ENDROOT
BRANCH   2   6
ATOM      6  C   UNL     1       8.118   8.156  18.040  0.00  0.00    +0.000 C 
ATOM      7  O   UNL     1       8.362   8.469  16.876  0.00  0.00    +0.000 OA
ATOM      8  N   UNL     1       8.392   8.923  19.149  0.00  0.00    +0.000 N 
ATOM      9  C   UNL     1       9.118  10.083  19.004  0.00  0.00    +0.000 A 
ATOM     10  N   UNL     1       9.457  10.685  17.898  0.00  0.00    +0.000 NA
ATOM     11  C   UNL     1      10.301  11.745  18.163  0.00  0.00    +0.000 A 
ATOM     12  C   UNL     1      10.835  12.521  17.014  0.00  0.00    +0.000 C 
ATOM     13  C   UNL     1      10.570  11.935  19.504  0.00  0.00    +0.000 A 
ATOM     14  S   UNL     1       9.693  10.787  20.445  0.00  0.00    +0.000 S 
ATOM     15  H   UNL     1       8.215   8.596  20.085  0.00  0.00    +0.000 HD
ENDBRANCH   2   6
BRANCH   5  16
ATOM     16  C   UNL     1       4.803   4.424  18.589  0.00  0.00    +0.000 A 
ATOM     17  C   UNL     1       4.560   3.472  17.591  0.00  0.00    +0.000 A 
ATOM     18  C   UNL     1       3.360   2.758  17.562  0.00  0.00    +0.000 A 
ATOM     19  C   UNL     1       2.398   2.977  18.542  0.00  0.00    +0.000 A 
ATOM     20  C   UNL     1       2.654   3.885  19.568  0.00  0.00    +0.000 A 
ATOM     21 CL   UNL     1       1.452   4.154  20.771  0.00  0.00    +0.000 Cl
ATOM     22  C   UNL     1       3.857   4.597  19.612  0.00  0.00    +0.000 A 
ENDBRANCH   5  16
BRANCH   1  24
ATOM     23  C   UNL     1       5.146   6.496  15.479  0.00  0.00    +0.000 C 
ATOM     24  C   UNL     1       5.199   6.997  16.908  0.00  0.00    +0.000 C 
ENDBRANCH   1  24
TORSDOF 3
ENDMDL
MODEL 2
REMARK VINA RESULT:      -6.9      7.625      9.554
REMARK  Name = 
REMARK  5 active torsions:
REMARK  status: ('A' for Active; 'I' for Inactive)
REMARK    1  A    between atoms: C_1  and  C_2
REMARK    2  A    between atoms: C_2  and  C_3
REMARK    3  A    between atoms: C_4  and  C_5
REMARK    4  A    between atoms: C_10  and  C_11
REMARK    5  A    between atoms: N_16  and  C_17
REMARK                            x       y       z     vdW  Elec       q    Type
REMARK                         _______ _______ _______ _____ _____    ______ ____
ROOT
ATOM      1  C   UNL     1      -0.016   9.746  21.012  0.00  0.00    +0.000 A 
ATOM      2  C   UNL     1       0.932   8.771  21.343  0.00  0.00    +0.000 A 
ATOM      3  C   UNL     1       1.196   8.982  22.708  0.00  0.00    +0.000 A 
ATOM      4  N   UNL     1       0.561  10.038  23.203  0.00  0.00    +0.000 NA
ATOM      5  N   UNL     1      -0.192  10.512  22.176  0.00  0.00    +0.000 N 
ENDROOT
BRANCH   2   6
ATOM      6  C   UNL     1       1.626   7.844  20.459  0.00  0.00    +0.000 C 
ATOM      7  O   UNL     1       1.996   8.239  19.354  0.00  0.00    +0.000 OA
ATOM      8  N   UNL     1       1.821   6.578  20.962  0.00  0.00    +0.000 N 
ATOM      9  C   UNL     1       2.351   5.603  20.148  0.00  0.00    +0.000 A 
ATOM     10  N   UNL     1       2.881   5.745  18.964  0.00  0.00    +0.000 NA
ATOM     11  C   UNL     1       3.170   4.513  18.413  0.00  0.00    +0.000 A 
ATOM     12  C   UNL     1       3.735   4.474  17.039  0.00  0.00    +0.000 C 
ATOM     13  C   UNL     1       2.861   3.440  19.226  0.00  0.00    +0.000 A 
ATOM     14  S   UNL     1       2.248   4.007  20.734  0.00  0.00    +0.000 S 
ATOM     15  H   UNL     1       1.453   6.293  21.855  0.00  0.00    +0.000 HD
ENDBRANCH   2   6
BRANCH   5  16
ATOM     16  C   UNL     1      -0.964  11.695  22.373  0.00  0.00    +0.000 A 
ATOM     17  C   UNL     1      -0.549  12.938  21.880  0.00  0.00    +0.000 A 
ATOM     18  C   UNL     1      -1.263  14.101  22.178  0.00  0.00    +0.000 A 
ATOM     19  C   UNL     1      -2.411  14.029  22.960  0.00  0.00    +0.000 A 
ATOM     20  C   UNL     1      -2.861  12.789  23.412  0.00  0.00    +0.000 A 
ATOM     21 CL   UNL     1      -4.278  12.713  24.385  0.00  0.00    +0.000 Cl
ATOM     22  C   UNL     1      -2.158  11.618  23.109  0.00  0.00    +0.000 A 
ENDBRANCH   5  16
BRANCH   1  24
ATOM     23  C   UNL     1      -0.006  11.035  18.741  0.00  0.00    +0.000 C 
ATOM     24  C   UNL     1      -0.707  10.115  19.721  0.00  0.00    +0.000 C 
ENDBRANCH   1  24
TORSDOF 3
ENDMDL
MODEL 3
REMARK VINA RESULT:      -6.8      4.688      6.846
REMARK  Name = 
REMARK  5 active torsions:
REMARK  status: ('A' for Active; 'I' for Inactive)
REMARK    1  A    between atoms: C_1  and  C_2
REMARK    2  A    between atoms: C_2  and  C_3
REMARK    3  A    between atoms: C_4  and  C_5
REMARK    4  A    between atoms: C_10  and  C_11
REMARK    5  A    between atoms: N_16  and  C_17
REMARK                            x       y       z     vdW  Elec       q    Type
REMARK                         _______ _______ _______ _____ _____    ______ ____
ROOT
ATOM      1  C   UNL     1       4.655   5.713  17.045  0.00  0.00    +0.000 A 
ATOM      2  C   UNL     1       3.716   5.370  18.026  0.00  0.00    +0.000 A 
ATOM      3  C   UNL     1       3.447   4.008  17.798  0.00  0.00    +0.000 A 
ATOM      4  N   UNL     1       4.069   3.527  16.728  0.00  0.00    +0.000 NA
ATOM      5  N   UNL     1       4.819   4.559  16.261  0.00  0.00    +0.000 N 
ENDROOT
BRANCH   2   6
ATOM      6  C   UNL     1       3.034   6.242  18.973  0.00  0.00    +0.000 C 
ATOM      7  O   UNL     1       2.852   5.845  20.123  0.00  0.00    +0.000 OA
ATOM      8  N   UNL     1       2.659   7.471  18.482  0.00  0.00    +0.000 N 
ATOM      9  C   UNL     1       1.896   8.306  19.266  0.00  0.00    +0.000 A 
ATOM     10  N   UNL     1       1.603   8.176  20.531  0.00  0.00    +0.000 NA
ATOM     11  C   UNL     1       0.702   9.145  20.921  0.00  0.00    +0.000 A 
ATOM     12  C   UNL     1       0.210   9.122  22.323  0.00  0.00    +0.000 C 
ATOM     13  C   UNL     1       0.339  10.022  19.917  0.00  0.00    +0.000 A 
ATOM     14  S   UNL     1       1.201   9.644  18.473  0.00  0.00    +0.000 S 
ATOM     15  H   UNL     1       2.789   7.726  17.516  0.00  0.00    +0.000 HD
ENDBRANCH   2   6
BRANCH   5  16
ATOM     16  C   UNL     1       5.579   4.377  15.067  0.00  0.00    +0.000 A 
ATOM     17  C   UNL     1       6.876   4.886  14.934  0.00  0.00    +0.000 A 
ATOM     18  C   UNL     1       7.561   4.792  13.719  0.00  0.00    +0.000 A 
ATOM     19  C   UNL     1       6.958   4.172  12.630  0.00  0.00    +0.000 A 
ATOM     20  C   UNL     1       5.687   3.616  12.769  0.00  0.00    +0.000 A 
ATOM     21 CL   UNL     1       4.949   2.857  11.412  0.00  0.00    +0.000 Cl
ATOM     22  C   UNL     1       5.000   3.696  13.984  0.00  0.00    +0.000 A 
ENDBRANCH   5  16
BRANCH   1  24
ATOM     23  C   UNL     1       6.643   7.371  17.381  0.00  0.00    +0.000 C 
ATOM     24  C   UNL     1       5.345   7.007  16.688  0.00  0.00    +0.000 C 
ENDBRANCH   1  24
TORSDOF 3
ENDMDL
MODEL 4
REMARK VINA RESULT:      -6.7      7.020      9.314
REMARK  Name = 
REMARK  5 active torsions:
REMARK  status: ('A' for Active; 'I' for Inactive)
REMARK    1  A    between atoms: C_1  and  C_2
REMARK    2  A    between atoms: C_2  and  C_3
REMARK    3  A    between atoms: C_4  and  C_5
REMARK    4  A    between atoms: C_10  and  C_11
REMARK    5  A    between atoms: N_16  and  C_17
REMARK                            x       y       z     vdW  Elec       q    Type
REMARK                         _______ _______ _______ _____ _____    ______ ____
ROOT
ATOM      1  C   UNL     1       0.774   9.640  19.875  0.00  0.00    +0.000 A 
ATOM      2  C   UNL     1       1.330   8.557  20.567  0.00  0.00    +0.000 A 
ATOM      3  C   UNL     1       1.273   8.936  21.920  0.00  0.00    +0.000 A 
ATOM      4  N   UNL     1       0.816  10.169  22.097  0.00  0.00    +0.000 NA
ATOM      5  N   UNL     1       0.498  10.610  20.852  0.00  0.00    +0.000 N 
ENDROOT
BRANCH   2   6
ATOM      6  C   UNL     1       1.977   7.370  20.025  0.00  0.00    +0.000 C 
ATOM      7  O   UNL     1       2.496   7.432  18.912  0.00  0.00    +0.000 OA
ATOM      8  N   UNL     1       1.957   6.261  20.837  0.00  0.00    +0.000 N 
ATOM      9  C   UNL     1       2.428   5.061  20.354  0.00  0.00    +0.000 A 
ATOM     10  N   UNL     1       3.080   4.843  19.245  0.00  0.00    +0.000 NA
ATOM     11  C   UNL     1       3.257   3.488  19.047  0.00  0.00    +0.000 A 
ATOM     12  C   UNL     1       3.938   3.044  17.803  0.00  0.00    +0.000 C 
ATOM     13  C   UNL     1       2.736   2.694  20.050  0.00  0.00    +0.000 A 
ATOM     14  S   UNL     1       2.063   3.685  21.290  0.00  0.00    +0.000 S 
ATOM     15  H   UNL     1       1.473   6.250  21.721  0.00  0.00    +0.000 HD
ENDBRANCH   2   6
BRANCH   5  16
ATOM     16  C   UNL     1       0.021  11.946  20.692  0.00  0.00    +0.000 A 
ATOM     17  C   UNL     1      -1.339  12.261  20.806  0.00  0.00    +0.000 A 
ATOM     18  C   UNL     1      -1.799  13.553  20.538  0.00  0.00    +0.000 A 
ATOM     19  C   UNL     1      -0.899  14.547  20.170  0.00  0.00    +0.000 A 
ATOM     20  C   UNL     1       0.463  14.255  20.105  0.00  0.00    +0.000 A 
ATOM     21 CL   UNL     1       1.567  15.491  19.640  0.00  0.00    +0.000 Cl
ATOM     22  C   UNL     1       0.933  12.967  20.382  0.00  0.00    +0.000 A 
ENDBRANCH   5  16
BRANCH   1  24
ATOM     23  C   UNL     1      -0.856   9.965  17.862  0.00  0.00    +0.000 C 
ATOM     24  C   UNL     1       0.557   9.923  18.408  0.00  0.00    +0.000 C 
ENDBRANCH   1  24
TORSDOF 3
ENDMDL
MODEL 5
REMARK VINA RESULT:      -6.6      6.139      8.803
REMARK  Name = 
REMARK  5 active torsions:
REMARK  status: ('A' for Active; 'I' for Inactive)
REMARK    1  A    between atoms: C_1  and  C_2
REMARK    2  A    between atoms: C_2  and  C_3
REMARK    3  A    between atoms: C_4  and  C_5
REMARK    4  A    between atoms: C_10  and  C_11
REMARK    5  A    between atoms: N_16  and  C_17
REMARK                            x       y       z     vdW  Elec       q    Type
REMARK                         _______ _______ _______ _____ _____    ______ ____
ROOT
ATOM      1  C   UNL     1       1.408   8.585  19.643  0.00  0.00    +0.000 A 
ATOM      2  C   UNL     1       2.253   7.731  18.923  0.00  0.00    +0.000 A 
ATOM      3  C   UNL     1       2.478   8.399  17.706  0.00  0.00    +0.000 A 
ATOM      4  N   UNL     1       1.785   9.526  17.595  0.00  0.00    +0.000 NA
ATOM      5  N   UNL     1       1.130   9.656  18.778  0.00  0.00    +0.000 N 
ENDROOT
BRANCH   2   6
ATOM      6  C   UNL     1       2.684   6.382  19.265  0.00  0.00    +0.000 C 
ATOM      7  O   UNL     1       3.327   6.207  20.299  0.00  0.00    +0.000 OA
ATOM      8  N   UNL     1       2.307   5.398  18.382  0.00  0.00    +0.000 N 
ATOM      9  C   UNL     1       2.779   4.117  18.557  0.00  0.00    +0.000 A 
ATOM     10  N   UNL     1       3.425   3.632  19.581  0.00  0.00    +0.000 NA
ATOM     11  C   UNL     1       3.849   2.345  19.321  0.00  0.00    +0.000 A 
ATOM     12  C   UNL     1       4.650   1.646  20.359  0.00  0.00    +0.000 C 
ATOM     13  C   UNL     1       3.485   1.867  18.076  0.00  0.00    +0.000 A 
ATOM     14  S   UNL     1       2.542   3.050  17.250  0.00  0.00    +0.000 S 
ATOM     15  H   UNL     1       1.822   5.604  17.523  0.00  0.00    +0.000 HD
ENDBRANCH   2   6
BRANCH   5  16
ATOM     16  C   UNL     1       0.242  10.759  18.959  0.00  0.00    +0.000 A 
ATOM     17  C   UNL     1       0.640  11.924  19.627  0.00  0.00    +0.000 A 
ATOM     18  C   UNL     1      -0.276  12.946  19.889  0.00  0.00    +0.000 A 
ATOM     19  C   UNL     1      -1.596  12.819  19.470  0.00  0.00    +0.000 A 
ATOM     20  C   UNL     1      -1.987  11.686  18.758  0.00  0.00    +0.000 A 
ATOM     21 CL   UNL     1      -3.626  11.537  18.251  0.00  0.00    +0.000 Cl
ATOM     22  C   UNL     1      -1.075  10.663  18.481  0.00  0.00    +0.000 A 
ENDBRANCH   5  16
BRANCH   1  24
ATOM     23  C   UNL     1       1.382   9.176  22.185  0.00  0.00    +0.000 C 
ATOM     24  C   UNL     1       0.749   8.481  20.997  0.00  0.00    +0.000 C 
ENDBRANCH   1  24
TORSDOF 3
ENDMDL
MODEL 6
REMARK VINA RESULT:      -6.6      7.072      9.312
REMARK  Name = 
REMARK  5 active torsions:
REMARK  status: ('A' for Active; 'I' for Inactive)
REMARK    1  A    between atoms: C_1  and  C_2
REMARK    2  A    between atoms: C_2  and  C_3
REMARK    3  A    between atoms: C_4  and  C_5
REMARK    4  A    between atoms: C_10  and  C_11
REMARK    5  A    between atoms: N_16  and  C_17
REMARK                            x       y       z     vdW  Elec       q    Type
REMARK                         _______ _______ _______ _____ _____    ______ ____
ROOT
ATOM      1  C   UNL     1       0.749   9.694  19.942  0.00  0.00    +0.000 A 
ATOM      2  C   UNL     1       1.318   8.605  20.615  0.00  0.00    +0.000 A 
ATOM      3  C   UNL     1       1.270   8.964  21.973  0.00  0.00    +0.000 A 
ATOM      4  N   UNL     1       0.806  10.192  22.172  0.00  0.00    +0.000 NA
ATOM      5  N   UNL     1       0.475  10.648  20.935  0.00  0.00    +0.000 N 
ENDROOT
BRANCH   2   6
ATOM      6  C   UNL     1       1.967   7.430  20.050  0.00  0.00    +0.000 C 
ATOM      7  O   UNL     1       2.493   7.516  18.941  0.00  0.00    +0.000 OA
ATOM      8  N   UNL     1       1.942   6.303  20.837  0.00  0.00    +0.000 N 
ATOM      9  C   UNL     1       2.415   5.114  20.330  0.00  0.00    +0.000 A 
ATOM     10  N   UNL     1       3.074   4.920  19.221  0.00  0.00    +0.000 NA
ATOM     11  C   UNL     1       3.252   3.570  18.993  0.00  0.00    +0.000 A 
ATOM     12  C   UNL     1       3.939   3.153  17.744  0.00  0.00    +0.000 C 
ATOM     13  C   UNL     1       2.724   2.754  19.976  0.00  0.00    +0.000 A 
ATOM     14  S   UNL     1       2.045   3.718  21.233  0.00  0.00    +0.000 S 
ATOM     15  H   UNL     1       1.453   6.273  21.718  0.00  0.00    +0.000 HD
ENDBRANCH   2   6
BRANCH   5  16
ATOM     16  C   UNL     1      -0.012  11.983  20.799  0.00  0.00    +0.000 A 
ATOM     17  C   UNL     1       0.852  13.069  20.620  0.00  0.00    +0.000 A 
ATOM     18  C   UNL     1       0.363  14.378  20.599  0.00  0.00    +0.000 A 
ATOM     19  C   UNL     1      -1.001  14.610  20.740  0.00  0.00    +0.000 A 
ATOM     20  C   UNL     1      -1.875  13.531  20.867  0.00  0.00    +0.000 A 
ATOM     21 CL   UNL     1      -3.560  13.832  21.048  0.00  0.00    +0.000 Cl
ATOM     22  C   UNL     1      -1.395  12.218  20.878  0.00  0.00    +0.000 A 
ENDBRANCH   5  16
BRANCH   1  24
ATOM     23  C   UNL     1      -0.900  10.011  17.943  0.00  0.00    +0.000 C 
ATOM     24  C   UNL     1       0.517   9.996  18.481  0.00  0.00    +0.000 C 
ENDBRANCH   1  24
TORSDOF 3
ENDMDL
MODEL 7
REMARK VINA RESULT:      -6.5      7.570      9.566
REMARK  Name = 
REMARK  5 active torsions:
REMARK  status: ('A' for Active; 'I' for Inactive)
REMARK    1  A    between atoms: C_1  and  C_2
REMARK    2  A    between atoms: C_2  and  C_3
REMARK    3  A    between atoms: C_4  and  C_5
REMARK    4  A    between atoms: C_10  and  C_11
REMARK    5  A    between atoms: N_16  and  C_17
REMARK                            x       y       z     vdW  Elec       q    Type
REMARK                         _______ _______ _______ _____ _____    ______ ____
ROOT
ATOM      1  C   UNL     1       0.043   9.668  20.932  0.00  0.00    +0.000 A 
ATOM      2  C   UNL     1       0.992   8.702  21.291  0.00  0.00    +0.000 A 
ATOM      3  C   UNL     1       1.276   8.969  22.642  0.00  0.00    +0.000 A 
ATOM      4  N   UNL     1       0.654  10.049  23.101  0.00  0.00    +0.000 NA
ATOM      5  N   UNL     1      -0.111  10.483  22.065  0.00  0.00    +0.000 N 
ENDROOT
BRANCH   2   6
ATOM      6  C   UNL     1       1.668   7.735  20.437  0.00  0.00    +0.000 C 
ATOM      7  O   UNL     1       2.076   8.097  19.335  0.00  0.00    +0.000 OA
ATOM      8  N   UNL     1       1.803   6.472  20.964  0.00  0.00    +0.000 N 
ATOM      9  C   UNL     1       2.312   5.463  20.177  0.00  0.00    +0.000 A 
ATOM     10  N   UNL     1       2.872   5.565  19.003  0.00  0.00    +0.000 NA
ATOM     11  C   UNL     1       3.126   4.314  18.478  0.00  0.00    +0.000 A 
ATOM     12  C   UNL     1       3.717   4.231  17.118  0.00  0.00    +0.000 C 
ATOM     13  C   UNL     1       2.758   3.267  19.301  0.00  0.00    +0.000 A 
ATOM     14  S   UNL     1       2.135   3.882  20.786  0.00  0.00    +0.000 S 
ATOM     15  H   UNL     1       1.405   6.215  21.853  0.00  0.00    +0.000 HD
ENDBRANCH   2   6
BRANCH   5  16
ATOM     16  C   UNL     1      -0.875  11.678  22.224  0.00  0.00    +0.000 A 
ATOM     17  C   UNL     1      -2.071  11.698  22.952  0.00  0.00    +0.000 A 
ATOM     18  C   UNL     1      -2.859  12.851  23.003  0.00  0.00    +0.000 A 
ATOM     19  C   UNL     1      -2.448  14.001  22.339  0.00  0.00    +0.000 A 
ATOM     20  C   UNL     1      -1.233  14.006  21.655  0.00  0.00    +0.000 A 
ATOM     21 CL   UNL     1      -0.739  15.434  20.830  0.00  0.00    +0.000 Cl
ATOM     22  C   UNL     1      -0.433  12.860  21.608  0.00  0.00    +0.000 A 
ENDBRANCH   5  16
BRANCH   1  24
ATOM     23  C   UNL     1       0.051  10.809  18.584  0.00  0.00    +0.000 C 
ATOM     24  C   UNL     1      -0.664   9.986  19.637  0.00  0.00    +0.000 C 
ENDBRANCH   1  24
TORSDOF 3
ENDMDL
MODEL 8
REMARK VINA RESULT:      -6.5      6.184      7.534
REMARK  Name = 
REMARK  5 active torsions:
REMARK  status: ('A' for Active; 'I' for Inactive)
REMARK    1  A    between atoms: C_1  and  C_2
REMARK    2  A    between atoms: C_2  and  C_3
REMARK    3  A    between atoms: C_4  and  C_5
REMARK    4  A    between atoms: C_10  and  C_11
REMARK    5  A    between atoms: N_16  and  C_17
REMARK                            x       y       z     vdW  Elec       q    Type
REMARK                         _______ _______ _______ _____ _____    ______ ____
ROOT
ATOM      1  C   UNL     1       2.111   7.408  19.384  0.00  0.00    +0.000 A 
ATOM      2  C   UNL     1       1.488   8.653  19.226  0.00  0.00    +0.000 A 
ATOM      3  C   UNL     1       1.871   9.079  17.941  0.00  0.00    +0.000 A 
ATOM      4  N   UNL     1       2.725   8.251  17.351  0.00  0.00    +0.000 NA
ATOM      5  N   UNL     1       2.875   7.218  18.222  0.00  0.00    +0.000 N 
ENDROOT
BRANCH   2   6
ATOM      6  C   UNL     1       0.745   9.427  20.211  0.00  0.00    +0.000 C 
ATOM      7  O   UNL     1      -0.133   8.869  20.867  0.00  0.00    +0.000 OA
ATOM      8  N   UNL     1       1.115  10.746  20.330  0.00  0.00    +0.000 N 
ATOM      9  C   UNL     1       0.382  11.582  21.141  0.00  0.00    +0.000 A 
ATOM     10  N   UNL     1      -0.555  11.260  21.989  0.00  0.00    +0.000 NA
ATOM     11  C   UNL     1      -1.146  12.392  22.511  0.00  0.00    +0.000 A 
ATOM     12  C   UNL     1      -2.275  12.220  23.461  0.00  0.00    +0.000 C 
ATOM     13  C   UNL     1      -0.613  13.578  22.044  0.00  0.00    +0.000 A 
ATOM     14  S   UNL     1       0.697  13.248  20.973  0.00  0.00    +0.000 S 
ATOM     15  H   UNL     1       1.809  11.166  19.731  0.00  0.00    +0.000 HD
ENDBRANCH   2   6
BRANCH   5  16
ATOM     16  C   UNL     1       3.787   6.169  17.899  0.00  0.00    +0.000 A 
ATOM     17  C   UNL     1       3.347   4.935  17.405  0.00  0.00    +0.000 A 
ATOM     18  C   UNL     1       4.245   3.885  17.200  0.00  0.00    +0.000 A 
ATOM     19  C   UNL     1       5.597   4.066  17.471  0.00  0.00    +0.000 A 
ATOM     20  C   UNL     1       6.052   5.307  17.913  0.00  0.00    +0.000 A 
ATOM     21 CL   UNL     1       7.726   5.517  18.252  0.00  0.00    +0.000 Cl
ATOM     22  C   UNL     1       5.161   6.367  18.111  0.00  0.00    +0.000 A 
ENDBRANCH   5  16
BRANCH   1  24
ATOM     23  C   UNL     1       1.316   5.161  20.450  0.00  0.00    +0.000 C 
ATOM     24  C   UNL     1       2.159   6.418  20.523  0.00  0.00    +0.000 C 
ENDBRANCH   1  24
TORSDOF 3
ENDMDL
MODEL 9
REMARK VINA RESULT:      -6.5      6.317      8.946
REMARK  Name = 
REMARK  5 active torsions:
REMARK  status: ('A' for Active; 'I' for Inactive)
REMARK    1  A    between atoms: C_1  and  C_2
REMARK    2  A    between atoms: C_2  and  C_3
REMARK    3  A    between atoms: C_4  and  C_5
REMARK    4  A    between atoms: C_10  and  C_11
REMARK    5  A    between atoms: N_16  and  C_17
REMARK                            x       y       z     vdW  Elec       q    Type
REMARK                         _______ _______ _______ _____ _____    ______ ____
ROOT
ATOM      1  C   UNL     1       1.479   8.859  19.899  0.00  0.00    +0.000 A 
ATOM      2  C   UNL     1       2.109   8.155  18.865  0.00  0.00    +0.000 A 
ATOM      3  C   UNL     1       2.140   9.059  17.789  0.00  0.00    +0.000 A 
ATOM      4  N   UNL     1       1.517  10.202  18.051  0.00  0.00    +0.000 NA
ATOM      5  N   UNL     1       1.113  10.096  19.344  0.00  0.00    +0.000 N 
ENDROOT
BRANCH   2   6
ATOM      6  C   UNL     1       2.504   6.753  18.833  0.00  0.00    +0.000 C 
ATOM      7  O   UNL     1       2.899   6.271  17.773  0.00  0.00    +0.000 OA
ATOM      8  N   UNL     1       2.410   6.083  20.030  0.00  0.00    +0.000 N 
ATOM      9  C   UNL     1       2.637   4.726  20.064  0.00  0.00    +0.000 A 
ATOM     10  N   UNL     1       3.121   3.969  19.117  0.00  0.00    +0.000 NA
ATOM     11  C   UNL     1       3.068   2.640  19.487  0.00  0.00    +0.000 A 
ATOM     12  C   UNL     1       3.530   1.621  18.509  0.00  0.00    +0.000 C 
ATOM     13  C   UNL     1       2.549   2.421  20.748  0.00  0.00    +0.000 A 
ATOM     14  S   UNL     1       2.178   3.928  21.497  0.00  0.00    +0.000 S 
ATOM     15  H   UNL     1       2.032   6.514  20.859  0.00  0.00    +0.000 HD
ENDBRANCH   2   6
BRANCH   5  16
ATOM     16  C   UNL     1       0.354  11.158  19.920  0.00  0.00    +0.000 A 
ATOM     17  C   UNL     1       0.909  12.035  20.860  0.00  0.00    +0.000 A 
ATOM     18  C   UNL     1       0.119  12.998  21.493  0.00  0.00    +0.000 A 
ATOM     19  C   UNL     1      -1.231  13.104  21.179  0.00  0.00    +0.000 A 
ATOM     20  C   UNL     1      -1.780  12.270  20.206  0.00  0.00    +0.000 A 
ATOM     21 CL   UNL     1      -3.454  12.405  19.831  0.00  0.00    +0.000 Cl
ATOM     22  C   UNL     1      -0.995  11.310  19.559  0.00  0.00    +0.000 A 
ENDBRANCH   5  16
BRANCH   1  24
ATOM     23  C   UNL     1      -0.373   8.254  21.637  0.00  0.00    +0.000 C 
ATOM     24  C   UNL     1       1.088   8.487  21.309  0.00  0.00    +0.000 C 
ENDBRANCH   1  24
TORSDOF 3
ENDMDL
