MODEL 1
REMARK VINA RESULT:      -8.0      0.000      0.000
REMARK  Name = 
REMARK  4 active torsions:
REMARK  status: ('A' for Active; 'I' for Inactive)
REMARK    1  A    between atoms: C_1  and  C_2
REMARK    2  A    between atoms: N_6  and  C_7
REMARK    3  A    between atoms: C_10  and  C_11
REMARK    4  A    between atoms: C_11  and  O_12
REMARK                            x       y       z     vdW  Elec       q    Type
REMARK                         _______ _______ _______ _____ _____    ______ ____
ROOT
ATOM      1  C   UNL     1       7.009   4.067  12.066  0.00  0.00    +0.000 C 
ATOM      2  C   UNL     1       6.737   4.305  13.507  0.00  0.00    +0.000 A 
ATOM      3  C   UNL     1       5.842   3.672  14.269  0.00  0.00    +0.000 A 
ATOM      4  C   UNL     1       6.009   4.258  15.538  0.00  0.00    +0.000 A 
ATOM      5  C   UNL     1       5.458   4.095  16.729  0.00  0.00    +0.000 A 
ATOM      6  N   UNL     1       5.886   4.859  17.804  0.00  0.00    +0.000 N 
ATOM      7  C   UNL     1       6.955   5.781  17.670  0.00  0.00    +0.000 A 
ATOM      8  O   UNL     1       7.385   6.383  18.656  0.00  0.00    +0.000 OA
ATOM      9  N   UNL     1       7.513   5.992  16.423  0.00  0.00    +0.000 NA
ATOM     10  C   UNL     1       7.059   5.265  15.471  0.00  0.00    +0.000 A 
ATOM     11  O   UNL     1       7.507   5.299  14.168  0.00  0.00    +0.000 OA
ENDROOT
BRANCH   6  12
ATOM     12  C   UNL     1       5.364   4.623  19.152  0.00  0.00    +0.000 C 
ATOM     13  C   UNL     1       4.034   5.310  19.451  0.00  0.00    +0.000 C 
ATOM     14  C   UNL     1       3.024   4.279  19.020  0.00  0.00    +0.000 C 
ATOM     15  C   UNL     1       3.694   2.988  19.445  0.00  0.00    +0.000 C 
ATOM     16  O   UNL     1       5.118   3.207  19.344  0.00  0.00    +0.000 OA
BRANCH  15  17
ATOM     17  C   UNL     1       3.273   1.803  18.574  0.00  0.00    +0.000 C 
BRANCH  17  18
ATOM     18  O   UNL     1       4.283   0.799  18.561  0.00  0.00    +0.000 OA
ATOM     19  H   UNL     1       5.075   1.202  18.964  0.00  0.00    +0.000 HD
ENDBRANCH  17  18
ENDBRANCH  15  17
ENDBRANCH   6  12
TORSDOF 3
ENDMDL
MODEL 2
REMARK VINA RESULT:      -7.6      1.002      1.033
REMARK  Name = 
REMARK  4 active torsions:
REMARK  status: ('A' for Active; 'I' for Inactive)
REMARK    1  A    between atoms: C_1  and  C_2
REMARK    2  A    between atoms: N_6  and  C_7
REMARK    3  A    between atoms: C_10  and  C_11
REMARK    4  A    between atoms: C_11  and  O_12
REMARK                            x       y       z     vdW  Elec       q    Type
REMARK                         _______ _______ _______ _____ _____    ______ ____
ROOT
ATOM      1  C   UNL     1       7.320   4.708  12.766  0.00  0.00    +0.000 C 
ATOM      2  C   UNL     1       6.812   4.820  14.157  0.00  0.00    +0.000 A 
ATOM      3  C   UNL     1       5.553   4.649  14.566  0.00  0.00    +0.000 A 
ATOM      4  C   UNL     1       5.625   4.844  15.959  0.00  0.00    +0.000 A 
ATOM      5  C   UNL     1       4.759   4.811  16.959  0.00  0.00    +0.000 A 
ATOM      6  N   UNL     1       5.188   5.045  18.256  0.00  0.00    +0.000 N 
ATOM      7  C   UNL     1       6.558   5.263  18.549  0.00  0.00    +0.000 A 
ATOM      8  O   UNL     1       6.934   5.375  19.718  0.00  0.00    +0.000 OA
ATOM      9  N   UNL     1       7.467   5.340  17.511  0.00  0.00    +0.000 NA
ATOM     10  C   UNL     1       7.001   5.131  16.337  0.00  0.00    +0.000 A 
ATOM     11  O   UNL     1       7.749   5.129  15.179  0.00  0.00    +0.000 OA
ENDROOT
BRANCH   6  12
ATOM     12  C   UNL     1       4.268   4.911  19.389  0.00  0.00    +0.000 C 
ATOM     13  C   UNL     1       2.868   5.467  19.144  0.00  0.00    +0.000 C 
ATOM     14  C   UNL     1       2.136   4.280  18.577  0.00  0.00    +0.000 C 
ATOM     15  C   UNL     1       2.720   3.137  19.383  0.00  0.00    +0.000 C 
ATOM     16  O   UNL     1       4.078   3.510  19.706  0.00  0.00    +0.000 OA
BRANCH  15  17
ATOM     17  C   UNL     1       2.698   1.815  18.613  0.00  0.00    +0.000 C 
BRANCH  17  18
ATOM     18  O   UNL     1       4.020   1.396  18.289  0.00  0.00    +0.000 OA
ATOM     19  H   UNL     1       4.010   0.420  18.306  0.00  0.00    +0.000 HD
ENDBRANCH  17  18
ENDBRANCH  15  17
ENDBRANCH   6  12
TORSDOF 3
ENDMDL
MODEL 3
REMARK VINA RESULT:      -7.3      1.065      1.136
REMARK  Name = 
REMARK  4 active torsions:
REMARK  status: ('A' for Active; 'I' for Inactive)
REMARK    1  A    between atoms: C_1  and  C_2
REMARK    2  A    between atoms: N_6  and  C_7
REMARK    3  A    between atoms: C_10  and  C_11
REMARK    4  A    between atoms: C_11  and  O_12
REMARK                            x       y       z     vdW  Elec       q    Type
REMARK                         _______ _______ _______ _____ _____    ______ ____
ROOT
ATOM      1  C   UNL     1       7.144   4.291  12.289  0.00  0.00    +0.000 C 
ATOM      2  C   UNL     1       6.726   4.391  13.711  0.00  0.00    +0.000 A 
ATOM      3  C   UNL     1       5.664   3.815  14.277  0.00  0.00    +0.000 A 
ATOM      4  C   UNL     1       5.748   4.210  15.625  0.00  0.00    +0.000 A 
ATOM      5  C   UNL     1       5.032   3.989  16.716  0.00  0.00    +0.000 A 
ATOM      6  N   UNL     1       5.422   4.543  17.926  0.00  0.00    +0.000 N 
ATOM      7  C   UNL     1       6.615   5.300  18.037  0.00  0.00    +0.000 A 
ATOM      8  O   UNL     1       6.995   5.705  19.138  0.00  0.00    +0.000 OA
ATOM      9  N   UNL     1       7.350   5.573  16.899  0.00  0.00    +0.000 NA
ATOM     10  C   UNL     1       6.925   5.045  15.812  0.00  0.00    +0.000 A 
ATOM     11  O   UNL     1       7.535   5.168  14.583  0.00  0.00    +0.000 OA
ENDROOT
BRANCH   6  12
ATOM     12  C   UNL     1       4.705   4.227  19.164  0.00  0.00    +0.000 C 
ATOM     13  C   UNL     1       3.906   5.388  19.753  0.00  0.00    +0.000 C 
ATOM     14  C   UNL     1       2.563   5.235  19.090  0.00  0.00    +0.000 C 
ATOM     15  C   UNL     1       2.407   3.728  19.043  0.00  0.00    +0.000 C 
ATOM     16  O   UNL     1       3.737   3.178  18.919  0.00  0.00    +0.000 OA
BRANCH  15  17
ATOM     17  C   UNL     1       1.530   3.273  17.874  0.00  0.00    +0.000 C 
BRANCH  17  18
ATOM     18  O   UNL     1       2.057   2.094  17.274  0.00  0.00    +0.000 OA
ATOM     19  H   UNL     1       1.879   2.170  16.317  0.00  0.00    +0.000 HD
ENDBRANCH  17  18
ENDBRANCH  15  17
ENDBRANCH   6  12
TORSDOF 3
ENDMDL
MODEL 4
REMARK VINA RESULT:      -7.3      0.945      1.030
REMARK  Name = 
REMARK  4 active torsions:
REMARK  status: ('A' for Active; 'I' for Inactive)
REMARK    1  A    between atoms: C_1  and  C_2
REMARK    2  A    between atoms: N_6  and  C_7
REMARK    3  A    between atoms: C_10  and  C_11
REMARK    4  A    between atoms: C_11  and  O_12
REMARK                            x       y       z     vdW  Elec       q    Type
REMARK                         _______ _______ _______ _____ _____    ______ ____
ROOT
ATOM      1  C   UNL     1       6.740   3.442  12.016  0.00  0.00    +0.000 C 
ATOM      2  C   UNL     1       6.425   4.025  13.345  0.00  0.00    +0.000 A 
ATOM      3  C   UNL     1       5.275   3.922  14.014  0.00  0.00    +0.000 A 
ATOM      4  C   UNL     1       5.517   4.628  15.208  0.00  0.00    +0.000 A 
ATOM      5  C   UNL     1       4.818   4.904  16.296  0.00  0.00    +0.000 A 
ATOM      6  N   UNL     1       5.390   5.638  17.323  0.00  0.00    +0.000 N 
ATOM      7  C   UNL     1       6.744   6.057  17.260  0.00  0.00    +0.000 A 
ATOM      8  O   UNL     1       7.263   6.627  18.221  0.00  0.00    +0.000 OA
ATOM      9  N   UNL     1       7.474   5.812  16.113  0.00  0.00    +0.000 NA
ATOM     10  C   UNL     1       6.879   5.143  15.197  0.00  0.00    +0.000 A 
ATOM     11  O   UNL     1       7.446   4.767  13.998  0.00  0.00    +0.000 OA
ENDROOT
BRANCH   6  12
ATOM     12  C   UNL     1       4.671   5.866  18.578  0.00  0.00    +0.000 C 
ATOM     13  C   UNL     1       3.162   6.043  18.427  0.00  0.00    +0.000 C 
ATOM     14  C   UNL     1       2.651   4.631  18.541  0.00  0.00    +0.000 C 
ATOM     15  C   UNL     1       3.571   4.049  19.596  0.00  0.00    +0.000 C 
ATOM     16  O   UNL     1       4.840   4.726  19.456  0.00  0.00    +0.000 OA
BRANCH  15  17
ATOM     17  C   UNL     1       3.752   2.538  19.436  0.00  0.00    +0.000 C 
BRANCH  17  18
ATOM     18  O   UNL     1       5.104   2.161  19.678  0.00  0.00    +0.000 OA
ATOM     19  H   UNL     1       5.369   1.594  18.929  0.00  0.00    +0.000 HD
ENDBRANCH  17  18
ENDBRANCH  15  17
ENDBRANCH   6  12
TORSDOF 3
ENDMDL
MODEL 5
REMARK VINA RESULT:      -7.1      1.996      2.603
REMARK  Name = 
REMARK  4 active torsions:
REMARK  status: ('A' for Active; 'I' for Inactive)
REMARK    1  A    between atoms: C_1  and  C_2
REMARK    2  A    between atoms: N_6  and  C_7
REMARK    3  A    between atoms: C_10  and  C_11
REMARK    4  A    between atoms: C_11  and  O_12
REMARK                            x       y       z     vdW  Elec       q    Type
REMARK                         _______ _______ _______ _____ _____    ______ ____
ROOT
ATOM      1  C   UNL     1       7.399   5.010  13.863  0.00  0.00    +0.000 C 
ATOM      2  C   UNL     1       6.311   5.043  14.874  0.00  0.00    +0.000 A 
ATOM      3  C   UNL     1       5.620   4.002  15.344  0.00  0.00    +0.000 A 
ATOM      4  C   UNL     1       4.742   4.579  16.281  0.00  0.00    +0.000 A 
ATOM      5  C   UNL     1       3.808   4.123  17.099  0.00  0.00    +0.000 A 
ATOM      6  N   UNL     1       3.120   4.998  17.924  0.00  0.00    +0.000 N 
ATOM      7  C   UNL     1       3.437   6.380  17.957  0.00  0.00    +0.000 A 
ATOM      8  O   UNL     1       2.880   7.126  18.764  0.00  0.00    +0.000 OA
ATOM      9  N   UNL     1       4.381   6.877  17.080  0.00  0.00    +0.000 NA
ATOM     10  C   UNL     1       4.967   6.017  16.334  0.00  0.00    +0.000 A 
ATOM     11  O   UNL     1       5.959   6.306  15.421  0.00  0.00    +0.000 OA
ENDROOT
BRANCH   6  12
ATOM     12  C   UNL     1       2.156   4.503  18.911  0.00  0.00    +0.000 C 
ATOM     13  C   UNL     1       1.393   3.251  18.485  0.00  0.00    +0.000 C 
ATOM     14  C   UNL     1       2.278   2.139  18.984  0.00  0.00    +0.000 C 
ATOM     15  C   UNL     1       2.782   2.705  20.297  0.00  0.00    +0.000 C 
ATOM     16  O   UNL     1       2.845   4.139  20.132  0.00  0.00    +0.000 OA
BRANCH  15  17
ATOM     17  C   UNL     1       4.156   2.150  20.677  0.00  0.00    +0.000 C 
BRANCH  17  18
ATOM     18  O   UNL     1       5.102   2.387  19.639  0.00  0.00    +0.000 OA
ATOM     19  H   UNL     1       5.945   2.001  19.943  0.00  0.00    +0.000 HD
ENDBRANCH  17  18
ENDBRANCH  15  17
ENDBRANCH   6  12
TORSDOF 3
ENDMDL
MODEL 6
REMARK VINA RESULT:      -6.9      3.030      5.778
REMARK  Name = 
REMARK  4 active torsions:
REMARK  status: ('A' for Active; 'I' for Inactive)
REMARK    1  A    between atoms: C_1  and  C_2
REMARK    2  A    between atoms: N_6  and  C_7
REMARK    3  A    between atoms: C_10  and  C_11
REMARK    4  A    between atoms: C_11  and  O_12
REMARK                            x       y       z     vdW  Elec       q    Type
REMARK                         _______ _______ _______ _____ _____    ______ ____
ROOT
ATOM      1  C   UNL     1       0.990  10.295  18.669  0.00  0.00    +0.000 C 
ATOM      2  C   UNL     1       1.719   9.002  18.613  0.00  0.00    +0.000 A 
ATOM      3  C   UNL     1       2.590   8.612  17.680  0.00  0.00    +0.000 A 
ATOM      4  C   UNL     1       2.994   7.335  18.112  0.00  0.00    +0.000 A 
ATOM      5  C   UNL     1       3.831   6.412  17.666  0.00  0.00    +0.000 A 
ATOM      6  N   UNL     1       4.004   5.232  18.371  0.00  0.00    +0.000 N 
ATOM      7  C   UNL     1       3.342   5.010  19.606  0.00  0.00    +0.000 A 
ATOM      8  O   UNL     1       3.580   3.997  20.266  0.00  0.00    +0.000 OA
ATOM      9  N   UNL     1       2.435   5.946  20.064  0.00  0.00    +0.000 NA
ATOM     10  C   UNL     1       2.311   7.006  19.355  0.00  0.00    +0.000 A 
ATOM     11  O   UNL     1       1.488   8.069  19.659  0.00  0.00    +0.000 OA
ENDROOT
BRANCH   6  12
ATOM     12  C   UNL     1       5.000   4.242  17.952  0.00  0.00    +0.000 C 
ATOM     13  C   UNL     1       5.598   4.485  16.569  0.00  0.00    +0.000 C 
ATOM     14  C   UNL     1       6.785   5.361  16.871  0.00  0.00    +0.000 C 
ATOM     15  C   UNL     1       7.283   4.775  18.177  0.00  0.00    +0.000 C 
ATOM     16  O   UNL     1       6.124   4.258  18.867  0.00  0.00    +0.000 OA
BRANCH  15  17
ATOM     17  C   UNL     1       8.000   5.814  19.042  0.00  0.00    +0.000 C 
BRANCH  17  18
ATOM     18  O   UNL     1       8.008   5.416  20.409  0.00  0.00    +0.000 OA
ATOM     19  H   UNL     1       8.930   5.178  20.620  0.00  0.00    +0.000 HD
ENDBRANCH  17  18
ENDBRANCH  15  17
ENDBRANCH   6  12
TORSDOF 3
ENDMDL
MODEL 7
REMARK VINA RESULT:      -6.8      2.347      5.752
REMARK  Name = 
REMARK  4 active torsions:
REMARK  status: ('A' for Active; 'I' for Inactive)
REMARK    1  A    between atoms: C_1  and  C_2
REMARK    2  A    between atoms: N_6  and  C_7
REMARK    3  A    between atoms: C_10  and  C_11
REMARK    4  A    between atoms: C_11  and  O_12
REMARK                            x       y       z     vdW  Elec       q    Type
REMARK                         _______ _______ _______ _____ _____    ______ ____
ROOT
ATOM      1  C   UNL     1       1.489   2.551  21.580  0.00  0.00    +0.000 C 
ATOM      2  C   UNL     1       2.242   3.485  20.706  0.00  0.00    +0.000 A 
ATOM      3  C   UNL     1       3.456   3.292  20.184  0.00  0.00    +0.000 A 
ATOM      4  C   UNL     1       3.684   4.458  19.429  0.00  0.00    +0.000 A 
ATOM      5  C   UNL     1       4.667   4.907  18.665  0.00  0.00    +0.000 A 
ATOM      6  N   UNL     1       4.553   6.138  18.038  0.00  0.00    +0.000 N 
ATOM      7  C   UNL     1       3.370   6.912  18.148  0.00  0.00    +0.000 A 
ATOM      8  O   UNL     1       3.250   7.958  17.508  0.00  0.00    +0.000 OA
ATOM      9  N   UNL     1       2.352   6.476  18.975  0.00  0.00    +0.000 NA
ATOM     10  C   UNL     1       2.529   5.339  19.537  0.00  0.00    +0.000 A 
ATOM     11  O   UNL     1       1.621   4.717  20.366  0.00  0.00    +0.000 OA
ENDROOT
BRANCH   6  12
ATOM     12  C   UNL     1       5.582   6.607  17.106  0.00  0.00    +0.000 C 
ATOM     13  C   UNL     1       7.015   6.287  17.524  0.00  0.00    +0.000 C 
ATOM     14  C   UNL     1       7.248   4.937  16.898  0.00  0.00    +0.000 C 
ATOM     15  C   UNL     1       6.509   5.070  15.582  0.00  0.00    +0.000 C 
ATOM     16  O   UNL     1       5.405   5.971  15.816  0.00  0.00    +0.000 OA
BRANCH  15  17
ATOM     17  C   UNL     1       6.000   3.723  15.065  0.00  0.00    +0.000 C 
BRANCH  17  18
ATOM     18  O   UNL     1       6.429   3.499  13.726  0.00  0.00    +0.000 OA
ATOM     19  H   UNL     1       5.621   3.336  13.203  0.00  0.00    +0.000 HD
ENDBRANCH  17  18
ENDBRANCH  15  17
ENDBRANCH   6  12
TORSDOF 3
ENDMDL
MODEL 8
REMARK VINA RESULT:      -6.7      2.894      6.301
REMARK  Name = 
REMARK  4 active torsions:
REMARK  status: ('A' for Active; 'I' for Inactive)
REMARK    1  A    between atoms: C_1  and  C_2
REMARK    2  A    between atoms: N_6  and  C_7
REMARK    3  A    between atoms: C_10  and  C_11
REMARK    4  A    between atoms: C_11  and  O_12
REMARK                            x       y       z     vdW  Elec       q    Type
REMARK                         _______ _______ _______ _____ _____    ______ ____
ROOT
ATOM      1  C   UNL     1       0.528   9.305  20.888  0.00  0.00    +0.000 C 
ATOM      2  C   UNL     1       1.284   8.108  20.439  0.00  0.00    +0.000 A 
ATOM      3  C   UNL     1       2.140   8.037  19.417  0.00  0.00    +0.000 A 
ATOM      4  C   UNL     1       2.583   6.701  19.445  0.00  0.00    +0.000 A 
ATOM      5  C   UNL     1       3.429   5.976  18.731  0.00  0.00    +0.000 A 
ATOM      6  N   UNL     1       3.647   4.646  19.053  0.00  0.00    +0.000 N 
ATOM      7  C   UNL     1       3.022   4.051  20.179  0.00  0.00    +0.000 A 
ATOM      8  O   UNL     1       3.300   2.895  20.505  0.00  0.00    +0.000 OA
ATOM      9  N   UNL     1       2.106   4.783  20.909  0.00  0.00    +0.000 NA
ATOM     10  C   UNL     1       1.940   6.001  20.548  0.00  0.00    +0.000 A 
ATOM     11  O   UNL     1       1.101   6.902  21.167  0.00  0.00    +0.000 OA
ENDROOT
BRANCH   6  12
ATOM     12  C   UNL     1       4.654   3.854  18.343  0.00  0.00    +0.000 C 
ATOM     13  C   UNL     1       4.868   4.252  16.885  0.00  0.00    +0.000 C 
ATOM     14  C   UNL     1       5.947   5.298  16.982  0.00  0.00    +0.000 C 
ATOM     15  C   UNL     1       6.819   4.745  18.092  0.00  0.00    +0.000 C 
ATOM     16  O   UNL     1       5.946   4.015  18.980  0.00  0.00    +0.000 OA
BRANCH  15  17
ATOM     17  C   UNL     1       7.555   5.849  18.854  0.00  0.00    +0.000 C 
BRANCH  17  18
ATOM     18  O   UNL     1       7.787   5.463  20.205  0.00  0.00    +0.000 OA
ATOM     19  H   UNL     1       6.964   5.659  20.692  0.00  0.00    +0.000 HD
ENDBRANCH  17  18
ENDBRANCH  15  17
ENDBRANCH   6  12
TORSDOF 3
ENDMDL
MODEL 9
REMARK VINA RESULT:      -6.6      2.581      5.864
REMARK  Name = 
REMARK  4 active torsions:
REMARK  status: ('A' for Active; 'I' for Inactive)
REMARK    1  A    between atoms: C_1  and  C_2
REMARK    2  A    between atoms: N_6  and  C_7
REMARK    3  A    between atoms: C_10  and  C_11
REMARK    4  A    between atoms: C_11  and  O_12
REMARK                            x       y       z     vdW  Elec       q    Type
REMARK                         _______ _______ _______ _____ _____    ______ ____
ROOT
ATOM      1  C   UNL     1       1.629   2.504  21.892  0.00  0.00    +0.000 C 
ATOM      2  C   UNL     1       2.216   3.466  20.925  0.00  0.00    +0.000 A 
ATOM      3  C   UNL     1       3.175   3.219  20.029  0.00  0.00    +0.000 A 
ATOM      4  C   UNL     1       3.336   4.450  19.365  0.00  0.00    +0.000 A 
ATOM      5  C   UNL     1       4.100   4.894  18.380  0.00  0.00    +0.000 A 
ATOM      6  N   UNL     1       3.987   6.207  17.950  0.00  0.00    +0.000 N 
ATOM      7  C   UNL     1       3.020   7.081  18.508  0.00  0.00    +0.000 A 
ATOM      8  O   UNL     1       2.870   8.216  18.050  0.00  0.00    +0.000 OA
ATOM      9  N   UNL     1       2.244   6.645  19.564  0.00  0.00    +0.000 NA
ATOM     10  C   UNL     1       2.411   5.426  19.922  0.00  0.00    +0.000 A 
ATOM     11  O   UNL     1       1.711   4.794  20.927  0.00  0.00    +0.000 OA
ENDROOT
BRANCH   6  12
ATOM     12  C   UNL     1       4.747   6.690  16.795  0.00  0.00    +0.000 C 
ATOM     13  C   UNL     1       5.893   7.639  17.136  0.00  0.00    +0.000 C 
ATOM     14  C   UNL     1       7.052   6.699  17.341  0.00  0.00    +0.000 C 
ATOM     15  C   UNL     1       6.796   5.650  16.277  0.00  0.00    +0.000 C 
ATOM     16  O   UNL     1       5.363   5.571  16.109  0.00  0.00    +0.000 OA
BRANCH  15  17
ATOM     17  C   UNL     1       7.364   4.283  16.663  0.00  0.00    +0.000 C 
BRANCH  17  18
ATOM     18  O   UNL     1       7.516   4.179  18.076  0.00  0.00    +0.000 OA
ATOM     19  H   UNL     1       6.746   4.632  18.468  0.00  0.00    +0.000 HD
ENDBRANCH  17  18
ENDBRANCH  15  17
ENDBRANCH   6  12
TORSDOF 3
ENDMDL
