MODEL 1
REMARK VINA RESULT:      -8.3      0.000      0.000
REMARK  Name = 
REMARK  6 active torsions:
REMARK  status: ('A' for Active; 'I' for Inactive)
REMARK    1  A    between atoms: N_3  and  C_4
REMARK    2  A    between atoms: C_4  and  C_5
REMARK    3  A    between atoms: C_5  and  N_6
REMARK    4  A    between atoms: C_5  and  C_16
REMARK    5  A    between atoms: N_9  and  C_10
REMARK    6  A    between atoms: N_19  and  C_20
REMARK                            x       y       z     vdW  Elec       q    Type
REMARK                         _______ _______ _______ _____ _____    ______ ____
ROOT
ATOM      1  C   UNL     1       2.947   4.479  19.336  0.00  0.00    +0.000 C 
ENDROOT
BRANCH   1   2
ATOM      2  N   UNL     1       2.502   5.420  20.361  0.00  0.00    +0.000 N 
ATOM      3  C   UNL     1       2.179   6.707  20.007  0.00  0.00    +0.000 C 
ATOM      4  O   UNL     1       2.341   7.107  18.858  0.00  0.00    +0.000 OA
ATOM      5  N   UNL     1       1.686   7.452  21.051  0.00  0.00    +0.000 N 
ATOM      6  H   UNL     1       2.136   5.038  21.222  0.00  0.00    +0.000 HD
ATOM      7  H   UNL     1       1.919   7.118  21.976  0.00  0.00    +0.000 HD
BRANCH   5   8
ATOM      8  C   UNL     1       1.192   8.772  20.928  0.00  0.00    +0.000 A 
ATOM      9  C   UNL     1       0.901   9.370  19.702  0.00  0.00    +0.000 A 
ATOM     10  C   UNL     1       0.486  10.698  19.646  0.00  0.00    +0.000 A 
ATOM     11  C   UNL     1       0.347  11.390  20.834  0.00  0.00    +0.000 A 
ATOM     12  N   UNL     1       0.566  10.842  22.048  0.00  0.00    +0.000 NA
ATOM     13  C   UNL     1       0.978   9.548  22.065  0.00  0.00    +0.000 A 
ENDBRANCH   5   8
ENDBRANCH   1   2
BRANCH   1  14
ATOM     14  C   UNL     1       2.212   3.169  19.558  0.00  0.00    +0.000 C 
ATOM     15  C   UNL     1       0.733   3.157  19.862  0.00  0.00    +0.000 C 
ATOM     16  C   UNL     1       1.237   2.552  18.581  0.00  0.00    +0.000 C 
ENDBRANCH   1  14
BRANCH   1  17
ATOM     17  C   UNL     1       4.485   4.347  19.271  0.00  0.00    +0.000 C 
BRANCH  17  20
ATOM     18  O   UNL     1       5.016   5.593  16.842  0.00  0.00    +0.000 OA
ATOM     19  C   UNL     1       5.259   4.395  16.934  0.00  0.00    +0.000 C 
ATOM     20  N   UNL     1       4.982   3.675  18.076  0.00  0.00    +0.000 N 
ATOM     21  N   UNL     1       5.837   3.596  15.971  0.00  0.00    +0.000 N 
ATOM     22  H   UNL     1       5.490   2.816  18.214  0.00  0.00    +0.000 HD
ATOM     23  H   UNL     1       5.772   2.600  16.127  0.00  0.00    +0.000 HD
BRANCH  21  24
ATOM     24  C   UNL     1       6.359   4.009  14.726  0.00  0.00    +0.000 A 
ATOM     25  C   UNL     1       5.935   3.515  13.496  0.00  0.00    +0.000 A 
ATOM     26  C   UNL     1       6.530   3.971  12.320  0.00  0.00    +0.000 A 
ATOM     27  C   UNL     1       7.527   4.926  12.410  0.00  0.00    +0.000 A 
ATOM     28  N   UNL     1       7.952   5.452  13.577  0.00  0.00    +0.000 NA
ATOM     29  C   UNL     1       7.359   4.982  14.701  0.00  0.00    +0.000 A 
ENDBRANCH  21  24
ENDBRANCH  17  20
ENDBRANCH   1  17
TORSDOF 6
ENDMDL
MODEL 2
REMARK VINA RESULT:      -7.9      1.012      1.131
REMARK  Name = 
REMARK  6 active torsions:
REMARK  status: ('A' for Active; 'I' for Inactive)
REMARK    1  A    between atoms: N_3  and  C_4
REMARK    2  A    between atoms: C_4  and  C_5
REMARK    3  A    between atoms: C_5  and  N_6
REMARK    4  A    between atoms: C_5  and  C_16
REMARK    5  A    between atoms: N_9  and  C_10
REMARK    6  A    between atoms: N_19  and  C_20
REMARK                            x       y       z     vdW  Elec       q    Type
REMARK                         _______ _______ _______ _____ _____    ______ ____
ROOT
ATOM      1  C   UNL     1       2.589   5.505  19.543  0.00  0.00    +0.000 C 
ENDROOT
BRANCH   1   2
ATOM      2  N   UNL     1       2.267   6.304  20.723  0.00  0.00    +0.000 N 
ATOM      3  C   UNL     1       1.725   7.557  20.568  0.00  0.00    +0.000 C 
ATOM      4  O   UNL     1       1.589   8.053  19.454  0.00  0.00    +0.000 OA
ATOM      5  N   UNL     1       1.385   8.154  21.758  0.00  0.00    +0.000 N 
ATOM      6  H   UNL     1       2.142   5.817  21.600  0.00  0.00    +0.000 HD
ATOM      7  H   UNL     1       1.849   7.792  22.579  0.00  0.00    +0.000 HD
BRANCH   5   8
ATOM      8  C   UNL     1       0.724   9.400  21.866  0.00  0.00    +0.000 A 
ATOM      9  C   UNL     1       0.894  10.440  20.951  0.00  0.00    +0.000 A 
ATOM     10  C   UNL     1       0.269  11.667  21.155  0.00  0.00    +0.000 A 
ATOM     11  C   UNL     1      -0.539  11.814  22.266  0.00  0.00    +0.000 A 
ATOM     12  N   UNL     1      -0.776  10.823  23.152  0.00  0.00    +0.000 NA
ATOM     13  C   UNL     1      -0.144   9.642  22.928  0.00  0.00    +0.000 A 
ENDBRANCH   5   8
ENDBRANCH   1   2
BRANCH   1  14
ATOM     14  C   UNL     1       2.320   4.050  19.879  0.00  0.00    +0.000 C 
ATOM     15  C   UNL     1       1.136   3.662  20.734  0.00  0.00    +0.000 C 
ATOM     16  C   UNL     1       1.195   3.224  19.297  0.00  0.00    +0.000 C 
ENDBRANCH   1  14
BRANCH   1  17
ATOM     17  C   UNL     1       4.008   5.785  18.999  0.00  0.00    +0.000 C 
BRANCH  17  20
ATOM     18  O   UNL     1       4.872   6.481  16.449  0.00  0.00    +0.000 OA
ATOM     19  C   UNL     1       4.915   5.296  16.762  0.00  0.00    +0.000 C 
ATOM     20  N   UNL     1       4.459   4.843  17.982  0.00  0.00    +0.000 N 
ATOM     21  N   UNL     1       5.413   4.261  16.002  0.00  0.00    +0.000 N 
ATOM     22  H   UNL     1       4.815   3.958  18.306  0.00  0.00    +0.000 HD
ATOM     23  H   UNL     1       5.180   3.330  16.318  0.00  0.00    +0.000 HD
BRANCH  21  24
ATOM     24  C   UNL     1       6.066   4.361  14.755  0.00  0.00    +0.000 A 
ATOM     25  C   UNL     1       5.667   3.686  13.605  0.00  0.00    +0.000 A 
ATOM     26  C   UNL     1       6.394   3.834  12.423  0.00  0.00    +0.000 A 
ATOM     27  C   UNL     1       7.495   4.671  12.424  0.00  0.00    +0.000 A 
ATOM     28  N   UNL     1       7.904   5.364  13.506  0.00  0.00    +0.000 NA
ATOM     29  C   UNL     1       7.181   5.193  14.640  0.00  0.00    +0.000 A 
ENDBRANCH  21  24
ENDBRANCH  17  20
ENDBRANCH   1  17
TORSDOF 6
ENDMDL
MODEL 3
REMARK VINA RESULT:      -7.8      1.113      8.668
REMARK  Name = 
REMARK  6 active torsions:
REMARK  status: ('A' for Active; 'I' for Inactive)
REMARK    1  A    between atoms: N_3  and  C_4
REMARK    2  A    between atoms: C_4  and  C_5
REMARK    3  A    between atoms: C_5  and  N_6
REMARK    4  A    between atoms: C_5  and  C_16
REMARK    5  A    between atoms: N_9  and  C_10
REMARK    6  A    between atoms: N_19  and  C_20
REMARK                            x       y       z     vdW  Elec       q    Type
REMARK                         _______ _______ _______ _____ _____    ______ ____
ROOT
ATOM      1  C   UNL     1       3.010   4.189  19.459  0.00  0.00    +0.000 C 
ENDROOT
BRANCH   1   2
ATOM      2  N   UNL     1       4.045   3.579  18.626  0.00  0.00    +0.000 N 
ATOM      3  C   UNL     1       4.390   4.167  17.434  0.00  0.00    +0.000 C 
ATOM      4  O   UNL     1       3.783   5.146  17.012  0.00  0.00    +0.000 OA
ATOM      5  N   UNL     1       5.440   3.543  16.804  0.00  0.00    +0.000 N 
ATOM      6  H   UNL     1       4.697   2.950  19.074  0.00  0.00    +0.000 HD
ATOM      7  H   UNL     1       5.612   2.587  17.080  0.00  0.00    +0.000 HD
BRANCH   5   8
ATOM      8  C   UNL     1       6.047   4.008  15.613  0.00  0.00    +0.000 A 
ATOM      9  C   UNL     1       5.694   3.549  14.343  0.00  0.00    +0.000 A 
ATOM     10  C   UNL     1       6.381   3.995  13.217  0.00  0.00    +0.000 A 
ATOM     11  C   UNL     1       7.394   4.918  13.391  0.00  0.00    +0.000 A 
ATOM     12  N   UNL     1       7.739   5.431  14.591  0.00  0.00    +0.000 NA
ATOM     13  C   UNL     1       7.055   4.968  15.670  0.00  0.00    +0.000 A 
ENDBRANCH   5   8
ENDBRANCH   1   2
BRANCH   1  14
ATOM     14  C   UNL     1       1.667   3.662  18.991  0.00  0.00    +0.000 C 
ATOM     15  C   UNL     1       1.443   2.180  18.805  0.00  0.00    +0.000 C 
ATOM     16  C   UNL     1       0.679   2.923  19.866  0.00  0.00    +0.000 C 
ENDBRANCH   1  14
BRANCH   1  17
ATOM     17  C   UNL     1       3.112   5.730  19.507  0.00  0.00    +0.000 C 
BRANCH  17  20
ATOM     18  O   UNL     1       2.122   8.329  19.487  0.00  0.00    +0.000 OA
ATOM     19  C   UNL     1       1.875   7.632  20.465  0.00  0.00    +0.000 C 
ATOM     20  N   UNL     1       2.365   6.349  20.595  0.00  0.00    +0.000 N 
ATOM     21  N   UNL     1       1.094   7.977  21.546  0.00  0.00    +0.000 N 
ATOM     22  H   UNL     1       1.877   5.731  21.223  0.00  0.00    +0.000 HD
ATOM     23  H   UNL     1       1.167   7.374  22.353  0.00  0.00    +0.000 HD
BRANCH  21  24
ATOM     24  C   UNL     1       0.336   9.157  21.704  0.00  0.00    +0.000 A 
ATOM     25  C   UNL     1      -0.249   9.859  20.654  0.00  0.00    +0.000 A 
ATOM     26  C   UNL     1      -0.962  11.030  20.911  0.00  0.00    +0.000 A 
ATOM     27  C   UNL     1      -1.082  11.457  22.221  0.00  0.00    +0.000 A 
ATOM     28  N   UNL     1      -0.556  10.797  23.272  0.00  0.00    +0.000 NA
ATOM     29  C   UNL     1       0.138   9.667  22.987  0.00  0.00    +0.000 A 
ENDBRANCH  21  24
ENDBRANCH  17  20
ENDBRANCH   1  17
TORSDOF 6
ENDMDL
MODEL 4
REMARK VINA RESULT:      -7.8      1.324      1.764
REMARK  Name = 
REMARK  6 active torsions:
REMARK  status: ('A' for Active; 'I' for Inactive)
REMARK    1  A    between atoms: N_3  and  C_4
REMARK    2  A    between atoms: C_4  and  C_5
REMARK    3  A    between atoms: C_5  and  N_6
REMARK    4  A    between atoms: C_5  and  C_16
REMARK    5  A    between atoms: N_9  and  C_10
REMARK    6  A    between atoms: N_19  and  C_20
REMARK                            x       y       z     vdW  Elec       q    Type
REMARK                         _______ _______ _______ _____ _____    ______ ____
ROOT
ATOM      1  C   UNL     1       2.667   5.788  19.168  0.00  0.00    +0.000 C 
ENDROOT
BRANCH   1   2
ATOM      2  N   UNL     1       2.414   6.462  20.440  0.00  0.00    +0.000 N 
ATOM      3  C   UNL     1       1.773   7.676  20.449  0.00  0.00    +0.000 C 
ATOM      4  O   UNL     1       1.488   8.249  19.403  0.00  0.00    +0.000 OA
ATOM      5  N   UNL     1       1.517   8.146  21.715  0.00  0.00    +0.000 N 
ATOM      6  H   UNL     1       2.415   5.897  21.278  0.00  0.00    +0.000 HD
ATOM      7  H   UNL     1       2.087   7.757  22.452  0.00  0.00    +0.000 HD
BRANCH   5   8
ATOM      8  C   UNL     1       0.785   9.325  21.996  0.00  0.00    +0.000 A 
ATOM      9  C   UNL     1      -0.257   9.377  22.922  0.00  0.00    +0.000 A 
ATOM     10  C   UNL     1      -0.984  10.551  23.099  0.00  0.00    +0.000 A 
ATOM     11  C   UNL     1      -0.627  11.661  22.357  0.00  0.00    +0.000 A 
ATOM     12  N   UNL     1       0.406  11.676  21.487  0.00  0.00    +0.000 NA
ATOM     13  C   UNL     1       1.088  10.511  21.332  0.00  0.00    +0.000 A 
ENDBRANCH   5   8
ENDBRANCH   1   2
BRANCH   1  14
ATOM     14  C   UNL     1       2.320   4.321  19.342  0.00  0.00    +0.000 C 
ATOM     15  C   UNL     1       1.054   3.908  20.055  0.00  0.00    +0.000 C 
ATOM     16  C   UNL     1       1.222   3.601  18.592  0.00  0.00    +0.000 C 
ENDBRANCH   1  14
BRANCH   1  17
ATOM     17  C   UNL     1       4.090   6.049  18.625  0.00  0.00    +0.000 C 
BRANCH  17  20
ATOM     18  O   UNL     1       4.890   6.558  16.011  0.00  0.00    +0.000 OA
ATOM     19  C   UNL     1       4.989   5.408  16.424  0.00  0.00    +0.000 C 
ATOM     20  N   UNL     1       4.570   5.043  17.686  0.00  0.00    +0.000 N 
ATOM     21  N   UNL     1       5.523   4.333  15.747  0.00  0.00    +0.000 N 
ATOM     22  H   UNL     1       4.969   4.205  18.079  0.00  0.00    +0.000 HD
ATOM     23  H   UNL     1       5.336   3.424  16.147  0.00  0.00    +0.000 HD
BRANCH  21  24
ATOM     24  C   UNL     1       6.155   4.353  14.486  0.00  0.00    +0.000 A 
ATOM     25  C   UNL     1       7.280   5.116  14.185  0.00  0.00    +0.000 A 
ATOM     26  C   UNL     1       7.819   5.084  12.899  0.00  0.00    +0.000 A 
ATOM     27  C   UNL     1       7.223   4.271  11.951  0.00  0.00    +0.000 A 
ATOM     28  N   UNL     1       6.149   3.496  12.204  0.00  0.00    +0.000 NA
ATOM     29  C   UNL     1       5.645   3.556  13.461  0.00  0.00    +0.000 A 
ENDBRANCH  21  24
ENDBRANCH  17  20
ENDBRANCH   1  17
TORSDOF 6
ENDMDL
MODEL 5
REMARK VINA RESULT:      -7.7      4.565      7.147
REMARK  Name = 
REMARK  6 active torsions:
REMARK  status: ('A' for Active; 'I' for Inactive)
REMARK    1  A    between atoms: N_3  and  C_4
REMARK    2  A    between atoms: C_4  and  C_5
REMARK    3  A    between atoms: C_5  and  N_6
REMARK    4  A    between atoms: C_5  and  C_16
REMARK    5  A    between atoms: N_9  and  C_10
REMARK    6  A    between atoms: N_19  and  C_20
REMARK                            x       y       z     vdW  Elec       q    Type
REMARK                         _______ _______ _______ _____ _____    ______ ____
ROOT
ATOM      1  C   UNL     1       6.450   4.986  16.280  0.00  0.00    +0.000 C 
ENDROOT
BRANCH   1   2
ATOM      2  N   UNL     1       5.802   3.858  16.945  0.00  0.00    +0.000 N 
ATOM      3  C   UNL     1       4.869   4.093  17.925  0.00  0.00    +0.000 C 
ATOM      4  O   UNL     1       4.634   5.232  18.315  0.00  0.00    +0.000 OA
ATOM      5  N   UNL     1       4.273   2.948  18.395  0.00  0.00    +0.000 N 
ATOM      6  H   UNL     1       5.803   2.968  16.467  0.00  0.00    +0.000 HD
ATOM      7  H   UNL     1       4.784   2.091  18.238  0.00  0.00    +0.000 HD
BRANCH   5   8
ATOM      8  C   UNL     1       3.215   2.925  19.334  0.00  0.00    +0.000 A 
ATOM      9  C   UNL     1       3.416   2.870  20.713  0.00  0.00    +0.000 A 
ATOM     10  C   UNL     1       2.330   2.777  21.581  0.00  0.00    +0.000 A 
ATOM     11  C   UNL     1       1.059   2.770  21.039  0.00  0.00    +0.000 A 
ATOM     12  N   UNL     1       0.810   2.874  19.716  0.00  0.00    +0.000 NA
ATOM     13  C   UNL     1       1.892   2.953  18.898  0.00  0.00    +0.000 A 
ENDBRANCH   5   8
ENDBRANCH   1   2
BRANCH   1  14
ATOM     14  C   UNL     1       7.039   4.481  14.975  0.00  0.00    +0.000 C 
ATOM     15  C   UNL     1       6.166   3.797  13.950  0.00  0.00    +0.000 C 
ATOM     16  C   UNL     1       6.808   5.117  13.623  0.00  0.00    +0.000 C 
ENDBRANCH   1  14
BRANCH   1  17
ATOM     17  C   UNL     1       7.456   5.722  17.193  0.00  0.00    +0.000 C 
BRANCH  17  20
ATOM     18  O   UNL     1       8.556   7.510  19.017  0.00  0.00    +0.000 OA
ATOM     19  C   UNL     1       8.066   7.970  17.992  0.00  0.00    +0.000 C 
ATOM     20  N   UNL     1       7.449   7.173  17.052  0.00  0.00    +0.000 N 
ATOM     21  N   UNL     1       8.056   9.293  17.606  0.00  0.00    +0.000 N 
ATOM     22  H   UNL     1       7.371   7.540  16.117  0.00  0.00    +0.000 HD
ATOM     23  H   UNL     1       7.432   9.526  16.847  0.00  0.00    +0.000 HD
BRANCH  21  24
ATOM     24  C   UNL     1       8.694  10.372  18.255  0.00  0.00    +0.000 A 
ATOM     25  C   UNL     1       8.851  11.638  17.699  0.00  0.00    +0.000 A 
ATOM     26  C   UNL     1       9.516  12.634  18.413  0.00  0.00    +0.000 A 
ATOM     27  C   UNL     1       9.994  12.336  19.677  0.00  0.00    +0.000 A 
ATOM     28  N   UNL     1       9.843  11.133  20.266  0.00  0.00    +0.000 NA
ATOM     29  C   UNL     1       9.199  10.184  19.542  0.00  0.00    +0.000 A 
ENDBRANCH  21  24
ENDBRANCH  17  20
ENDBRANCH   1  17
TORSDOF 6
ENDMDL
MODEL 6
REMARK VINA RESULT:      -7.7      5.498      7.594
REMARK  Name = 
REMARK  6 active torsions:
REMARK  status: ('A' for Active; 'I' for Inactive)
REMARK    1  A    between atoms: N_3  and  C_4
REMARK    2  A    between atoms: C_4  and  C_5
REMARK    3  A    between atoms: C_5  and  N_6
REMARK    4  A    between atoms: C_5  and  C_16
REMARK    5  A    between atoms: N_9  and  C_10
REMARK    6  A    between atoms: N_19  and  C_20
REMARK                            x       y       z     vdW  Elec       q    Type
REMARK                         _______ _______ _______ _____ _____    ______ ____
ROOT
ATOM      1  C   UNL     1       6.795   6.639  17.490  0.00  0.00    +0.000 C 
ENDROOT
BRANCH   1   2
ATOM      2  N   UNL     1       6.279   5.626  18.407  0.00  0.00    +0.000 N 
ATOM      3  C   UNL     1       4.922   5.454  18.534  0.00  0.00    +0.000 C 
ATOM      4  O   UNL     1       4.133   6.197  17.958  0.00  0.00    +0.000 OA
ATOM      5  N   UNL     1       4.581   4.406  19.355  0.00  0.00    +0.000 N 
ATOM      6  H   UNL     1       6.899   4.874  18.673  0.00  0.00    +0.000 HD
ATOM      7  H   UNL     1       5.293   4.110  20.007  0.00  0.00    +0.000 HD
BRANCH   5   8
ATOM      8  C   UNL     1       3.255   3.962  19.574  0.00  0.00    +0.000 A 
ATOM      9  C   UNL     1       2.408   4.520  20.532  0.00  0.00    +0.000 A 
ATOM     10  C   UNL     1       1.139   3.988  20.747  0.00  0.00    +0.000 A 
ATOM     11  C   UNL     1       0.738   2.918  19.969  0.00  0.00    +0.000 A 
ATOM     12  N   UNL     1       1.499   2.377  18.995  0.00  0.00    +0.000 NA
ATOM     13  C   UNL     1       2.735   2.913  18.819  0.00  0.00    +0.000 A 
ENDBRANCH   5   8
ENDBRANCH   1   2
BRANCH   1  14
ATOM     14  C   UNL     1       7.187   5.942  16.200  0.00  0.00    +0.000 C 
ATOM     15  C   UNL     1       7.038   4.446  16.057  0.00  0.00    +0.000 C 
ATOM     16  C   UNL     1       6.210   5.365  15.202  0.00  0.00    +0.000 C 
ENDBRANCH   1  14
BRANCH   1  17
ATOM     17  C   UNL     1       7.914   7.501  18.118  0.00  0.00    +0.000 C 
BRANCH  17  20
ATOM     18  O   UNL     1       9.279   9.564  19.387  0.00  0.00    +0.000 OA
ATOM     19  C   UNL     1       8.669   9.832  18.358  0.00  0.00    +0.000 C 
ATOM     20  N   UNL     1       7.918   8.892  17.685  0.00  0.00    +0.000 N 
ATOM     21  N   UNL     1       8.637  11.049  17.714  0.00  0.00    +0.000 N 
ATOM     22  H   UNL     1       7.727   9.067  16.711  0.00  0.00    +0.000 HD
ATOM     23  H   UNL     1       7.924  11.154  17.006  0.00  0.00    +0.000 HD
BRANCH  21  24
ATOM     24  C   UNL     1       9.376  12.205  18.044  0.00  0.00    +0.000 A 
ATOM     25  C   UNL     1      10.602  12.540  17.475  0.00  0.00    +0.000 A 
ATOM     26  C   UNL     1      11.267  13.696  17.885  0.00  0.00    +0.000 A 
ATOM     27  C   UNL     1      10.673  14.495  18.847  0.00  0.00    +0.000 A 
ATOM     28  N   UNL     1       9.477  14.225  19.406  0.00  0.00    +0.000 NA
ATOM     29  C   UNL     1       8.861  13.090  18.991  0.00  0.00    +0.000 A 
ENDBRANCH  21  24
ENDBRANCH  17  20
ENDBRANCH   1  17
TORSDOF 6
ENDMDL
MODEL 7
REMARK VINA RESULT:      -7.6      4.773      7.139
REMARK  Name = 
REMARK  6 active torsions:
REMARK  status: ('A' for Active; 'I' for Inactive)
REMARK    1  A    between atoms: N_3  and  C_4
REMARK    2  A    between atoms: C_4  and  C_5
REMARK    3  A    between atoms: C_5  and  N_6
REMARK    4  A    between atoms: C_5  and  C_16
REMARK    5  A    between atoms: N_9  and  C_10
REMARK    6  A    between atoms: N_19  and  C_20
REMARK                            x       y       z     vdW  Elec       q    Type
REMARK                         _______ _______ _______ _____ _____    ______ ____
ROOT
ATOM      1  C   UNL     1       6.186   5.837  15.986  0.00  0.00    +0.000 C 
ENDROOT
BRANCH   1   2
ATOM      2  N   UNL     1       4.852   5.360  16.345  0.00  0.00    +0.000 N 
ATOM      3  C   UNL     1       4.649   4.768  17.568  0.00  0.00    +0.000 C 
ATOM      4  O   UNL     1       5.587   4.553  18.329  0.00  0.00    +0.000 OA
ATOM      5  N   UNL     1       3.333   4.457  17.810  0.00  0.00    +0.000 N 
ATOM      6  H   UNL     1       4.064   5.753  15.850  0.00  0.00    +0.000 HD
ATOM      7  H   UNL     1       2.744   4.378  16.994  0.00  0.00    +0.000 HD
BRANCH   5   8
ATOM      8  C   UNL     1       2.849   3.929  19.031  0.00  0.00    +0.000 A 
ATOM      9  C   UNL     1       1.656   4.343  19.624  0.00  0.00    +0.000 A 
ATOM     10  C   UNL     1       1.272   3.836  20.863  0.00  0.00    +0.000 A 
ATOM     11  C   UNL     1       2.088   2.898  21.467  0.00  0.00    +0.000 A 
ATOM     12  N   UNL     1       3.224   2.427  20.910  0.00  0.00    +0.000 NA
ATOM     13  C   UNL     1       3.574   2.950  19.706  0.00  0.00    +0.000 A 
ENDBRANCH   5   8
ENDBRANCH   1   2
BRANCH   1  14
ATOM     14  C   UNL     1       6.867   4.748  15.177  0.00  0.00    +0.000 C 
ATOM     15  C   UNL     1       6.072   3.880  14.230  0.00  0.00    +0.000 C 
ATOM     16  C   UNL     1       7.120   4.812  13.688  0.00  0.00    +0.000 C 
ENDBRANCH   1  14
BRANCH   1  17
ATOM     17  C   UNL     1       6.995   6.328  17.207  0.00  0.00    +0.000 C 
BRANCH  17  20
ATOM     18  O   UNL     1       8.704   7.630  18.971  0.00  0.00    +0.000 OA
ATOM     19  C   UNL     1       8.142   8.307  18.118  0.00  0.00    +0.000 C 
ATOM     20  N   UNL     1       7.235   7.765  17.232  0.00  0.00    +0.000 N 
ATOM     21  N   UNL     1       8.315   9.655  17.890  0.00  0.00    +0.000 N 
ATOM     22  H   UNL     1       7.070   8.270  16.376  0.00  0.00    +0.000 HD
ATOM     23  H   UNL     1       7.625  10.094  17.297  0.00  0.00    +0.000 HD
BRANCH  21  24
ATOM     24  C   UNL     1       9.245  10.510  18.520  0.00  0.00    +0.000 A 
ATOM     25  C   UNL     1      10.224  11.234  17.846  0.00  0.00    +0.000 A 
ATOM     26  C   UNL     1      11.112  12.037  18.561  0.00  0.00    +0.000 A 
ATOM     27  C   UNL     1      10.982  12.104  19.937  0.00  0.00    +0.000 A 
ATOM     28  N   UNL     1      10.034  11.443  20.629  0.00  0.00    +0.000 NA
ATOM     29  C   UNL     1       9.191  10.665  19.905  0.00  0.00    +0.000 A 
ENDBRANCH  21  24
ENDBRANCH  17  20
ENDBRANCH   1  17
TORSDOF 6
ENDMDL
MODEL 8
REMARK VINA RESULT:      -7.6      1.833      8.361
REMARK  Name = 
REMARK  6 active torsions:
REMARK  status: ('A' for Active; 'I' for Inactive)
REMARK    1  A    between atoms: N_3  and  C_4
REMARK    2  A    between atoms: C_4  and  C_5
REMARK    3  A    between atoms: C_5  and  N_6
REMARK    4  A    between atoms: C_5  and  C_16
REMARK    5  A    between atoms: N_9  and  C_10
REMARK    6  A    between atoms: N_19  and  C_20
REMARK                            x       y       z     vdW  Elec       q    Type
REMARK                         _______ _______ _______ _____ _____    ______ ____
ROOT
ATOM      1  C   UNL     1       2.063   5.297  20.480  0.00  0.00    +0.000 C 
ENDROOT
BRANCH   1   2
ATOM      2  N   UNL     1       2.380   5.586  19.084  0.00  0.00    +0.000 N 
ATOM      3  C   UNL     1       3.649   5.354  18.613  0.00  0.00    +0.000 C 
ATOM      4  O   UNL     1       4.547   4.992  19.367  0.00  0.00    +0.000 OA
ATOM      5  N   UNL     1       3.779   5.579  17.264  0.00  0.00    +0.000 N 
ATOM      6  H   UNL     1       1.611   5.635  18.429  0.00  0.00    +0.000 HD
ATOM      7  H   UNL     1       3.079   6.178  16.850  0.00  0.00    +0.000 HD
BRANCH   5   8
ATOM      8  C   UNL     1       4.955   5.322  16.520  0.00  0.00    +0.000 A 
ATOM      9  C   UNL     1       5.107   4.216  15.684  0.00  0.00    +0.000 A 
ATOM     10  C   UNL     1       6.318   3.983  15.036  0.00  0.00    +0.000 A 
ATOM     11  C   UNL     1       7.345   4.888  15.224  0.00  0.00    +0.000 A 
ATOM     12  N   UNL     1       7.231   6.000  15.981  0.00  0.00    +0.000 NA
ATOM     13  C   UNL     1       6.040   6.192  16.606  0.00  0.00    +0.000 A 
ENDBRANCH   5   8
ENDBRANCH   1   2
BRANCH   1  14
ATOM     14  C   UNL     1       1.045   4.172  20.503  0.00  0.00    +0.000 C 
ATOM     15  C   UNL     1       1.245   2.934  19.661  0.00  0.00    +0.000 C 
ATOM     16  C   UNL     1       1.260   2.828  21.161  0.00  0.00    +0.000 C 
ENDBRANCH   1  14
BRANCH   1  17
ATOM     17  C   UNL     1       1.644   6.556  21.273  0.00  0.00    +0.000 C 
BRANCH  17  20
ATOM     18  O   UNL     1      -0.221   8.613  21.412  0.00  0.00    +0.000 OA
ATOM     19  C   UNL     1       0.755   8.776  20.688  0.00  0.00    +0.000 C 
ATOM     20  N   UNL     1       1.708   7.796  20.509  0.00  0.00    +0.000 N 
ATOM     21  N   UNL     1       1.069   9.911  19.974  0.00  0.00    +0.000 N 
ATOM     22  H   UNL     1       2.618   8.091  20.193  0.00  0.00    +0.000 HD
ATOM     23  H   UNL     1       1.786   9.805  19.270  0.00  0.00    +0.000 HD
BRANCH  21  24
ATOM     24  C   UNL     1       0.392  11.150  20.006  0.00  0.00    +0.000 A 
ATOM     25  C   UNL     1      -0.746  11.440  19.259  0.00  0.00    +0.000 A 
ATOM     26  C   UNL     1      -1.330  12.704  19.344  0.00  0.00    +0.000 A 
ATOM     27  C   UNL     1      -0.763  13.640  20.190  0.00  0.00    +0.000 A 
ATOM     28  N   UNL     1       0.323  13.395  20.952  0.00  0.00    +0.000 NA
ATOM     29  C   UNL     1       0.871  12.160  20.840  0.00  0.00    +0.000 A 
ENDBRANCH  21  24
ENDBRANCH  17  20
ENDBRANCH   1  17
TORSDOF 6
ENDMDL
MODEL 9
REMARK VINA RESULT:      -7.6      1.489      8.698
REMARK  Name = 
REMARK  6 active torsions:
REMARK  status: ('A' for Active; 'I' for Inactive)
REMARK    1  A    between atoms: N_3  and  C_4
REMARK    2  A    between atoms: C_4  and  C_5
REMARK    3  A    between atoms: C_5  and  N_6
REMARK    4  A    between atoms: C_5  and  C_16
REMARK    5  A    between atoms: N_9  and  C_10
REMARK    6  A    between atoms: N_19  and  C_20
REMARK                            x       y       z     vdW  Elec       q    Type
REMARK                         _______ _______ _______ _____ _____    ______ ____
ROOT
ATOM      1  C   UNL     1       2.855   4.607  20.338  0.00  0.00    +0.000 C 
ENDROOT
BRANCH   1   2
ATOM      2  N   UNL     1       3.985   4.040  19.606  0.00  0.00    +0.000 N 
ATOM      3  C   UNL     1       4.232   4.446  18.317  0.00  0.00    +0.000 C 
ATOM      4  O   UNL     1       3.467   5.211  17.738  0.00  0.00    +0.000 OA
ATOM      5  N   UNL     1       5.378   3.906  17.786  0.00  0.00    +0.000 N 
ATOM      6  H   UNL     1       4.733   3.626  20.144  0.00  0.00    +0.000 HD
ATOM      7  H   UNL     1       5.711   3.062  18.229  0.00  0.00    +0.000 HD
BRANCH   5   8
ATOM      8  C   UNL     1       5.903   4.239  16.514  0.00  0.00    +0.000 A 
ATOM      9  C   UNL     1       5.430   3.690  15.322  0.00  0.00    +0.000 A 
ATOM     10  C   UNL     1       6.039   4.006  14.110  0.00  0.00    +0.000 A 
ATOM     11  C   UNL     1       7.098   4.892  14.122  0.00  0.00    +0.000 A 
ATOM     12  N   UNL     1       7.560   5.490  15.241  0.00  0.00    +0.000 NA
ATOM     13  C   UNL     1       6.949   5.152  16.407  0.00  0.00    +0.000 A 
ENDBRANCH   5   8
ENDBRANCH   1   2
BRANCH   1  14
ATOM     14  C   UNL     1       1.661   3.694  20.128  0.00  0.00    +0.000 C 
ATOM     15  C   UNL     1       1.852   2.211  19.913  0.00  0.00    +0.000 C 
ATOM     16  C   UNL     1       1.145   2.702  21.146  0.00  0.00    +0.000 C 
ENDBRANCH   1  14
BRANCH   1  17
ATOM     17  C   UNL     1       2.597   6.089  19.987  0.00  0.00    +0.000 C 
BRANCH  17  20
ATOM     18  O   UNL     1       1.740   8.721  19.724  0.00  0.00    +0.000 OA
ATOM     19  C   UNL     1       1.375   8.099  20.715  0.00  0.00    +0.000 C 
ATOM     20  N   UNL     1       1.789   6.808  20.965  0.00  0.00    +0.000 N 
ATOM     21  N   UNL     1       0.520   8.545  21.699  0.00  0.00    +0.000 N 
ATOM     22  H   UNL     1       1.218   6.252  21.582  0.00  0.00    +0.000 HD
ATOM     23  H   UNL     1       0.493   7.992  22.544  0.00  0.00    +0.000 HD
BRANCH  21  24
ATOM     24  C   UNL     1      -0.190   9.765  21.718  0.00  0.00    +0.000 A 
ATOM     25  C   UNL     1      -0.546  10.447  22.878  0.00  0.00    +0.000 A 
ATOM     26  C   UNL     1      -1.268  11.637  22.793  0.00  0.00    +0.000 A 
ATOM     27  C   UNL     1      -1.602  12.120  21.540  0.00  0.00    +0.000 A 
ATOM     28  N   UNL     1      -1.257  11.508  20.389  0.00  0.00    +0.000 NA
ATOM     29  C   UNL     1      -0.562  10.350  20.507  0.00  0.00    +0.000 A 
ENDBRANCH  21  24
ENDBRANCH  17  20
ENDBRANCH   1  17
TORSDOF 6
ENDMDL
