MODEL 1
REMARK VINA RESULT:      -7.4      0.000      0.000
REMARK  Name = 
REMARK  9 active torsions:
REMARK  status: ('A' for Active; 'I' for Inactive)
REMARK    1  A    between atoms: C_1  and  C_2
REMARK    2  A    between atoms: N_5  and  C_6
REMARK    3  A    between atoms: C_6  and  C_7
REMARK    4  A    between atoms: C_7  and  C_8
REMARK    5  A    between atoms: C_8  and  C_9
REMARK    6  A    between atoms: C_8  and  N_10
REMARK    7  A    between atoms: N_10  and  C_11
REMARK    8  A    between atoms: N_10  and  S_12
REMARK    9  A    between atoms: S_12  and  C_15
REMARK                            x       y       z     vdW  Elec       q    Type
REMARK                         _______ _______ _______ _____ _____    ______ ____
ROOT
ATOM      1  N   UNL     1       0.725   9.266  19.925  0.00  0.00    +0.000 NA
ATOM      2  C   UNL     1       0.321   8.688  21.244  0.00  0.00    +0.000 C 
ENDROOT
BRANCH   1   3
ATOM      3  S   UNL     1       0.800  11.004  20.057  0.00  0.00    +0.000 S 
ATOM      4  O   UNL     1       1.205  11.353  21.399  0.00  0.00    +0.000 OA
ATOM      5  O   UNL     1       1.563  11.486  18.921  0.00  0.00    +0.000 OA
BRANCH   3   6
ATOM      6  C   UNL     1      -0.895  11.548  19.899  0.00  0.00    +0.000 A 
ATOM      7  C   UNL     1      -1.400  12.367  20.921  0.00  0.00    +0.000 A 
ATOM      8  C   UNL     1      -2.710  12.825  20.866  0.00  0.00    +0.000 A 
ATOM      9  C   UNL     1      -3.521  12.459  19.796  0.00  0.00    +0.000 A 
ATOM     10  C   UNL     1      -3.044  11.629  18.770  0.00  0.00    +0.000 A 
ATOM     11  C   UNL     1      -3.897  11.292  17.707  0.00  0.00    +0.000 A 
ATOM     12  C   UNL     1      -3.470  10.463  16.673  0.00  0.00    +0.000 A 
ATOM     13  C   UNL     1      -2.184   9.944  16.700  0.00  0.00    +0.000 A 
ATOM     14  C   UNL     1      -1.322  10.271  17.751  0.00  0.00    +0.000 A 
ATOM     15  C   UNL     1      -1.713  11.135  18.807  0.00  0.00    +0.000 A 
ENDBRANCH   3   6
ENDBRANCH   1   3
BRANCH   1  16
ATOM     16  C   UNL     1       1.955   8.568  19.334  0.00  0.00    +0.000 C 
ATOM     17  C   UNL     1       1.866   8.424  17.811  0.00  0.00    +0.000 C 
BRANCH  16  18
ATOM     18  C   UNL     1       2.125   7.152  19.941  0.00  0.00    +0.000 C 
BRANCH  18  19
ATOM     19  C   UNL     1       2.397   6.040  18.909  0.00  0.00    +0.000 C 
BRANCH  19  24
ATOM     20  C   UNL     1       5.307   4.561  15.553  0.00  0.00    +0.000 C 
ATOM     21  C   UNL     1       5.008   4.326  17.030  0.00  0.00    +0.000 C 
ATOM     22  C   UNL     1       3.585   3.779  17.214  0.00  0.00    +0.000 C 
ATOM     23  C   UNL     1       3.199   3.718  18.693  0.00  0.00    +0.000 C 
ATOM     24  N   UNL     1       3.338   5.011  19.383  0.00  0.00    +0.000 NA
ATOM     25  C   UNL     1       4.737   5.462  19.284  0.00  0.00    +0.000 C 
ATOM     26  C   UNL     1       5.226   5.611  17.841  0.00  0.00    +0.000 C 
ENDBRANCH  19  24
ENDBRANCH  18  19
ENDBRANCH  16  18
ENDBRANCH   1  16
TORSDOF 6
ENDMDL
MODEL 2
REMARK VINA RESULT:      -7.2      0.912      1.110
REMARK  Name = 
REMARK  9 active torsions:
REMARK  status: ('A' for Active; 'I' for Inactive)
REMARK    1  A    between atoms: C_1  and  C_2
REMARK    2  A    between atoms: N_5  and  C_6
REMARK    3  A    between atoms: C_6  and  C_7
REMARK    4  A    between atoms: C_7  and  C_8
REMARK    5  A    between atoms: C_8  and  C_9
REMARK    6  A    between atoms: C_8  and  N_10
REMARK    7  A    between atoms: N_10  and  C_11
REMARK    8  A    between atoms: N_10  and  S_12
REMARK    9  A    between atoms: S_12  and  C_15
REMARK                            x       y       z     vdW  Elec       q    Type
REMARK                         _______ _______ _______ _____ _____    ______ ____
ROOT
ATOM      1  N   UNL     1       0.516   8.979  20.311  0.00  0.00    +0.000 NA
ATOM      2  C   UNL     1      -0.220   8.650  21.571  0.00  0.00    +0.000 C 
ENDROOT
BRANCH   1   3
ATOM      3  S   UNL     1       0.750  10.705  20.216  0.00  0.00    +0.000 S 
ATOM      4  O   UNL     1       1.215  11.185  21.498  0.00  0.00    +0.000 OA
ATOM      5  O   UNL     1       1.530  10.965  19.020  0.00  0.00    +0.000 OA
BRANCH   3   6
ATOM      6  C   UNL     1      -0.891  11.379  20.006  0.00  0.00    +0.000 A 
ATOM      7  C   UNL     1      -1.375  12.211  21.028  0.00  0.00    +0.000 A 
ATOM      8  C   UNL     1      -2.644  12.767  20.933  0.00  0.00    +0.000 A 
ATOM      9  C   UNL     1      -3.435  12.487  19.823  0.00  0.00    +0.000 A 
ATOM     10  C   UNL     1      -2.980  11.647  18.796  0.00  0.00    +0.000 A 
ATOM     11  C   UNL     1      -3.812  11.399  17.692  0.00  0.00    +0.000 A 
ATOM     12  C   UNL     1      -3.405  10.564  16.654  0.00  0.00    +0.000 A 
ATOM     13  C   UNL     1      -2.163   9.950  16.719  0.00  0.00    +0.000 A 
ATOM     14  C   UNL     1      -1.323  10.187  17.810  0.00  0.00    +0.000 A 
ATOM     15  C   UNL     1      -1.692  11.054  18.872  0.00  0.00    +0.000 A 
ENDBRANCH   3   6
ENDBRANCH   1   3
BRANCH   1  16
ATOM     16  C   UNL     1       1.761   8.106  20.116  0.00  0.00    +0.000 C 
ATOM     17  C   UNL     1       2.172   8.000  18.644  0.00  0.00    +0.000 C 
BRANCH  16  18
ATOM     18  C   UNL     1       1.510   6.671  20.649  0.00  0.00    +0.000 C 
BRANCH  18  19
ATOM     19  C   UNL     1       2.667   5.683  20.400  0.00  0.00    +0.000 C 
BRANCH  19  24
ATOM     20  C   UNL     1       4.587   3.963  16.492  0.00  0.00    +0.000 C 
ATOM     21  C   UNL     1       3.623   3.553  17.602  0.00  0.00    +0.000 C 
ATOM     22  C   UNL     1       2.384   4.461  17.604  0.00  0.00    +0.000 C 
ATOM     23  C   UNL     1       1.499   4.191  18.823  0.00  0.00    +0.000 C 
ATOM     24  N   UNL     1       2.220   4.312  20.101  0.00  0.00    +0.000 NA
ATOM     25  C   UNL     1       3.340   3.356  20.116  0.00  0.00    +0.000 C 
ATOM     26  C   UNL     1       4.328   3.560  18.965  0.00  0.00    +0.000 C 
ENDBRANCH  19  24
ENDBRANCH  18  19
ENDBRANCH  16  18
ENDBRANCH   1  16
TORSDOF 6
ENDMDL
MODEL 3
REMARK VINA RESULT:      -7.1      3.401      5.166
REMARK  Name = 
REMARK  9 active torsions:
REMARK  status: ('A' for Active; 'I' for Inactive)
REMARK    1  A    between atoms: C_1  and  C_2
REMARK    2  A    between atoms: N_5  and  C_6
REMARK    3  A    between atoms: C_6  and  C_7
REMARK    4  A    between atoms: C_7  and  C_8
REMARK    5  A    between atoms: C_8  and  C_9
REMARK    6  A    between atoms: C_8  and  N_10
REMARK    7  A    between atoms: N_10  and  C_11
REMARK    8  A    between atoms: N_10  and  S_12
REMARK    9  A    between atoms: S_12  and  C_15
REMARK                            x       y       z     vdW  Elec       q    Type
REMARK                         _______ _______ _______ _____ _____    ______ ____
ROOT
ATOM      1  N   UNL     1       1.726   4.462  19.104  0.00  0.00    +0.000 NA
ATOM      2  C   UNL     1       0.700   3.823  19.985  0.00  0.00    +0.000 C 
ENDROOT
BRANCH   1   3
ATOM      3  S   UNL     1       2.649   5.611  20.036  0.00  0.00    +0.000 S 
ATOM      4  O   UNL     1       2.189   5.579  21.406  0.00  0.00    +0.000 OA
ATOM      5  O   UNL     1       4.050   5.377  19.737  0.00  0.00    +0.000 OA
BRANCH   3   6
ATOM      6  C   UNL     1       2.171   7.209  19.396  0.00  0.00    +0.000 A 
ATOM      7  C   UNL     1       2.561   7.513  18.081  0.00  0.00    +0.000 A 
ATOM      8  C   UNL     1       2.226   8.738  17.520  0.00  0.00    +0.000 A 
ATOM      9  C   UNL     1       1.511   9.665  18.271  0.00  0.00    +0.000 A 
ATOM     10  C   UNL     1       1.122   9.391  19.591  0.00  0.00    +0.000 A 
ATOM     11  C   UNL     1       0.395  10.355  20.307  0.00  0.00    +0.000 A 
ATOM     12  C   UNL     1      -0.002  10.130  21.623  0.00  0.00    +0.000 A 
ATOM     13  C   UNL     1       0.342   8.940  22.246  0.00  0.00    +0.000 A 
ATOM     14  C   UNL     1       1.065   7.969  21.546  0.00  0.00    +0.000 A 
ATOM     15  C   UNL     1       1.461   8.151  20.196  0.00  0.00    +0.000 A 
ENDBRANCH   3   6
ENDBRANCH   1   3
BRANCH   1  16
ATOM     16  C   UNL     1       2.525   3.433  18.295  0.00  0.00    +0.000 C 
ATOM     17  C   UNL     1       3.610   2.750  19.135  0.00  0.00    +0.000 C 
BRANCH  16  18
ATOM     18  C   UNL     1       3.212   4.107  17.080  0.00  0.00    +0.000 C 
BRANCH  18  19
ATOM     19  C   UNL     1       4.700   3.746  16.902  0.00  0.00    +0.000 C 
BRANCH  19  24
ATOM     20  C   UNL     1       7.928   6.716  18.536  0.00  0.00    +0.000 C 
ATOM     21  C   UNL     1       7.325   6.254  17.213  0.00  0.00    +0.000 C 
ATOM     22  C   UNL     1       5.827   6.585  17.157  0.00  0.00    +0.000 C 
ATOM     23  C   UNL     1       5.166   5.962  15.925  0.00  0.00    +0.000 C 
ATOM     24  N   UNL     1       5.368   4.507  15.832  0.00  0.00    +0.000 NA
ATOM     25  C   UNL     1       6.812   4.223  15.780  0.00  0.00    +0.000 C 
ATOM     26  C   UNL     1       7.580   4.757  16.992  0.00  0.00    +0.000 C 
ENDBRANCH  19  24
ENDBRANCH  18  19
ENDBRANCH  16  18
ENDBRANCH   1  16
TORSDOF 6
ENDMDL
MODEL 4
REMARK VINA RESULT:      -7.1      3.562      5.354
REMARK  Name = 
REMARK  9 active torsions:
REMARK  status: ('A' for Active; 'I' for Inactive)
REMARK    1  A    between atoms: C_1  and  C_2
REMARK    2  A    between atoms: N_5  and  C_6
REMARK    3  A    between atoms: C_6  and  C_7
REMARK    4  A    between atoms: C_7  and  C_8
REMARK    5  A    between atoms: C_8  and  C_9
REMARK    6  A    between atoms: C_8  and  N_10
REMARK    7  A    between atoms: N_10  and  C_11
REMARK    8  A    between atoms: N_10  and  S_12
REMARK    9  A    between atoms: S_12  and  C_15
REMARK                            x       y       z     vdW  Elec       q    Type
REMARK                         _______ _______ _______ _____ _____    ______ ____
ROOT
ATOM      1  N   UNL     1       2.576   4.251  18.934  0.00  0.00    +0.000 NA
ATOM      2  C   UNL     1       1.518   3.934  17.927  0.00  0.00    +0.000 C 
ENDROOT
BRANCH   1   3
ATOM      3  S   UNL     1       1.898   5.267  20.180  0.00  0.00    +0.000 S 
ATOM      4  O   UNL     1       0.511   4.907  20.372  0.00  0.00    +0.000 OA
ATOM      5  O   UNL     1       2.816   5.236  21.303  0.00  0.00    +0.000 OA
BRANCH   3   6
ATOM      6  C   UNL     1       1.886   6.908  19.476  0.00  0.00    +0.000 A 
ATOM      7  C   UNL     1       2.497   7.070  18.222  0.00  0.00    +0.000 A 
ATOM      8  C   UNL     1       2.527   8.319  17.616  0.00  0.00    +0.000 A 
ATOM      9  C   UNL     1       1.957   9.411  18.264  0.00  0.00    +0.000 A 
ATOM     10  C   UNL     1       1.353   9.278  19.523  0.00  0.00    +0.000 A 
ATOM     11  C   UNL     1       0.785  10.407  20.135  0.00  0.00    +0.000 A 
ATOM     12  C   UNL     1       0.184  10.323  21.388  0.00  0.00    +0.000 A 
ATOM     13  C   UNL     1       0.163   9.108  22.056  0.00  0.00    +0.000 A 
ATOM     14  C   UNL     1       0.724   7.975  21.461  0.00  0.00    +0.000 A 
ATOM     15  C   UNL     1       1.319   8.015  20.173  0.00  0.00    +0.000 A 
ENDBRANCH   3   6
ENDBRANCH   1   3
BRANCH   1  16
ATOM     16  C   UNL     1       3.332   3.002  19.402  0.00  0.00    +0.000 C 
ATOM     17  C   UNL     1       2.866   2.523  20.781  0.00  0.00    +0.000 C 
BRANCH  16  18
ATOM     18  C   UNL     1       4.855   3.282  19.480  0.00  0.00    +0.000 C 
BRANCH  18  19
ATOM     19  C   UNL     1       5.292   4.626  18.865  0.00  0.00    +0.000 C 
BRANCH  19  24
ATOM     20  C   UNL     1       7.626   8.539  17.787  0.00  0.00    +0.000 C 
ATOM     21  C   UNL     1       7.443   7.109  17.287  0.00  0.00    +0.000 C 
ATOM     22  C   UNL     1       5.982   6.860  16.884  0.00  0.00    +0.000 C 
ATOM     23  C   UNL     1       5.738   5.384  16.562  0.00  0.00    +0.000 C 
ATOM     24  N   UNL     1       6.123   4.480  17.658  0.00  0.00    +0.000 NA
ATOM     25  C   UNL     1       7.554   4.662  17.954  0.00  0.00    +0.000 C 
ATOM     26  C   UNL     1       7.916   6.098  18.341  0.00  0.00    +0.000 C 
ENDBRANCH  19  24
ENDBRANCH  18  19
ENDBRANCH  16  18
ENDBRANCH   1  16
TORSDOF 6
ENDMDL
MODEL 5
REMARK VINA RESULT:      -7.0      3.001      8.725
REMARK  Name = 
REMARK  9 active torsions:
REMARK  status: ('A' for Active; 'I' for Inactive)
REMARK    1  A    between atoms: C_1  and  C_2
REMARK    2  A    between atoms: N_5  and  C_6
REMARK    3  A    between atoms: C_6  and  C_7
REMARK    4  A    between atoms: C_7  and  C_8
REMARK    5  A    between atoms: C_8  and  C_9
REMARK    6  A    between atoms: C_8  and  N_10
REMARK    7  A    between atoms: N_10  and  C_11
REMARK    8  A    between atoms: N_10  and  S_12
REMARK    9  A    between atoms: S_12  and  C_15
REMARK                            x       y       z     vdW  Elec       q    Type
REMARK                         _______ _______ _______ _____ _____    ______ ____
ROOT
ATOM      1  N   UNL     1       2.820   5.366  20.019  0.00  0.00    +0.000 NA
ATOM      2  C   UNL     1       2.034   4.659  21.076  0.00  0.00    +0.000 C 
ENDROOT
BRANCH   1   3
ATOM      3  S   UNL     1       3.329   4.213  18.813  0.00  0.00    +0.000 S 
ATOM      4  O   UNL     1       3.436   2.909  19.429  0.00  0.00    +0.000 OA
ATOM      5  O   UNL     1       2.474   4.399  17.656  0.00  0.00    +0.000 OA
BRANCH   3   6
ATOM      6  C   UNL     1       4.998   4.695  18.394  0.00  0.00    +0.000 A 
ATOM      7  C   UNL     1       5.796   5.200  19.433  0.00  0.00    +0.000 A 
ATOM      8  C   UNL     1       7.102   5.597  19.180  0.00  0.00    +0.000 A 
ATOM      9  C   UNL     1       7.611   5.501  17.889  0.00  0.00    +0.000 A 
ATOM     10  C   UNL     1       6.829   5.014  16.831  0.00  0.00    +0.000 A 
ATOM     11  C   UNL     1       7.389   4.928  15.546  0.00  0.00    +0.000 A 
ATOM     12  C   UNL     1       6.646   4.461  14.465  0.00  0.00    +0.000 A 
ATOM     13  C   UNL     1       5.323   4.089  14.654  0.00  0.00    +0.000 A 
ATOM     14  C   UNL     1       4.751   4.168  15.927  0.00  0.00    +0.000 A 
ATOM     15  C   UNL     1       5.486   4.612  17.058  0.00  0.00    +0.000 A 
ENDBRANCH   3   6
ENDBRANCH   1   3
BRANCH   1  16
ATOM     16  C   UNL     1       2.112   6.626  19.508  0.00  0.00    +0.000 C 
ATOM     17  C   UNL     1       2.933   7.364  18.446  0.00  0.00    +0.000 C 
BRANCH  16  18
ATOM     18  C   UNL     1       1.840   7.611  20.675  0.00  0.00    +0.000 C 
BRANCH  18  19
ATOM     19  C   UNL     1       0.708   8.623  20.410  0.00  0.00    +0.000 C 
BRANCH  19  24
ATOM     20  C   UNL     1      -2.689  11.462  18.888  0.00  0.00    +0.000 C 
ATOM     21  C   UNL     1      -1.197  11.487  19.206  0.00  0.00    +0.000 C 
ATOM     22  C   UNL     1      -0.432  10.520  18.290  0.00  0.00    +0.000 C 
ATOM     23  C   UNL     1       1.031  10.388  18.719  0.00  0.00    +0.000 C 
ATOM     24  N   UNL     1       1.189   9.986  20.126  0.00  0.00    +0.000 NA
ATOM     25  C   UNL     1       0.538  10.986  20.990  0.00  0.00    +0.000 C 
ATOM     26  C   UNL     1      -0.951  11.172  20.688  0.00  0.00    +0.000 C 
ENDBRANCH  19  24
ENDBRANCH  18  19
ENDBRANCH  16  18
ENDBRANCH   1  16
TORSDOF 6
ENDMDL
MODEL 6
REMARK VINA RESULT:      -7.0      3.545      8.904
REMARK  Name = 
REMARK  9 active torsions:
REMARK  status: ('A' for Active; 'I' for Inactive)
REMARK    1  A    between atoms: C_1  and  C_2
REMARK    2  A    between atoms: N_5  and  C_6
REMARK    3  A    between atoms: C_6  and  C_7
REMARK    4  A    between atoms: C_7  and  C_8
REMARK    5  A    between atoms: C_8  and  C_9
REMARK    6  A    between atoms: C_8  and  N_10
REMARK    7  A    between atoms: N_10  and  C_11
REMARK    8  A    between atoms: N_10  and  S_12
REMARK    9  A    between atoms: S_12  and  C_15
REMARK                            x       y       z     vdW  Elec       q    Type
REMARK                         _______ _______ _______ _____ _____    ______ ____
ROOT
ATOM      1  N   UNL     1       2.730   5.215  20.007  0.00  0.00    +0.000 NA
ATOM      2  C   UNL     1       2.147   4.356  21.083  0.00  0.00    +0.000 C 
ENDROOT
BRANCH   1   3
ATOM      3  S   UNL     1       3.227   4.208  18.672  0.00  0.00    +0.000 S 
ATOM      4  O   UNL     1       3.297   2.837  19.123  0.00  0.00    +0.000 OA
ATOM      5  O   UNL     1       2.389   4.555  17.539  0.00  0.00    +0.000 OA
BRANCH   3   6
ATOM      6  C   UNL     1       4.910   4.699  18.330  0.00  0.00    +0.000 A 
ATOM      7  C   UNL     1       5.662   5.195  19.407  0.00  0.00    +0.000 A 
ATOM      8  C   UNL     1       6.976   5.597  19.214  0.00  0.00    +0.000 A 
ATOM      9  C   UNL     1       7.541   5.516  17.945  0.00  0.00    +0.000 A 
ATOM     10  C   UNL     1       6.805   5.037  16.850  0.00  0.00    +0.000 A 
ATOM     11  C   UNL     1       7.420   4.967  15.589  0.00  0.00    +0.000 A 
ATOM     12  C   UNL     1       6.725   4.509  14.472  0.00  0.00    +0.000 A 
ATOM     13  C   UNL     1       5.397   4.132  14.601  0.00  0.00    +0.000 A 
ATOM     14  C   UNL     1       4.771   4.196  15.849  0.00  0.00    +0.000 A 
ATOM     15  C   UNL     1       5.455   4.630  17.015  0.00  0.00    +0.000 A 
ENDBRANCH   3   6
ENDBRANCH   1   3
BRANCH   1  16
ATOM     16  C   UNL     1       1.836   6.414  19.667  0.00  0.00    +0.000 C 
ATOM     17  C   UNL     1       2.577   7.478  18.850  0.00  0.00    +0.000 C 
BRANCH  16  18
ATOM     18  C   UNL     1       1.306   7.085  20.960  0.00  0.00    +0.000 C 
BRANCH  18  19
ATOM     19  C   UNL     1       0.683   8.479  20.751  0.00  0.00    +0.000 C 
BRANCH  19  24
ATOM     20  C   UNL     1      -2.222  11.447  22.913  0.00  0.00    +0.000 C 
ATOM     21  C   UNL     1      -0.728  11.215  22.702  0.00  0.00    +0.000 C 
ATOM     22  C   UNL     1      -0.370  11.320  21.212  0.00  0.00    +0.000 C 
ATOM     23  C   UNL     1       1.080  10.904  20.958  0.00  0.00    +0.000 C 
ATOM     24  N   UNL     1       1.393   9.556  21.462  0.00  0.00    +0.000 NA
ATOM     25  C   UNL     1       1.142   9.512  22.912  0.00  0.00    +0.000 C 
ATOM     26  C   UNL     1      -0.299   9.864  23.290  0.00  0.00    +0.000 C 
ENDBRANCH  19  24
ENDBRANCH  18  19
ENDBRANCH  16  18
ENDBRANCH   1  16
TORSDOF 6
ENDMDL
MODEL 7
REMARK VINA RESULT:      -7.0      3.490      8.709
REMARK  Name = 
REMARK  9 active torsions:
REMARK  status: ('A' for Active; 'I' for Inactive)
REMARK    1  A    between atoms: C_1  and  C_2
REMARK    2  A    between atoms: N_5  and  C_6
REMARK    3  A    between atoms: C_6  and  C_7
REMARK    4  A    between atoms: C_7  and  C_8
REMARK    5  A    between atoms: C_8  and  C_9
REMARK    6  A    between atoms: C_8  and  N_10
REMARK    7  A    between atoms: N_10  and  C_11
REMARK    8  A    between atoms: N_10  and  S_12
REMARK    9  A    between atoms: S_12  and  C_15
REMARK                            x       y       z     vdW  Elec       q    Type
REMARK                         _______ _______ _______ _____ _____    ______ ____
ROOT
ATOM      1  N   UNL     1       2.873   5.154  19.984  0.00  0.00    +0.000 NA
ATOM      2  C   UNL     1       2.177   4.400  21.072  0.00  0.00    +0.000 C 
ENDROOT
BRANCH   1   3
ATOM      3  S   UNL     1       3.461   4.027  18.789  0.00  0.00    +0.000 S 
ATOM      4  O   UNL     1       3.663   2.742  19.419  0.00  0.00    +0.000 OA
ATOM      5  O   UNL     1       2.591   4.138  17.633  0.00  0.00    +0.000 OA
BRANCH   3   6
ATOM      6  C   UNL     1       5.089   4.624  18.359  0.00  0.00    +0.000 A 
ATOM      7  C   UNL     1       5.864   5.167  19.395  0.00  0.00    +0.000 A 
ATOM      8  C   UNL     1       7.138   5.653  19.133  0.00  0.00    +0.000 A 
ATOM      9  C   UNL     1       7.637   5.607  17.835  0.00  0.00    +0.000 A 
ATOM     10  C   UNL     1       6.876   5.082  16.780  0.00  0.00    +0.000 A 
ATOM     11  C   UNL     1       7.425   5.050  15.487  0.00  0.00    +0.000 A 
ATOM     12  C   UNL     1       6.702   4.548  14.408  0.00  0.00    +0.000 A 
ATOM     13  C   UNL     1       5.409   4.088  14.607  0.00  0.00    +0.000 A 
ATOM     14  C   UNL     1       4.848   4.112  15.887  0.00  0.00    +0.000 A 
ATOM     15  C   UNL     1       5.565   4.590  17.016  0.00  0.00    +0.000 A 
ENDBRANCH   3   6
ENDBRANCH   1   3
BRANCH   1  16
ATOM     16  C   UNL     1       2.043   6.334  19.466  0.00  0.00    +0.000 C 
ATOM     17  C   UNL     1       2.857   7.265  18.562  0.00  0.00    +0.000 C 
BRANCH  16  18
ATOM     18  C   UNL     1       1.490   7.174  20.646  0.00  0.00    +0.000 C 
BRANCH  18  19
ATOM     19  C   UNL     1       1.576   8.699  20.444  0.00  0.00    +0.000 C 
BRANCH  19  24
ATOM     20  C   UNL     1       1.865  13.350  19.992  0.00  0.00    +0.000 C 
ATOM     21  C   UNL     1       0.852  12.220  19.839  0.00  0.00    +0.000 C 
ATOM     22  C   UNL     1       0.620  11.516  21.184  0.00  0.00    +0.000 C 
ATOM     23  C   UNL     1      -0.243  10.264  21.015  0.00  0.00    +0.000 C 
ATOM     24  N   UNL     1       0.301   9.313  20.032  0.00  0.00    +0.000 NA
ATOM     25  C   UNL     1       0.415   9.981  18.725  0.00  0.00    +0.000 C 
ATOM     26  C   UNL     1       1.301  11.229  18.755  0.00  0.00    +0.000 C 
ENDBRANCH  19  24
ENDBRANCH  18  19
ENDBRANCH  16  18
ENDBRANCH   1  16
TORSDOF 6
ENDMDL
MODEL 8
REMARK VINA RESULT:      -7.0      3.200      8.645
REMARK  Name = 
REMARK  9 active torsions:
REMARK  status: ('A' for Active; 'I' for Inactive)
REMARK    1  A    between atoms: C_1  and  C_2
REMARK    2  A    between atoms: N_5  and  C_6
REMARK    3  A    between atoms: C_6  and  C_7
REMARK    4  A    between atoms: C_7  and  C_8
REMARK    5  A    between atoms: C_8  and  C_9
REMARK    6  A    between atoms: C_8  and  N_10
REMARK    7  A    between atoms: N_10  and  C_11
REMARK    8  A    between atoms: N_10  and  S_12
REMARK    9  A    between atoms: S_12  and  C_15
REMARK                            x       y       z     vdW  Elec       q    Type
REMARK                         _______ _______ _______ _____ _____    ______ ____
ROOT
ATOM      1  N   UNL     1       3.296   3.904  20.175  0.00  0.00    +0.000 NA
ATOM      2  C   UNL     1       3.009   2.580  20.808  0.00  0.00    +0.000 C 
ENDROOT
BRANCH   1   3
ATOM      3  S   UNL     1       3.534   3.683  18.462  0.00  0.00    +0.000 S 
ATOM      4  O   UNL     1       3.699   2.273  18.191  0.00  0.00    +0.000 OA
ATOM      5  O   UNL     1       2.493   4.433  17.785  0.00  0.00    +0.000 OA
BRANCH   3   6
ATOM      6  C   UNL     1       5.118   4.436  18.119  0.00  0.00    +0.000 A 
ATOM      7  C   UNL     1       5.823   4.966  19.212  0.00  0.00    +0.000 A 
ATOM      8  C   UNL     1       7.059   5.569  19.019  0.00  0.00    +0.000 A 
ATOM      9  C   UNL     1       7.589   5.653  17.736  0.00  0.00    +0.000 A 
ATOM     10  C   UNL     1       6.898   5.144  16.626  0.00  0.00    +0.000 A 
ATOM     11  C   UNL     1       7.477   5.246  15.350  0.00  0.00    +0.000 A 
ATOM     12  C   UNL     1       6.822   4.765  14.220  0.00  0.00    +0.000 A 
ATOM     13  C   UNL     1       5.566   4.190  14.350  0.00  0.00    +0.000 A 
ATOM     14  C   UNL     1       4.977   4.080  15.613  0.00  0.00    +0.000 A 
ATOM     15  C   UNL     1       5.626   4.534  16.791  0.00  0.00    +0.000 A 
ENDBRANCH   3   6
ENDBRANCH   1   3
BRANCH   1  16
ATOM     16  C   UNL     1       2.291   4.984  20.595  0.00  0.00    +0.000 C 
ATOM     17  C   UNL     1       0.844   4.575  20.304  0.00  0.00    +0.000 C 
BRANCH  16  18
ATOM     18  C   UNL     1       2.574   6.313  19.850  0.00  0.00    +0.000 C 
BRANCH  18  19
ATOM     19  C   UNL     1       1.404   7.316  19.860  0.00  0.00    +0.000 C 
BRANCH  19  24
ATOM     20  C   UNL     1      -1.897  10.198  18.209  0.00  0.00    +0.000 C 
ATOM     21  C   UNL     1      -0.476  10.240  18.764  0.00  0.00    +0.000 C 
ATOM     22  C   UNL     1       0.481   9.449  17.861  0.00  0.00    +0.000 C 
ATOM     23  C   UNL     1       1.867   9.319  18.498  0.00  0.00    +0.000 C 
ATOM     24  N   UNL     1       1.833   8.725  19.844  0.00  0.00    +0.000 NA
ATOM     25  C   UNL     1       0.993   9.562  20.719  0.00  0.00    +0.000 C 
ATOM     26  C   UNL     1      -0.441   9.725  20.210  0.00  0.00    +0.000 C 
ENDBRANCH  19  24
ENDBRANCH  18  19
ENDBRANCH  16  18
ENDBRANCH   1  16
TORSDOF 6
ENDMDL
MODEL 9
REMARK VINA RESULT:      -6.9      3.580      8.784
REMARK  Name = 
REMARK  9 active torsions:
REMARK  status: ('A' for Active; 'I' for Inactive)
REMARK    1  A    between atoms: C_1  and  C_2
REMARK    2  A    between atoms: N_5  and  C_6
REMARK    3  A    between atoms: C_6  and  C_7
REMARK    4  A    between atoms: C_7  and  C_8
REMARK    5  A    between atoms: C_8  and  C_9
REMARK    6  A    between atoms: C_8  and  N_10
REMARK    7  A    between atoms: N_10  and  C_11
REMARK    8  A    between atoms: N_10  and  S_12
REMARK    9  A    between atoms: S_12  and  C_15
REMARK                            x       y       z     vdW  Elec       q    Type
REMARK                         _______ _______ _______ _____ _____    ______ ____
ROOT
ATOM      1  N   UNL     1       2.629   3.641  19.116  0.00  0.00    +0.000 NA
ATOM      2  C   UNL     1       1.712   3.679  17.935  0.00  0.00    +0.000 C 
ENDROOT
BRANCH   1   3
ATOM      3  S   UNL     1       4.097   2.806  18.678  0.00  0.00    +0.000 S 
ATOM      4  O   UNL     1       4.963   2.747  19.834  0.00  0.00    +0.000 OA
ATOM      5  O   UNL     1       3.708   1.584  18.000  0.00  0.00    +0.000 OA
BRANCH   3   6
ATOM      6  C   UNL     1       4.909   3.890  17.513  0.00  0.00    +0.000 A 
ATOM      7  C   UNL     1       4.521   3.787  16.167  0.00  0.00    +0.000 A 
ATOM      8  C   UNL     1       5.113   4.596  15.206  0.00  0.00    +0.000 A 
ATOM      9  C   UNL     1       6.098   5.503  15.583  0.00  0.00    +0.000 A 
ATOM     10  C   UNL     1       6.512   5.615  16.919  0.00  0.00    +0.000 A 
ATOM     11  C   UNL     1       7.505   6.550  17.253  0.00  0.00    +0.000 A 
ATOM     12  C   UNL     1       7.955   6.688  18.564  0.00  0.00    +0.000 A 
ATOM     13  C   UNL     1       7.427   5.876  19.556  0.00  0.00    +0.000 A 
ATOM     14  C   UNL     1       6.438   4.941  19.240  0.00  0.00    +0.000 A 
ATOM     15  C   UNL     1       5.935   4.792  17.921  0.00  0.00    +0.000 A 
ENDBRANCH   3   6
ENDBRANCH   1   3
BRANCH   1  16
ATOM     16  C   UNL     1       2.791   5.015  19.775  0.00  0.00    +0.000 C 
ATOM     17  C   UNL     1       1.759   5.255  20.882  0.00  0.00    +0.000 C 
BRANCH  16  18
ATOM     18  C   UNL     1       2.641   6.146  18.725  0.00  0.00    +0.000 C 
BRANCH  18  19
ATOM     19  C   UNL     1       1.529   7.167  19.037  0.00  0.00    +0.000 C 
BRANCH  19  24
ATOM     20  C   UNL     1      -1.769  10.465  18.629  0.00  0.00    +0.000 C 
ATOM     21  C   UNL     1      -0.293  10.323  18.990  0.00  0.00    +0.000 C 
ATOM     22  C   UNL     1       0.506   9.777  17.798  0.00  0.00    +0.000 C 
ATOM     23  C   UNL     1       1.945   9.448  18.197  0.00  0.00    +0.000 C 
ATOM     24  N   UNL     1       2.034   8.519  19.335  0.00  0.00    +0.000 NA
ATOM     25  C   UNL     1       1.352   9.112  20.497  0.00  0.00    +0.000 C 
ATOM     26  C   UNL     1      -0.120   9.442  20.235  0.00  0.00    +0.000 C 
ENDBRANCH  19  24
ENDBRANCH  18  19
ENDBRANCH  16  18
ENDBRANCH   1  16
TORSDOF 6
ENDMDL
