MODEL 1
REMARK VINA RESULT:      -7.7      0.000      0.000
REMARK  Name = 
REMARK  8 active torsions:
REMARK  status: ('A' for Active; 'I' for Inactive)
REMARK    1  A    between atoms: C_1  and  N_2
REMARK    2  A    between atoms: N_2  and  C_3
REMARK    3  A    between atoms: N_2  and  C_11
REMARK    4  A    between atoms: C_3  and  C_4
REMARK    5  A    between atoms: C_4  and  C_5
REMARK    6  A    between atoms: C_11  and  C_12
REMARK    7  A    between atoms: C_14  and  C_15
REMARK    8  A    between atoms: N_20  and  C_21
REMARK                            x       y       z     vdW  Elec       q    Type
REMARK                         _______ _______ _______ _____ _____    ______ ____
ROOT
ATOM      1  C   UNL     1       3.357   6.741  18.746  0.00  0.00    +0.000 A 
ATOM      2  C   UNL     1       2.857   7.874  18.155  0.00  0.00    +0.000 A 
ATOM      3  C   UNL     1       1.856   8.327  19.049  0.00  0.00    +0.000 A 
ATOM      4  N   UNL     1       1.829   7.563  20.155  0.00  0.00    +0.000 NA
ATOM      5  O   UNL     1       2.745   6.552  19.940  0.00  0.00    +0.000 OA
ENDROOT
BRANCH   3   6
ATOM      6  C   UNL     1       0.978   9.482  18.843  0.00  0.00    +0.000 C 
ATOM      7  O   UNL     1       0.455   9.663  17.742  0.00  0.00    +0.000 OA
ATOM      8  N   UNL     1       0.699  10.320  19.923  0.00  0.00    +0.000 N 
ATOM      9  C   UNL     1      -0.167  11.474  19.721  0.00  0.00    +0.000 C 
ATOM     10  C   UNL     1      -1.379  11.365  20.644  0.00  0.00    +0.000 C 
ATOM     11  N   UNL     1      -0.959  11.253  22.038  0.00  0.00    +0.000 N 
ATOM     12  C   UNL     1      -1.847  11.709  23.085  0.00  0.00    +0.000 C 
ATOM     13  C   UNL     1       0.036  10.340  22.381  0.00  0.00    +0.000 C 
ATOM     14  O   UNL     1       0.157   9.893  23.522  0.00  0.00    +0.000 OA
ATOM     15  C   UNL     1       1.111  10.084  21.313  0.00  0.00    +0.000 C 
ENDBRANCH   3   6
BRANCH   1  16
ATOM     16  C   UNL     1       4.397   5.753  18.370  0.00  0.00    +0.000 C 
BRANCH  16  18
ATOM     17  C   UNL     1       5.172   5.676  16.076  0.00  0.00    +0.000 C 
ATOM     18  N   UNL     1       4.162   5.184  17.030  0.00  0.00    +0.000 NA
BRANCH  18  19
ATOM     19  C   UNL     1       4.219   3.708  17.060  0.00  0.00    +0.000 C 
BRANCH  19  20
ATOM     20  C   UNL     1       2.857   3.019  17.259  0.00  0.00    +0.000 C 
BRANCH  20  21
ATOM     21  C   UNL     1       2.420   3.081  18.702  0.00  0.00    +0.000 A 
ATOM     22  C   UNL     1       3.257   2.597  19.717  0.00  0.00    +0.000 A 
ATOM     23  C   UNL     1       2.842   2.632  21.049  0.00  0.00    +0.000 A 
ATOM     24  C   UNL     1       1.588   3.146  21.375  0.00  0.00    +0.000 A 
ATOM     25  C   UNL     1       0.749   3.627  20.373  0.00  0.00    +0.000 A 
ATOM     26  C   UNL     1       1.161   3.594  19.040  0.00  0.00    +0.000 A 
ENDBRANCH  20  21
ENDBRANCH  19  20
ENDBRANCH  18  19
ENDBRANCH  16  18
ENDBRANCH   1  16
TORSDOF 6
ENDMDL
MODEL 2
REMARK VINA RESULT:      -7.7      0.557      1.073
REMARK  Name = 
REMARK  8 active torsions:
REMARK  status: ('A' for Active; 'I' for Inactive)
REMARK    1  A    between atoms: C_1  and  N_2
REMARK    2  A    between atoms: N_2  and  C_3
REMARK    3  A    between atoms: N_2  and  C_11
REMARK    4  A    between atoms: C_3  and  C_4
REMARK    5  A    between atoms: C_4  and  C_5
REMARK    6  A    between atoms: C_11  and  C_12
REMARK    7  A    between atoms: C_14  and  C_15
REMARK    8  A    between atoms: N_20  and  C_21
REMARK                            x       y       z     vdW  Elec       q    Type
REMARK                         _______ _______ _______ _____ _____    ______ ____
ROOT
ATOM      1  C   UNL     1       3.582   6.522  18.589  0.00  0.00    +0.000 A 
ATOM      2  C   UNL     1       3.115   7.695  18.049  0.00  0.00    +0.000 A 
ATOM      3  C   UNL     1       2.063   8.088  18.914  0.00  0.00    +0.000 A 
ATOM      4  N   UNL     1       1.974   7.249  19.961  0.00  0.00    +0.000 NA
ATOM      5  O   UNL     1       2.902   6.253  19.731  0.00  0.00    +0.000 OA
ENDROOT
BRANCH   3   6
ATOM      6  C   UNL     1       1.197   9.256  18.737  0.00  0.00    +0.000 C 
ATOM      7  O   UNL     1       0.654   9.455  17.649  0.00  0.00    +0.000 OA
ATOM      8  N   UNL     1       0.953  10.087  19.830  0.00  0.00    +0.000 N 
ATOM      9  C   UNL     1       0.099  11.255  19.658  0.00  0.00    +0.000 C 
ATOM     10  C   UNL     1      -1.095  11.153  20.605  0.00  0.00    +0.000 C 
ATOM     11  N   UNL     1      -0.648  11.022  21.989  0.00  0.00    +0.000 N 
ATOM     12  C   UNL     1      -1.508  11.480  23.058  0.00  0.00    +0.000 C 
ATOM     13  C   UNL     1       0.341  10.093  22.302  0.00  0.00    +0.000 C 
ATOM     14  O   UNL     1       0.480   9.632  23.436  0.00  0.00    +0.000 OA
ATOM     15  C   UNL     1       1.391   9.832  21.210  0.00  0.00    +0.000 C 
ENDBRANCH   3   6
BRANCH   1  16
ATOM     16  C   UNL     1       4.643   5.560  18.207  0.00  0.00    +0.000 C 
BRANCH  16  18
ATOM     17  C   UNL     1       5.663   4.424  16.326  0.00  0.00    +0.000 C 
ATOM     18  N   UNL     1       4.413   4.985  16.868  0.00  0.00    +0.000 NA
BRANCH  18  19
ATOM     19  C   UNL     1       3.396   3.914  16.916  0.00  0.00    +0.000 C 
BRANCH  19  20
ATOM     20  C   UNL     1       3.730   2.756  17.872  0.00  0.00    +0.000 C 
BRANCH  20  21
ATOM     21  C   UNL     1       2.867   2.804  19.110  0.00  0.00    +0.000 A 
ATOM     22  C   UNL     1       1.499   3.093  19.008  0.00  0.00    +0.000 A 
ATOM     23  C   UNL     1       0.707   3.163  20.155  0.00  0.00    +0.000 A 
ATOM     24  C   UNL     1       1.276   2.947  21.409  0.00  0.00    +0.000 A 
ATOM     25  C   UNL     1       2.635   2.662  21.519  0.00  0.00    +0.000 A 
ATOM     26  C   UNL     1       3.430   2.591  20.375  0.00  0.00    +0.000 A 
ENDBRANCH  20  21
ENDBRANCH  19  20
ENDBRANCH  18  19
ENDBRANCH  16  18
ENDBRANCH   1  16
TORSDOF 6
ENDMDL
MODEL 3
REMARK VINA RESULT:      -7.5      3.855      7.142
REMARK  Name = 
REMARK  8 active torsions:
REMARK  status: ('A' for Active; 'I' for Inactive)
REMARK    1  A    between atoms: C_1  and  N_2
REMARK    2  A    between atoms: N_2  and  C_3
REMARK    3  A    between atoms: N_2  and  C_11
REMARK    4  A    between atoms: C_3  and  C_4
REMARK    5  A    between atoms: C_4  and  C_5
REMARK    6  A    between atoms: C_11  and  C_12
REMARK    7  A    between atoms: C_14  and  C_15
REMARK    8  A    between atoms: N_20  and  C_21
REMARK                            x       y       z     vdW  Elec       q    Type
REMARK                         _______ _______ _______ _____ _____    ______ ____
ROOT
ATOM      1  C   UNL     1       2.374   2.414  18.522  0.00  0.00    +0.000 A 
ATOM      2  C   UNL     1       2.746   3.492  17.757  0.00  0.00    +0.000 A 
ATOM      3  C   UNL     1       4.012   3.132  17.232  0.00  0.00    +0.000 A 
ATOM      4  N   UNL     1       4.330   1.874  17.584  0.00  0.00    +0.000 NA
ATOM      5  O   UNL     1       3.317   1.447  18.420  0.00  0.00    +0.000 OA
ENDROOT
BRANCH   3   6
ATOM      6  C   UNL     1       4.865   3.977  16.392  0.00  0.00    +0.000 C 
ATOM      7  O   UNL     1       4.491   4.291  15.261  0.00  0.00    +0.000 OA
ATOM      8  N   UNL     1       6.060   4.465  16.921  0.00  0.00    +0.000 N 
ATOM      9  C   UNL     1       6.916   5.300  16.088  0.00  0.00    +0.000 C 
ATOM     10  C   UNL     1       7.105   6.659  16.758  0.00  0.00    +0.000 C 
ATOM     11  N   UNL     1       7.660   6.502  18.100  0.00  0.00    +0.000 N 
ATOM     12  C   UNL     1       8.439   7.576  18.676  0.00  0.00    +0.000 C 
ATOM     13  C   UNL     1       7.094   5.572  18.969  0.00  0.00    +0.000 C 
ATOM     14  O   UNL     1       7.208   5.655  20.192  0.00  0.00    +0.000 OA
ATOM     15  C   UNL     1       6.502   4.313  18.314  0.00  0.00    +0.000 C 
ENDBRANCH   3   6
BRANCH   1  16
ATOM     16  C   UNL     1       1.195   2.106  19.367  0.00  0.00    +0.000 C 
BRANCH  16  18
ATOM     17  C   UNL     1       2.483   2.773  21.307  0.00  0.00    +0.000 C 
ATOM     18  N   UNL     1       1.187   2.890  20.615  0.00  0.00    +0.000 NA
BRANCH  18  19
ATOM     19  C   UNL     1       0.923   4.319  20.346  0.00  0.00    +0.000 C 
BRANCH  19  20
ATOM     20  C   UNL     1       2.030   5.276  20.823  0.00  0.00    +0.000 C 
BRANCH  20  21
ATOM     21  C   UNL     1       1.928   6.615  20.133  0.00  0.00    +0.000 A 
ATOM     22  C   UNL     1       1.305   7.695  20.774  0.00  0.00    +0.000 A 
ATOM     23  C   UNL     1       1.188   8.925  20.126  0.00  0.00    +0.000 A 
ATOM     24  C   UNL     1       1.689   9.084  18.835  0.00  0.00    +0.000 A 
ATOM     25  C   UNL     1       2.307   8.015  18.191  0.00  0.00    +0.000 A 
ATOM     26  C   UNL     1       2.425   6.784  18.835  0.00  0.00    +0.000 A 
ENDBRANCH  20  21
ENDBRANCH  19  20
ENDBRANCH  18  19
ENDBRANCH  16  18
ENDBRANCH   1  16
TORSDOF 6
ENDMDL
MODEL 4
REMARK VINA RESULT:      -7.4      6.480      9.654
REMARK  Name = 
REMARK  8 active torsions:
REMARK  status: ('A' for Active; 'I' for Inactive)
REMARK    1  A    between atoms: C_1  and  N_2
REMARK    2  A    between atoms: N_2  and  C_3
REMARK    3  A    between atoms: N_2  and  C_11
REMARK    4  A    between atoms: C_3  and  C_4
REMARK    5  A    between atoms: C_4  and  C_5
REMARK    6  A    between atoms: C_11  and  C_12
REMARK    7  A    between atoms: C_14  and  C_15
REMARK    8  A    between atoms: N_20  and  C_21
REMARK                            x       y       z     vdW  Elec       q    Type
REMARK                         _______ _______ _______ _____ _____    ______ ____
ROOT
ATOM      1  C   UNL     1       8.425   8.740  18.433  0.00  0.00    +0.000 A 
ATOM      2  C   UNL     1       8.333   7.431  18.839  0.00  0.00    +0.000 A 
ATOM      3  C   UNL     1       7.545   6.807  17.840  0.00  0.00    +0.000 A 
ATOM      4  N   UNL     1       7.267   7.671  16.848  0.00  0.00    +0.000 NA
ATOM      5  O   UNL     1       7.790   8.886  17.246  0.00  0.00    +0.000 OA
ENDROOT
BRANCH   3   6
ATOM      6  C   UNL     1       7.105   5.409  17.842  0.00  0.00    +0.000 C 
ATOM      7  O   UNL     1       7.941   4.505  17.807  0.00  0.00    +0.000 OA
ATOM      8  N   UNL     1       5.742   5.131  17.951  0.00  0.00    +0.000 N 
ATOM      9  C   UNL     1       5.298   3.743  17.946  0.00  0.00    +0.000 C 
ATOM     10  C   UNL     1       4.551   3.446  19.244  0.00  0.00    +0.000 C 
ATOM     11  N   UNL     1       3.426   4.362  19.415  0.00  0.00    +0.000 N 
ATOM     12  C   UNL     1       2.283   3.944  20.196  0.00  0.00    +0.000 C 
ATOM     13  C   UNL     1       3.626   5.729  19.234  0.00  0.00    +0.000 C 
ATOM     14  O   UNL     1       2.889   6.577  19.740  0.00  0.00    +0.000 OA
ATOM     15  C   UNL     1       4.686   6.123  18.193  0.00  0.00    +0.000 C 
ENDBRANCH   3   6
BRANCH   1  16
ATOM     16  C   UNL     1       9.072   9.950  18.994  0.00  0.00    +0.000 C 
BRANCH  16  18
ATOM     17  C   UNL     1       8.532  11.979  17.786  0.00  0.00    +0.000 C 
ATOM     18  N   UNL     1       9.507  10.885  17.940  0.00  0.00    +0.000 NA
BRANCH  18  19
ATOM     19  C   UNL     1      10.827  11.469  18.258  0.00  0.00    +0.000 C 
BRANCH  19  20
ATOM     20  C   UNL     1      11.165  11.507  19.759  0.00  0.00    +0.000 C 
BRANCH  20  21
ATOM     21  C   UNL     1      10.820  12.848  20.362  0.00  0.00    +0.000 A 
ATOM     22  C   UNL     1      11.463  14.011  19.916  0.00  0.00    +0.000 A 
ATOM     23  C   UNL     1      11.161  15.246  20.492  0.00  0.00    +0.000 A 
ATOM     24  C   UNL     1      10.219  15.327  21.516  0.00  0.00    +0.000 A 
ATOM     25  C   UNL     1       9.577  14.175  21.966  0.00  0.00    +0.000 A 
ATOM     26  C   UNL     1       9.876  12.938  21.393  0.00  0.00    +0.000 A 
ENDBRANCH  20  21
ENDBRANCH  19  20
ENDBRANCH  18  19
ENDBRANCH  16  18
ENDBRANCH   1  16
TORSDOF 6
ENDMDL
MODEL 5
REMARK VINA RESULT:      -7.4      6.731      9.972
REMARK  Name = 
REMARK  8 active torsions:
REMARK  status: ('A' for Active; 'I' for Inactive)
REMARK    1  A    between atoms: C_1  and  N_2
REMARK    2  A    between atoms: N_2  and  C_3
REMARK    3  A    between atoms: N_2  and  C_11
REMARK    4  A    between atoms: C_3  and  C_4
REMARK    5  A    between atoms: C_4  and  C_5
REMARK    6  A    between atoms: C_11  and  C_12
REMARK    7  A    between atoms: C_14  and  C_15
REMARK    8  A    between atoms: N_20  and  C_21
REMARK                            x       y       z     vdW  Elec       q    Type
REMARK                         _______ _______ _______ _____ _____    ______ ____
ROOT
ATOM      1  C   UNL     1       8.494   8.948  18.506  0.00  0.00    +0.000 A 
ATOM      2  C   UNL     1       7.722   8.560  17.438  0.00  0.00    +0.000 A 
ATOM      3  C   UNL     1       7.608   7.155  17.577  0.00  0.00    +0.000 A 
ATOM      4  N   UNL     1       8.195   6.742  18.714  0.00  0.00    +0.000 NA
ATOM      5  O   UNL     1       8.778   7.865  19.269  0.00  0.00    +0.000 OA
ENDROOT
BRANCH   3   6
ATOM      6  C   UNL     1       6.925   6.253  16.646  0.00  0.00    +0.000 C 
ATOM      7  O   UNL     1       7.543   5.776  15.692  0.00  0.00    +0.000 OA
ATOM      8  N   UNL     1       5.599   5.900  16.898  0.00  0.00    +0.000 N 
ATOM      9  C   UNL     1       4.912   5.010  15.972  0.00  0.00    +0.000 C 
ATOM     10  C   UNL     1       4.449   3.761  16.718  0.00  0.00    +0.000 C 
ATOM     11  N   UNL     1       3.591   4.120  17.844  0.00  0.00    +0.000 N 
ATOM     12  C   UNL     1       2.606   3.172  18.315  0.00  0.00    +0.000 C 
ATOM     13  C   UNL     1       3.997   5.125  18.719  0.00  0.00    +0.000 C 
ATOM     14  O   UNL     1       3.574   5.207  19.873  0.00  0.00    +0.000 OA
ATOM     15  C   UNL     1       4.837   6.255  18.103  0.00  0.00    +0.000 C 
ENDBRANCH   3   6
BRANCH   1  16
ATOM     16  C   UNL     1       9.024  10.249  18.977  0.00  0.00    +0.000 C 
BRANCH  16  18
ATOM     17  C   UNL     1       8.648  12.270  17.694  0.00  0.00    +0.000 C 
ATOM     18  N   UNL     1       9.509  11.086  17.864  0.00  0.00    +0.000 NA
BRANCH  18  19
ATOM     19  C   UNL     1      10.895  11.541  18.105  0.00  0.00    +0.000 C 
BRANCH  19  20
ATOM     20  C   UNL     1      11.277  11.671  19.590  0.00  0.00    +0.000 C 
BRANCH  20  21
ATOM     21  C   UNL     1      11.168  13.103  20.057  0.00  0.00    +0.000 A 
ATOM     22  C   UNL     1      11.994  14.092  19.504  0.00  0.00    +0.000 A 
ATOM     23  C   UNL     1      11.910  15.410  19.955  0.00  0.00    +0.000 A 
ATOM     24  C   UNL     1      11.006  15.748  20.960  0.00  0.00    +0.000 A 
ATOM     25  C   UNL     1      10.183  14.771  21.515  0.00  0.00    +0.000 A 
ATOM     26  C   UNL     1      10.264  13.452  21.068  0.00  0.00    +0.000 A 
ENDBRANCH  20  21
ENDBRANCH  19  20
ENDBRANCH  18  19
ENDBRANCH  16  18
ENDBRANCH   1  16
TORSDOF 6
ENDMDL
MODEL 6
REMARK VINA RESULT:      -7.3      1.704      2.409
REMARK  Name = 
REMARK  8 active torsions:
REMARK  status: ('A' for Active; 'I' for Inactive)
REMARK    1  A    between atoms: C_1  and  N_2
REMARK    2  A    between atoms: N_2  and  C_3
REMARK    3  A    between atoms: N_2  and  C_11
REMARK    4  A    between atoms: C_3  and  C_4
REMARK    5  A    between atoms: C_4  and  C_5
REMARK    6  A    between atoms: C_11  and  C_12
REMARK    7  A    between atoms: C_14  and  C_15
REMARK    8  A    between atoms: N_20  and  C_21
REMARK                            x       y       z     vdW  Elec       q    Type
REMARK                         _______ _______ _______ _____ _____    ______ ____
ROOT
ATOM      1  C   UNL     1       3.922   6.292  18.186  0.00  0.00    +0.000 A 
ATOM      2  C   UNL     1       3.141   6.448  19.304  0.00  0.00    +0.000 A 
ATOM      3  C   UNL     1       2.405   7.634  19.058  0.00  0.00    +0.000 A 
ATOM      4  N   UNL     1       2.660   8.101  17.823  0.00  0.00    +0.000 NA
ATOM      5  O   UNL     1       3.637   7.277  17.300  0.00  0.00    +0.000 OA
ENDROOT
BRANCH   3   6
ATOM      6  C   UNL     1       1.464   8.268  19.985  0.00  0.00    +0.000 C 
ATOM      7  O   UNL     1       1.182   7.711  21.046  0.00  0.00    +0.000 OA
ATOM      8  N   UNL     1       0.956   9.530  19.672  0.00  0.00    +0.000 N 
ATOM      9  C   UNL     1       0.014  10.162  20.586  0.00  0.00    +0.000 C 
ATOM     10  C   UNL     1       0.587  11.496  21.060  0.00  0.00    +0.000 C 
ATOM     11  N   UNL     1       0.888  12.363  19.923  0.00  0.00    +0.000 N 
ATOM     12  C   UNL     1       0.875  13.798  20.103  0.00  0.00    +0.000 C 
ATOM     13  C   UNL     1       1.600  11.849  18.842  0.00  0.00    +0.000 C 
ATOM     14  O   UNL     1       2.235  12.567  18.069  0.00  0.00    +0.000 OA
ATOM     15  C   UNL     1       1.375  10.360  18.534  0.00  0.00    +0.000 C 
ENDBRANCH   3   6
BRANCH   1  16
ATOM     16  C   UNL     1       4.938   5.297  17.768  0.00  0.00    +0.000 C 
BRANCH  16  18
ATOM     17  C   UNL     1       5.695   3.866  15.965  0.00  0.00    +0.000 C 
ATOM     18  N   UNL     1       4.542   4.582  16.540  0.00  0.00    +0.000 NA
BRANCH  18  19
ATOM     19  C   UNL     1       3.467   3.606  16.814  0.00  0.00    +0.000 C 
BRANCH  19  20
ATOM     20  C   UNL     1       3.803   2.574  17.904  0.00  0.00    +0.000 C 
BRANCH  20  21
ATOM     21  C   UNL     1       2.920   2.753  19.116  0.00  0.00    +0.000 A 
ATOM     22  C   UNL     1       3.432   2.540  20.403  0.00  0.00    +0.000 A 
ATOM     23  C   UNL     1       2.609   2.682  21.520  0.00  0.00    +0.000 A 
ATOM     24  C   UNL     1       1.269   3.033  21.360  0.00  0.00    +0.000 A 
ATOM     25  C   UNL     1       0.752   3.244  20.084  0.00  0.00    +0.000 A 
ATOM     26  C   UNL     1       1.572   3.103  18.964  0.00  0.00    +0.000 A 
ENDBRANCH  20  21
ENDBRANCH  19  20
ENDBRANCH  18  19
ENDBRANCH  16  18
ENDBRANCH   1  16
TORSDOF 6
ENDMDL
MODEL 7
REMARK VINA RESULT:      -7.3      2.311      8.196
REMARK  Name = 
REMARK  8 active torsions:
REMARK  status: ('A' for Active; 'I' for Inactive)
REMARK    1  A    between atoms: C_1  and  N_2
REMARK    2  A    between atoms: N_2  and  C_3
REMARK    3  A    between atoms: N_2  and  C_11
REMARK    4  A    between atoms: C_3  and  C_4
REMARK    5  A    between atoms: C_4  and  C_5
REMARK    6  A    between atoms: C_11  and  C_12
REMARK    7  A    between atoms: C_14  and  C_15
REMARK    8  A    between atoms: N_20  and  C_21
REMARK                            x       y       z     vdW  Elec       q    Type
REMARK                         _______ _______ _______ _____ _____    ______ ____
ROOT
ATOM      1  C   UNL     1       1.746   7.930  20.329  0.00  0.00    +0.000 A 
ATOM      2  C   UNL     1       2.090   6.613  20.144  0.00  0.00    +0.000 A 
ATOM      3  C   UNL     1       2.319   6.501  18.750  0.00  0.00    +0.000 A 
ATOM      4  N   UNL     1       2.213   7.701  18.155  0.00  0.00    +0.000 NA
ATOM      5  O   UNL     1       1.819   8.581  19.144  0.00  0.00    +0.000 OA
ENDROOT
BRANCH   3   6
ATOM      6  C   UNL     1       2.657   5.269  18.032  0.00  0.00    +0.000 C 
ATOM      7  O   UNL     1       1.760   4.504  17.675  0.00  0.00    +0.000 OA
ATOM      8  N   UNL     1       3.992   5.020  17.710  0.00  0.00    +0.000 N 
ATOM      9  C   UNL     1       4.335   3.794  17.003  0.00  0.00    +0.000 C 
ATOM     10  C   UNL     1       5.011   4.144  15.679  0.00  0.00    +0.000 C 
ATOM     11  N   UNL     1       6.191   4.974  15.905  0.00  0.00    +0.000 N 
ATOM     12  C   UNL     1       7.272   4.946  14.945  0.00  0.00    +0.000 C 
ATOM     13  C   UNL     1       6.097   6.080  16.746  0.00  0.00    +0.000 C 
ATOM     14  O   UNL     1       6.874   7.033  16.674  0.00  0.00    +0.000 OA
ATOM     15  C   UNL     1       5.107   5.955  17.915  0.00  0.00    +0.000 C 
ENDBRANCH   3   6
BRANCH   1  16
ATOM     16  C   UNL     1       1.361   8.739  21.509  0.00  0.00    +0.000 C 
BRANCH  16  18
ATOM     17  C   UNL     1      -0.544   9.758  22.605  0.00  0.00    +0.000 C 
ATOM     18  N   UNL     1       0.078   9.437  21.309  0.00  0.00    +0.000 NA
BRANCH  18  19
ATOM     19  C   UNL     1       0.268  10.693  20.552  0.00  0.00    +0.000 C 
BRANCH  19  20
ATOM     20  C   UNL     1      -1.011  11.529  20.370  0.00  0.00    +0.000 C 
BRANCH  20  21
ATOM     21  C   UNL     1      -1.735  11.150  19.100  0.00  0.00    +0.000 A 
ATOM     22  C   UNL     1      -1.150  10.255  18.193  0.00  0.00    +0.000 A 
ATOM     23  C   UNL     1      -1.809   9.925  17.008  0.00  0.00    +0.000 A 
ATOM     24  C   UNL     1      -3.051  10.486  16.720  0.00  0.00    +0.000 A 
ATOM     25  C   UNL     1      -3.637  11.378  17.616  0.00  0.00    +0.000 A 
ATOM     26  C   UNL     1      -2.983  11.711  18.801  0.00  0.00    +0.000 A 
ENDBRANCH  20  21
ENDBRANCH  19  20
ENDBRANCH  18  19
ENDBRANCH  16  18
ENDBRANCH   1  16
TORSDOF 6
ENDMDL
MODEL 8
REMARK VINA RESULT:      -7.3      5.765      9.081
REMARK  Name = 
REMARK  8 active torsions:
REMARK  status: ('A' for Active; 'I' for Inactive)
REMARK    1  A    between atoms: C_1  and  N_2
REMARK    2  A    between atoms: N_2  and  C_3
REMARK    3  A    between atoms: N_2  and  C_11
REMARK    4  A    between atoms: C_3  and  C_4
REMARK    5  A    between atoms: C_4  and  C_5
REMARK    6  A    between atoms: C_11  and  C_12
REMARK    7  A    between atoms: C_14  and  C_15
REMARK    8  A    between atoms: N_20  and  C_21
REMARK                            x       y       z     vdW  Elec       q    Type
REMARK                         _______ _______ _______ _____ _____    ______ ____
ROOT
ATOM      1  C   UNL     1       8.225   8.902  18.093  0.00  0.00    +0.000 A 
ATOM      2  C   UNL     1       7.459   8.177  17.214  0.00  0.00    +0.000 A 
ATOM      3  C   UNL     1       7.568   6.840  17.671  0.00  0.00    +0.000 A 
ATOM      4  N   UNL     1       8.277   6.786  18.812  0.00  0.00    +0.000 NA
ATOM      5  O   UNL     1       8.714   8.075  19.048  0.00  0.00    +0.000 OA
ENDROOT
BRANCH   3   6
ATOM      6  C   UNL     1       6.975   5.663  17.030  0.00  0.00    +0.000 C 
ATOM      7  O   UNL     1       7.696   4.720  16.699  0.00  0.00    +0.000 OA
ATOM      8  N   UNL     1       5.591   5.608  16.869  0.00  0.00    +0.000 N 
ATOM      9  C   UNL     1       4.997   4.443  16.226  0.00  0.00    +0.000 C 
ATOM     10  C   UNL     1       4.014   3.779  17.187  0.00  0.00    +0.000 C 
ATOM     11  N   UNL     1       2.990   4.728  17.617  0.00  0.00    +0.000 N 
ATOM     12  C   UNL     1       1.692   4.236  18.022  0.00  0.00    +0.000 C 
ATOM     13  C   UNL     1       3.373   5.993  18.059  0.00  0.00    +0.000 C 
ATOM     14  O   UNL     1       2.664   6.676  18.800  0.00  0.00    +0.000 OA
ATOM     15  C   UNL     1       4.630   6.584  17.402  0.00  0.00    +0.000 C 
ENDBRANCH   3   6
BRANCH   1  16
ATOM     16  C   UNL     1       8.578  10.337  18.213  0.00  0.00    +0.000 C 
BRANCH  16  18
ATOM     17  C   UNL     1      10.694  11.471  17.891  0.00  0.00    +0.000 C 
ATOM     18  N   UNL     1       9.941  10.531  18.740  0.00  0.00    +0.000 NA
BRANCH  18  19
ATOM     19  C   UNL     1       9.910  11.060  20.119  0.00  0.00    +0.000 C 
BRANCH  19  20
ATOM     20  C   UNL     1       9.161  12.395  20.275  0.00  0.00    +0.000 C 
BRANCH  20  21
ATOM     21  C   UNL     1       8.809  12.657  21.720  0.00  0.00    +0.000 A 
ATOM     22  C   UNL     1       9.028  13.922  22.283  0.00  0.00    +0.000 A 
ATOM     23  C   UNL     1       8.727  14.157  23.625  0.00  0.00    +0.000 A 
ATOM     24  C   UNL     1       8.209  13.131  24.414  0.00  0.00    +0.000 A 
ATOM     25  C   UNL     1       7.991  11.870  23.862  0.00  0.00    +0.000 A 
ATOM     26  C   UNL     1       8.291  11.632  22.521  0.00  0.00    +0.000 A 
ENDBRANCH  20  21
ENDBRANCH  19  20
ENDBRANCH  18  19
ENDBRANCH  16  18
ENDBRANCH   1  16
TORSDOF 6
ENDMDL
MODEL 9
REMARK VINA RESULT:      -7.2      1.626      3.316
REMARK  Name = 
REMARK  8 active torsions:
REMARK  status: ('A' for Active; 'I' for Inactive)
REMARK    1  A    between atoms: C_1  and  N_2
REMARK    2  A    between atoms: N_2  and  C_3
REMARK    3  A    between atoms: N_2  and  C_11
REMARK    4  A    between atoms: C_3  and  C_4
REMARK    5  A    between atoms: C_4  and  C_5
REMARK    6  A    between atoms: C_11  and  C_12
REMARK    7  A    between atoms: C_14  and  C_15
REMARK    8  A    between atoms: N_20  and  C_21
REMARK                            x       y       z     vdW  Elec       q    Type
REMARK                         _______ _______ _______ _____ _____    ______ ____
ROOT
ATOM      1  C   UNL     1       2.809   5.464  19.840  0.00  0.00    +0.000 A 
ATOM      2  C   UNL     1       2.878   6.674  19.194  0.00  0.00    +0.000 A 
ATOM      3  C   UNL     1       1.861   7.454  19.797  0.00  0.00    +0.000 A 
ATOM      4  N   UNL     1       1.285   6.781  20.809  0.00  0.00    +0.000 NA
ATOM      5  O   UNL     1       1.860   5.525  20.804  0.00  0.00    +0.000 OA
ENDROOT
BRANCH   3   6
ATOM      6  C   UNL     1       1.485   8.818  19.416  0.00  0.00    +0.000 C 
ATOM      7  O   UNL     1       1.341   9.102  18.225  0.00  0.00    +0.000 OA
ATOM      8  N   UNL     1       1.233   9.754  20.419  0.00  0.00    +0.000 N 
ATOM      9  C   UNL     1       0.867  11.114  20.046  0.00  0.00    +0.000 C 
ATOM     10  C   UNL     1      -0.505  11.447  20.628  0.00  0.00    +0.000 C 
ATOM     11  N   UNL     1      -0.506  11.277  22.079  0.00  0.00    +0.000 N 
ATOM     12  C   UNL     1      -1.430  12.046  22.883  0.00  0.00    +0.000 C 
ATOM     13  C   UNL     1       0.020  10.111  22.630  0.00  0.00    +0.000 C 
ATOM     14  O   UNL     1      -0.299   9.706  23.748  0.00  0.00    +0.000 OA
ATOM     15  C   UNL     1       1.185   9.468  21.860  0.00  0.00    +0.000 C 
ENDBRANCH   3   6
BRANCH   1  16
ATOM     16  C   UNL     1       3.548   4.185  19.717  0.00  0.00    +0.000 C 
BRANCH  16  18
ATOM     17  C   UNL     1       2.081   4.135  17.790  0.00  0.00    +0.000 C 
ATOM     18  N   UNL     1       3.161   3.435  18.508  0.00  0.00    +0.000 NA
BRANCH  18  19
ATOM     19  C   UNL     1       4.309   3.271  17.592  0.00  0.00    +0.000 C 
BRANCH  19  20
ATOM     20  C   UNL     1       4.573   4.477  16.674  0.00  0.00    +0.000 C 
BRANCH  20  21
ATOM     21  C   UNL     1       5.720   5.313  17.188  0.00  0.00    +0.000 A 
ATOM     22  C   UNL     1       6.660   4.760  18.069  0.00  0.00    +0.000 A 
ATOM     23  C   UNL     1       7.705   5.540  18.563  0.00  0.00    +0.000 A 
ATOM     24  C   UNL     1       7.818   6.877  18.184  0.00  0.00    +0.000 A 
ATOM     25  C   UNL     1       6.887   7.435  17.311  0.00  0.00    +0.000 A 
ATOM     26  C   UNL     1       5.840   6.658  16.815  0.00  0.00    +0.000 A 
ENDBRANCH  20  21
ENDBRANCH  19  20
ENDBRANCH  18  19
ENDBRANCH  16  18
ENDBRANCH   1  16
TORSDOF 6
ENDMDL
