MODEL 1
REMARK VINA RESULT:      -7.0      0.000      0.000
REMARK  Name = 
REMARK  10 active torsions:
REMARK  status: ('A' for Active; 'I' for Inactive)
REMARK    1  A    between atoms: C_1  and  O_2
REMARK    2  A    between atoms: O_2  and  C_3
REMARK    3  A    between atoms: C_7  and  C_8
REMARK    4  A    between atoms: C_12  and  O_13
REMARK    5  A    between atoms: O_13  and  C_14
REMARK    6  A    between atoms: C_21  and  C_22
REMARK    7  A    between atoms: C_22  and  O_24
REMARK    8  A    between atoms: O_24  and  C_25
REMARK    9  A    between atoms: C_25  and  C_26
REMARK   10  A    between atoms: C_26  and  O_27
REMARK                            x       y       z     vdW  Elec       q    Type
REMARK                         _______ _______ _______ _____ _____    ______ ____
ROOT
ATOM      1  C   UNL     1       4.949   6.301  16.886  0.00  0.00    +0.000 A 
ATOM      2  C   UNL     1       4.078   7.402  16.919  0.00  0.00    +0.000 A 
ATOM      3  C   UNL     1       3.199   7.596  17.992  0.00  0.00    +0.000 A 
ATOM      4  N   UNL     1       2.304   8.672  18.023  0.00  0.00    +0.000 N 
ATOM      5  C   UNL     1       1.453   8.885  19.092  0.00  0.00    +0.000 A 
ATOM      6  C   UNL     1       1.313   8.030  20.132  0.00  0.00    +0.000 A 
ATOM      7  C   UNL     1       2.187   6.817  20.130  0.00  0.00    +0.000 A 
ATOM      8  O   UNL     1       2.116   5.951  20.993  0.00  0.00    +0.000 OA
ATOM      9  C   UNL     1       3.173   6.654  19.026  0.00  0.00    +0.000 A 
ATOM     10  C   UNL     1       4.048   5.565  19.017  0.00  0.00    +0.000 A 
ATOM     11  C   UNL     1       4.927   5.397  17.953  0.00  0.00    +0.000 A 
ATOM     12  F   UNL     1       5.751   4.339  17.992  0.00  0.00    +0.000 F 
ATOM     13  H   UNL     1       2.430   9.431  17.360  0.00  0.00    +0.000 HD
ENDROOT
BRANCH   5  14
ATOM     14  C   UNL     1       0.764  10.191  19.048  0.00  0.00    +0.000 A 
ATOM     15  C   UNL     1      -0.482  10.339  18.435  0.00  0.00    +0.000 A 
ATOM     16  C   UNL     1      -1.111  11.586  18.413  0.00  0.00    +0.000 A 
ATOM     17  C   UNL     1      -0.473  12.699  18.964  0.00  0.00    +0.000 A 
ATOM     18  C   UNL     1       0.790  12.571  19.536  0.00  0.00    +0.000 A 
ATOM     19  C   UNL     1       1.390  11.306  19.623  0.00  0.00    +0.000 A 
BRANCH  18  20
ATOM     20  O   UNL     1       1.362  13.718  20.039  0.00  0.00    +0.000 OA
BRANCH  20  21
ATOM     21  C   UNL     1       1.961  14.604  19.169  0.00  0.00    +0.000 A 
ATOM     22  C   UNL     1       3.048  14.277  18.352  0.00  0.00    +0.000 A 
ATOM     23  C   UNL     1       3.618  15.247  17.524  0.00  0.00    +0.000 A 
ATOM     24  C   UNL     1       3.070  16.525  17.470  0.00  0.00    +0.000 A 
ATOM     25  C   UNL     1       1.947  16.836  18.238  0.00  0.00    +0.000 A 
ATOM     26  C   UNL     1       1.393  15.874  19.087  0.00  0.00    +0.000 A 
ENDBRANCH  20  21
ENDBRANCH  18  20
ENDBRANCH   5  14
BRANCH   1  28
ATOM     27  C   UNL     1       5.585   5.100  14.928  0.00  0.00    +0.000 C 
ATOM     28  O   UNL     1       5.741   6.239  15.770  0.00  0.00    +0.000 OA
ENDBRANCH   1  28
BRANCH   6  29
ATOM     29  C   UNL     1       0.371   8.297  21.258  0.00  0.00    +0.000 C 
ATOM     30  O   UNL     1      -0.777   7.879  21.320  0.00  0.00    +0.000 OA
BRANCH  29  31
ATOM     31  O   UNL     1       0.927   9.143  22.160  0.00  0.00    +0.000 OA
BRANCH  31  32
ATOM     32  C   UNL     1       0.026   9.730  23.119  0.00  0.00    +0.000 C 
BRANCH  32  33
ATOM     33  C   UNL     1      -0.861  10.817  22.517  0.00  0.00    +0.000 C 
BRANCH  33  34
ATOM     34  O   UNL     1      -0.402  12.116  22.890  0.00  0.00    +0.000 OA
ATOM     35  H   UNL     1      -1.196  12.658  23.047  0.00  0.00    +0.000 HD
ENDBRANCH  33  34
ENDBRANCH  32  33
ENDBRANCH  31  32
ENDBRANCH  29  31
ENDBRANCH   6  29
TORSDOF 9
ENDMDL
MODEL 2
REMARK VINA RESULT:      -6.9      3.147      9.336
REMARK  Name = 
REMARK  10 active torsions:
REMARK  status: ('A' for Active; 'I' for Inactive)
REMARK    1  A    between atoms: C_1  and  O_2
REMARK    2  A    between atoms: O_2  and  C_3
REMARK    3  A    between atoms: C_7  and  C_8
REMARK    4  A    between atoms: C_12  and  O_13
REMARK    5  A    between atoms: O_13  and  C_14
REMARK    6  A    between atoms: C_21  and  C_22
REMARK    7  A    between atoms: C_22  and  O_24
REMARK    8  A    between atoms: O_24  and  C_25
REMARK    9  A    between atoms: C_25  and  C_26
REMARK   10  A    between atoms: C_26  and  O_27
REMARK                            x       y       z     vdW  Elec       q    Type
REMARK                         _______ _______ _______ _____ _____    ______ ____
ROOT
ATOM      1  C   UNL     1       1.376   9.178  19.528  0.00  0.00    +0.000 A 
ATOM      2  C   UNL     1       2.389   8.683  18.691  0.00  0.00    +0.000 A 
ATOM      3  C   UNL     1       2.857   7.370  18.822  0.00  0.00    +0.000 A 
ATOM      4  N   UNL     1       3.888   6.874  18.015  0.00  0.00    +0.000 N 
ATOM      5  C   UNL     1       4.337   5.570  18.121  0.00  0.00    +0.000 A 
ATOM      6  C   UNL     1       3.923   4.700  19.072  0.00  0.00    +0.000 A 
ATOM      7  C   UNL     1       2.872   5.186  20.018  0.00  0.00    +0.000 A 
ATOM      8  O   UNL     1       2.455   4.505  20.946  0.00  0.00    +0.000 OA
ATOM      9  C   UNL     1       2.324   6.557  19.828  0.00  0.00    +0.000 A 
ATOM     10  C   UNL     1       1.300   7.028  20.654  0.00  0.00    +0.000 A 
ATOM     11  C   UNL     1       0.834   8.329  20.498  0.00  0.00    +0.000 A 
ATOM     12  F   UNL     1      -0.152   8.734  21.312  0.00  0.00    +0.000 F 
ATOM     13  H   UNL     1       4.164   7.404  17.194  0.00  0.00    +0.000 HD
ENDROOT
BRANCH   5  14
ATOM     14  C   UNL     1       5.255   5.171  17.034  0.00  0.00    +0.000 A 
ATOM     15  C   UNL     1       6.618   4.971  17.265  0.00  0.00    +0.000 A 
ATOM     16  C   UNL     1       7.459   4.590  16.218  0.00  0.00    +0.000 A 
ATOM     17  C   UNL     1       6.947   4.451  14.926  0.00  0.00    +0.000 A 
ATOM     18  C   UNL     1       5.599   4.694  14.676  0.00  0.00    +0.000 A 
ATOM     19  C   UNL     1       4.740   5.006  15.740  0.00  0.00    +0.000 A 
BRANCH  18  20
ATOM     20  O   UNL     1       5.175   4.558  13.374  0.00  0.00    +0.000 OA
BRANCH  20  21
ATOM     21  C   UNL     1       5.780   3.617  12.567  0.00  0.00    +0.000 A 
ATOM     22  C   UNL     1       5.115   2.507  12.035  0.00  0.00    +0.000 A 
ATOM     23  C   UNL     1       5.813   1.583  11.254  0.00  0.00    +0.000 A 
ATOM     24  C   UNL     1       7.156   1.795  10.958  0.00  0.00    +0.000 A 
ATOM     25  C   UNL     1       7.805   2.934  11.436  0.00  0.00    +0.000 A 
ATOM     26  C   UNL     1       7.115   3.846  12.240  0.00  0.00    +0.000 A 
ENDBRANCH  20  21
ENDBRANCH  18  20
ENDBRANCH   5  14
BRANCH   1  28
ATOM     27  C   UNL     1       1.846  11.212  18.376  0.00  0.00    +0.000 C 
ATOM     28  O   UNL     1       1.030  10.481  19.288  0.00  0.00    +0.000 OA
ENDBRANCH   1  28
BRANCH   6  29
ATOM     29  C   UNL     1       4.446   3.304  19.153  0.00  0.00    +0.000 C 
ATOM     30  O   UNL     1       5.269   2.916  19.970  0.00  0.00    +0.000 OA
BRANCH  29  31
ATOM     31  O   UNL     1       3.955   2.548  18.141  0.00  0.00    +0.000 OA
BRANCH  31  32
ATOM     32  C   UNL     1       3.004   1.532  18.513  0.00  0.00    +0.000 C 
BRANCH  32  33
ATOM     33  C   UNL     1       1.570   2.051  18.577  0.00  0.00    +0.000 C 
BRANCH  33  34
ATOM     34  O   UNL     1       1.161   2.258  19.929  0.00  0.00    +0.000 OA
ATOM     35  H   UNL     1       0.187   2.218  19.935  0.00  0.00    +0.000 HD
ENDBRANCH  33  34
ENDBRANCH  32  33
ENDBRANCH  31  32
ENDBRANCH  29  31
ENDBRANCH   6  29
TORSDOF 9
ENDMDL
MODEL 3
REMARK VINA RESULT:      -6.9      4.345      9.096
REMARK  Name = 
REMARK  10 active torsions:
REMARK  status: ('A' for Active; 'I' for Inactive)
REMARK    1  A    between atoms: C_1  and  O_2
REMARK    2  A    between atoms: O_2  and  C_3
REMARK    3  A    between atoms: C_7  and  C_8
REMARK    4  A    between atoms: C_12  and  O_13
REMARK    5  A    between atoms: O_13  and  C_14
REMARK    6  A    between atoms: C_21  and  C_22
REMARK    7  A    between atoms: C_22  and  O_24
REMARK    8  A    between atoms: O_24  and  C_25
REMARK    9  A    between atoms: C_25  and  C_26
REMARK   10  A    between atoms: C_26  and  O_27
REMARK                            x       y       z     vdW  Elec       q    Type
REMARK                         _______ _______ _______ _____ _____    ______ ____
ROOT
ATOM      1  C   UNL     1      -1.496  14.285  23.483  0.00  0.00    +0.000 A 
ATOM      2  C   UNL     1      -0.685  13.297  22.903  0.00  0.00    +0.000 A 
ATOM      3  C   UNL     1      -1.076  12.639  21.729  0.00  0.00    +0.000 A 
ATOM      4  N   UNL     1      -0.293  11.630  21.157  0.00  0.00    +0.000 N 
ATOM      5  C   UNL     1      -0.659  10.996  19.983  0.00  0.00    +0.000 A 
ATOM      6  C   UNL     1      -1.841  11.193  19.352  0.00  0.00    +0.000 A 
ATOM      7  C   UNL     1      -2.763  12.207  19.949  0.00  0.00    +0.000 A 
ATOM      8  O   UNL     1      -3.876  12.435  19.492  0.00  0.00    +0.000 OA
ATOM      9  C   UNL     1      -2.311  12.957  21.153  0.00  0.00    +0.000 A 
ATOM     10  C   UNL     1      -3.118  13.953  21.708  0.00  0.00    +0.000 A 
ATOM     11  C   UNL     1      -2.707  14.609  22.863  0.00  0.00    +0.000 A 
ATOM     12  F   UNL     1      -3.514  15.561  23.355  0.00  0.00    +0.000 F 
ATOM     13  H   UNL     1       0.662  11.511  21.481  0.00  0.00    +0.000 HD
ENDROOT
BRANCH   5  14
ATOM     14  C   UNL     1       0.403  10.139  19.418  0.00  0.00    +0.000 A 
ATOM     15  C   UNL     1       0.979  10.413  18.176  0.00  0.00    +0.000 A 
ATOM     16  C   UNL     1       1.985   9.586  17.670  0.00  0.00    +0.000 A 
ATOM     17  C   UNL     1       2.384   8.455  18.385  0.00  0.00    +0.000 A 
ATOM     18  C   UNL     1       1.783   8.147  19.603  0.00  0.00    +0.000 A 
ATOM     19  C   UNL     1       0.824   9.017  20.145  0.00  0.00    +0.000 A 
BRANCH  18  20
ATOM     20  O   UNL     1       2.215   7.005  20.236  0.00  0.00    +0.000 OA
BRANCH  20  21
ATOM     21  C   UNL     1       1.904   5.777  19.691  0.00  0.00    +0.000 A 
ATOM     22  C   UNL     1       2.184   5.421  18.367  0.00  0.00    +0.000 A 
ATOM     23  C   UNL     1       1.804   4.167  17.885  0.00  0.00    +0.000 A 
ATOM     24  C   UNL     1       1.195   3.249  18.736  0.00  0.00    +0.000 A 
ATOM     25  C   UNL     1       0.971   3.580  20.073  0.00  0.00    +0.000 A 
ATOM     26  C   UNL     1       1.327   4.844  20.550  0.00  0.00    +0.000 A 
ENDBRANCH  20  21
ENDBRANCH  18  20
ENDBRANCH   5  14
BRANCH   1  28
ATOM     27  C   UNL     1      -0.561  16.189  24.571  0.00  0.00    +0.000 C 
ATOM     28  O   UNL     1      -0.988  14.831  24.632  0.00  0.00    +0.000 OA
ENDBRANCH   1  28
BRANCH   6  29
ATOM     29  C   UNL     1      -2.197  10.475  18.093  0.00  0.00    +0.000 C 
ATOM     30  O   UNL     1      -2.461   9.283  18.023  0.00  0.00    +0.000 OA
BRANCH  29  31
ATOM     31  O   UNL     1      -2.098  11.302  17.024  0.00  0.00    +0.000 OA
BRANCH  31  32
ATOM     32  C   UNL     1      -3.201  11.274  16.097  0.00  0.00    +0.000 C 
BRANCH  32  33
ATOM     33  C   UNL     1      -2.965  10.336  14.917  0.00  0.00    +0.000 C 
BRANCH  33  34
ATOM     34  O   UNL     1      -4.198   9.979  14.293  0.00  0.00    +0.000 OA
ATOM     35  H   UNL     1      -4.551  10.792  13.887  0.00  0.00    +0.000 HD
ENDBRANCH  33  34
ENDBRANCH  32  33
ENDBRANCH  31  32
ENDBRANCH  29  31
ENDBRANCH   6  29
TORSDOF 9
ENDMDL
MODEL 4
REMARK VINA RESULT:      -6.9      3.681      8.182
REMARK  Name = 
REMARK  10 active torsions:
REMARK  status: ('A' for Active; 'I' for Inactive)
REMARK    1  A    between atoms: C_1  and  O_2
REMARK    2  A    between atoms: O_2  and  C_3
REMARK    3  A    between atoms: C_7  and  C_8
REMARK    4  A    between atoms: C_12  and  O_13
REMARK    5  A    between atoms: O_13  and  C_14
REMARK    6  A    between atoms: C_21  and  C_22
REMARK    7  A    between atoms: C_22  and  O_24
REMARK    8  A    between atoms: O_24  and  C_25
REMARK    9  A    between atoms: C_25  and  C_26
REMARK   10  A    between atoms: C_26  and  O_27
REMARK                            x       y       z     vdW  Elec       q    Type
REMARK                         _______ _______ _______ _____ _____    ______ ____
ROOT
ATOM      1  C   UNL     1      -3.858  10.613  15.854  0.00  0.00    +0.000 A 
ATOM      2  C   UNL     1      -2.629   9.954  16.021  0.00  0.00    +0.000 A 
ATOM      3  C   UNL     1      -1.810  10.220  17.125  0.00  0.00    +0.000 A 
ATOM      4  N   UNL     1      -0.569   9.594  17.288  0.00  0.00    +0.000 N 
ATOM      5  C   UNL     1       0.232   9.831  18.390  0.00  0.00    +0.000 A 
ATOM      6  C   UNL     1      -0.037  10.762  19.336  0.00  0.00    +0.000 A 
ATOM      7  C   UNL     1      -1.314  11.524  19.188  0.00  0.00    +0.000 A 
ATOM      8  O   UNL     1      -1.639  12.422  19.956  0.00  0.00    +0.000 OA
ATOM      9  C   UNL     1      -2.217  11.185  18.053  0.00  0.00    +0.000 A 
ATOM     10  C   UNL     1      -3.446  11.833  17.912  0.00  0.00    +0.000 A 
ATOM     11  C   UNL     1      -4.255  11.543  16.819  0.00  0.00    +0.000 A 
ATOM     12  F   UNL     1      -5.428  12.189  16.729  0.00  0.00    +0.000 F 
ATOM     13  H   UNL     1      -0.348   8.791  16.706  0.00  0.00    +0.000 HD
ENDROOT
BRANCH   5  14
ATOM     14  C   UNL     1       1.379   8.907  18.498  0.00  0.00    +0.000 A 
ATOM     15  C   UNL     1       2.452   8.966  17.606  0.00  0.00    +0.000 A 
ATOM     16  C   UNL     1       3.524   8.081  17.736  0.00  0.00    +0.000 A 
ATOM     17  C   UNL     1       3.504   7.102  18.732  0.00  0.00    +0.000 A 
ATOM     18  C   UNL     1       2.417   7.004  19.597  0.00  0.00    +0.000 A 
ATOM     19  C   UNL     1       1.374   7.939  19.512  0.00  0.00    +0.000 A 
BRANCH  18  20
ATOM     20  O   UNL     1       2.461   6.000  20.537  0.00  0.00    +0.000 OA
BRANCH  20  21
ATOM     21  C   UNL     1       2.019   4.740  20.193  0.00  0.00    +0.000 A 
ATOM     22  C   UNL     1       1.735   3.735  21.124  0.00  0.00    +0.000 A 
ATOM     23  C   UNL     1       1.325   2.473  20.688  0.00  0.00    +0.000 A 
ATOM     24  C   UNL     1       1.145   2.232  19.329  0.00  0.00    +0.000 A 
ATOM     25  C   UNL     1       1.369   3.251  18.403  0.00  0.00    +0.000 A 
ATOM     26  C   UNL     1       1.805   4.506  18.836  0.00  0.00    +0.000 A 
ENDBRANCH  20  21
ENDBRANCH  18  20
ENDBRANCH   5  14
BRANCH   1  28
ATOM     27  C   UNL     1      -3.768   9.959  13.563  0.00  0.00    +0.000 C 
ATOM     28  O   UNL     1      -4.542  10.257  14.722  0.00  0.00    +0.000 OA
ENDBRANCH   1  28
BRANCH   6  29
ATOM     29  C   UNL     1       0.866  10.991  20.502  0.00  0.00    +0.000 C 
ATOM     30  O   UNL     1       0.698  10.516  21.616  0.00  0.00    +0.000 OA
BRANCH  29  31
ATOM     31  O   UNL     1       1.846  11.871  20.185  0.00  0.00    +0.000 OA
BRANCH  31  32
ATOM     32  C   UNL     1       1.702  13.202  20.720  0.00  0.00    +0.000 C 
BRANCH  32  33
ATOM     33  C   UNL     1       1.488  14.259  19.640  0.00  0.00    +0.000 C 
BRANCH  33  34
ATOM     34  O   UNL     1       0.133  14.707  19.623  0.00  0.00    +0.000 OA
ATOM     35  H   UNL     1      -0.105  14.911  20.546  0.00  0.00    +0.000 HD
ENDBRANCH  33  34
ENDBRANCH  32  33
ENDBRANCH  31  32
ENDBRANCH  29  31
ENDBRANCH   6  29
TORSDOF 9
ENDMDL
MODEL 5
REMARK VINA RESULT:      -6.8      3.206      9.162
REMARK  Name = 
REMARK  10 active torsions:
REMARK  status: ('A' for Active; 'I' for Inactive)
REMARK    1  A    between atoms: C_1  and  O_2
REMARK    2  A    between atoms: O_2  and  C_3
REMARK    3  A    between atoms: C_7  and  C_8
REMARK    4  A    between atoms: C_12  and  O_13
REMARK    5  A    between atoms: O_13  and  C_14
REMARK    6  A    between atoms: C_21  and  C_22
REMARK    7  A    between atoms: C_22  and  O_24
REMARK    8  A    between atoms: O_24  and  C_25
REMARK    9  A    between atoms: C_25  and  C_26
REMARK   10  A    between atoms: C_26  and  O_27
REMARK                            x       y       z     vdW  Elec       q    Type
REMARK                         _______ _______ _______ _____ _____    ______ ____
ROOT
ATOM      1  C   UNL     1       1.139   8.880  20.102  0.00  0.00    +0.000 A 
ATOM      2  C   UNL     1       2.200   8.449  19.289  0.00  0.00    +0.000 A 
ATOM      3  C   UNL     1       2.641   7.120  19.322  0.00  0.00    +0.000 A 
ATOM      4  N   UNL     1       3.718   6.684  18.541  0.00  0.00    +0.000 N 
ATOM      5  C   UNL     1       4.141   5.367  18.548  0.00  0.00    +0.000 A 
ATOM      6  C   UNL     1       3.652   4.418  19.381  0.00  0.00    +0.000 A 
ATOM      7  C   UNL     1       2.546   4.831  20.298  0.00  0.00    +0.000 A 
ATOM      8  O   UNL     1       2.058   4.072  21.126  0.00  0.00    +0.000 OA
ATOM      9  C   UNL     1       2.030   6.225  20.206  0.00  0.00    +0.000 A 
ATOM     10  C   UNL     1       0.959   6.634  21.005  0.00  0.00    +0.000 A 
ATOM     11  C   UNL     1       0.522   7.953  20.946  0.00  0.00    +0.000 A 
ATOM     12  F   UNL     1      -0.512   8.297  21.729  0.00  0.00    +0.000 F 
ATOM     13  H   UNL     1       4.055   7.285  17.795  0.00  0.00    +0.000 HD
ENDROOT
BRANCH   5  14
ATOM     14  C   UNL     1       5.125   5.057  17.491  0.00  0.00    +0.000 A 
ATOM     15  C   UNL     1       6.439   4.697  17.798  0.00  0.00    +0.000 A 
ATOM     16  C   UNL     1       7.345   4.405  16.776  0.00  0.00    +0.000 A 
ATOM     17  C   UNL     1       6.951   4.517  15.441  0.00  0.00    +0.000 A 
ATOM     18  C   UNL     1       5.656   4.920  15.124  0.00  0.00    +0.000 A 
ATOM     19  C   UNL     1       4.726   5.143  16.149  0.00  0.00    +0.000 A 
BRANCH  18  20
ATOM     20  O   UNL     1       5.351   5.028  13.786  0.00  0.00    +0.000 OA
BRANCH  20  21
ATOM     21  C   UNL     1       5.818   4.067  12.913  0.00  0.00    +0.000 A 
ATOM     22  C   UNL     1       7.147   3.986  12.485  0.00  0.00    +0.000 A 
ATOM     23  C   UNL     1       7.528   3.001  11.571  0.00  0.00    +0.000 A 
ATOM     24  C   UNL     1       6.598   2.066  11.127  0.00  0.00    +0.000 A 
ATOM     25  C   UNL     1       5.286   2.108  11.599  0.00  0.00    +0.000 A 
ATOM     26  C   UNL     1       4.896   3.109  12.494  0.00  0.00    +0.000 A 
ENDBRANCH  20  21
ENDBRANCH  18  20
ENDBRANCH   5  14
BRANCH   1  28
ATOM     27  C   UNL     1       1.166  10.832  18.732  0.00  0.00    +0.000 C 
ATOM     28  O   UNL     1       0.827  10.208  19.968  0.00  0.00    +0.000 OA
ENDBRANCH   1  28
BRANCH   6  29
ATOM     29  C   UNL     1       4.150   3.011  19.360  0.00  0.00    +0.000 C 
ATOM     30  O   UNL     1       4.889   2.522  20.203  0.00  0.00    +0.000 OA
BRANCH  29  31
ATOM     31  O   UNL     1       3.748   2.377  18.232  0.00  0.00    +0.000 OA
BRANCH  31  32
ATOM     32  C   UNL     1       2.368   2.558  17.860  0.00  0.00    +0.000 C 
BRANCH  32  33
ATOM     33  C   UNL     1       1.407   1.734  18.714  0.00  0.00    +0.000 C 
BRANCH  33  34
ATOM     34  O   UNL     1       0.273   2.509  19.100  0.00  0.00    +0.000 OA
ATOM     35  H   UNL     1      -0.494   2.138  18.627  0.00  0.00    +0.000 HD
ENDBRANCH  33  34
ENDBRANCH  32  33
ENDBRANCH  31  32
ENDBRANCH  29  31
ENDBRANCH   6  29
TORSDOF 9
ENDMDL
MODEL 6
REMARK VINA RESULT:      -6.8      3.972      9.057
REMARK  Name = 
REMARK  10 active torsions:
REMARK  status: ('A' for Active; 'I' for Inactive)
REMARK    1  A    between atoms: C_1  and  O_2
REMARK    2  A    between atoms: O_2  and  C_3
REMARK    3  A    between atoms: C_7  and  C_8
REMARK    4  A    between atoms: C_12  and  O_13
REMARK    5  A    between atoms: O_13  and  C_14
REMARK    6  A    between atoms: C_21  and  C_22
REMARK    7  A    between atoms: C_22  and  O_24
REMARK    8  A    between atoms: O_24  and  C_25
REMARK    9  A    between atoms: C_25  and  C_26
REMARK   10  A    between atoms: C_26  and  O_27
REMARK                            x       y       z     vdW  Elec       q    Type
REMARK                         _______ _______ _______ _____ _____    ______ ____
ROOT
ATOM      1  C   UNL     1      -3.606  12.863  24.220  0.00  0.00    +0.000 A 
ATOM      2  C   UNL     1      -3.059  12.040  23.222  0.00  0.00    +0.000 A 
ATOM      3  C   UNL     1      -1.855  12.374  22.590  0.00  0.00    +0.000 A 
ATOM      4  N   UNL     1      -1.314  11.580  21.572  0.00  0.00    +0.000 N 
ATOM      5  C   UNL     1      -0.112  11.889  20.963  0.00  0.00    +0.000 A 
ATOM      6  C   UNL     1       0.585  13.027  21.194  0.00  0.00    +0.000 A 
ATOM      7  C   UNL     1       0.028  13.961  22.220  0.00  0.00    +0.000 A 
ATOM      8  O   UNL     1       0.546  15.041  22.479  0.00  0.00    +0.000 OA
ATOM      9  C   UNL     1      -1.212  13.566  22.943  0.00  0.00    +0.000 A 
ATOM     10  C   UNL     1      -1.733  14.384  23.948  0.00  0.00    +0.000 A 
ATOM     11  C   UNL     1      -2.921  14.027  24.579  0.00  0.00    +0.000 A 
ATOM     12  F   UNL     1      -3.379  14.842  25.541  0.00  0.00    +0.000 F 
ATOM     13  H   UNL     1      -1.692  10.648  21.427  0.00  0.00    +0.000 HD
ENDROOT
BRANCH   5  14
ATOM     14  C   UNL     1       0.403  10.814  20.091  0.00  0.00    +0.000 A 
ATOM     15  C   UNL     1       0.163  10.811  18.715  0.00  0.00    +0.000 A 
ATOM     16  C   UNL     1       0.667   9.782  17.916  0.00  0.00    +0.000 A 
ATOM     17  C   UNL     1       1.373   8.728  18.498  0.00  0.00    +0.000 A 
ATOM     18  C   UNL     1       1.577   8.697  19.875  0.00  0.00    +0.000 A 
ATOM     19  C   UNL     1       1.134   9.766  20.669  0.00  0.00    +0.000 A 
BRANCH  18  20
ATOM     20  O   UNL     1       2.263   7.615  20.376  0.00  0.00    +0.000 OA
BRANCH  20  21
ATOM     21  C   UNL     1       2.053   6.371  19.818  0.00  0.00    +0.000 A 
ATOM     22  C   UNL     1       2.478   6.013  18.534  0.00  0.00    +0.000 A 
ATOM     23  C   UNL     1       2.194   4.742  18.032  0.00  0.00    +0.000 A 
ATOM     24  C   UNL     1       1.536   3.810  18.830  0.00  0.00    +0.000 A 
ATOM     25  C   UNL     1       1.166   4.144  20.133  0.00  0.00    +0.000 A 
ATOM     26  C   UNL     1       1.426   5.425  20.627  0.00  0.00    +0.000 A 
ENDBRANCH  20  21
ENDBRANCH  18  20
ENDBRANCH   5  14
BRANCH   1  28
ATOM     27  C   UNL     1      -5.982  12.775  24.045  0.00  0.00    +0.000 C 
ATOM     28  O   UNL     1      -4.791  12.412  24.739  0.00  0.00    +0.000 OA
ENDBRANCH   1  28
BRANCH   6  29
ATOM     29  C   UNL     1       1.874  13.323  20.502  0.00  0.00    +0.000 C 
ATOM     30  O   UNL     1       1.983  13.561  19.308  0.00  0.00    +0.000 OA
BRANCH  29  31
ATOM     31  O   UNL     1       2.917  13.200  21.357  0.00  0.00    +0.000 OA
BRANCH  31  32
ATOM     32  C   UNL     1       3.927  14.226  21.277  0.00  0.00    +0.000 C 
BRANCH  32  33
ATOM     33  C   UNL     1       4.345  14.761  22.644  0.00  0.00    +0.000 C 
BRANCH  33  34
ATOM     34  O   UNL     1       3.318  15.574  23.211  0.00  0.00    +0.000 OA
ATOM     35  H   UNL     1       2.473  15.243  22.856  0.00  0.00    +0.000 HD
ENDBRANCH  33  34
ENDBRANCH  32  33
ENDBRANCH  31  32
ENDBRANCH  29  31
ENDBRANCH   6  29
TORSDOF 9
ENDMDL
MODEL 7
REMARK VINA RESULT:      -6.7      2.715      8.401
REMARK  Name = 
REMARK  10 active torsions:
REMARK  status: ('A' for Active; 'I' for Inactive)
REMARK    1  A    between atoms: C_1  and  O_2
REMARK    2  A    between atoms: O_2  and  C_3
REMARK    3  A    between atoms: C_7  and  C_8
REMARK    4  A    between atoms: C_12  and  O_13
REMARK    5  A    between atoms: O_13  and  C_14
REMARK    6  A    between atoms: C_21  and  C_22
REMARK    7  A    between atoms: C_22  and  O_24
REMARK    8  A    between atoms: O_24  and  C_25
REMARK    9  A    between atoms: C_25  and  C_26
REMARK   10  A    between atoms: C_26  and  O_27
REMARK                            x       y       z     vdW  Elec       q    Type
REMARK                         _______ _______ _______ _____ _____    ______ ____
ROOT
ATOM      1  C   UNL     1       1.690  11.264  18.514  0.00  0.00    +0.000 A 
ATOM      2  C   UNL     1       2.301  10.130  17.953  0.00  0.00    +0.000 A 
ATOM      3  C   UNL     1       2.191   8.875  18.565  0.00  0.00    +0.000 A 
ATOM      4  N   UNL     1       2.821   7.743  18.034  0.00  0.00    +0.000 N 
ATOM      5  C   UNL     1       2.695   6.495  18.617  0.00  0.00    +0.000 A 
ATOM      6  C   UNL     1       2.071   6.269  19.797  0.00  0.00    +0.000 A 
ATOM      7  C   UNL     1       1.435   7.448  20.460  0.00  0.00    +0.000 A 
ATOM      8  O   UNL     1       0.884   7.373  21.551  0.00  0.00    +0.000 OA
ATOM      9  C   UNL     1       1.489   8.766  19.770  0.00  0.00    +0.000 A 
ATOM     10  C   UNL     1       0.859   9.881  20.327  0.00  0.00    +0.000 A 
ATOM     11  C   UNL     1       0.961  11.117  19.698  0.00  0.00    +0.000 A 
ATOM     12  F   UNL     1       0.335  12.156  20.270  0.00  0.00    +0.000 F 
ATOM     13  H   UNL     1       3.194   7.788  17.091  0.00  0.00    +0.000 HD
ENDROOT
BRANCH   5  14
ATOM     14  C   UNL     1       3.230   5.397  17.786  0.00  0.00    +0.000 A 
ATOM     15  C   UNL     1       2.472   4.259  17.502  0.00  0.00    +0.000 A 
ATOM     16  C   UNL     1       3.004   3.240  16.709  0.00  0.00    +0.000 A 
ATOM     17  C   UNL     1       4.314   3.336  16.236  0.00  0.00    +0.000 A 
ATOM     18  C   UNL     1       5.095   4.444  16.553  0.00  0.00    +0.000 A 
ATOM     19  C   UNL     1       4.537   5.501  17.288  0.00  0.00    +0.000 A 
BRANCH  18  20
ATOM     20  O   UNL     1       6.382   4.455  16.068  0.00  0.00    +0.000 OA
BRANCH  20  21
ATOM     21  C   UNL     1       6.587   4.396  14.705  0.00  0.00    +0.000 A 
ATOM     22  C   UNL     1       5.864   3.561  13.846  0.00  0.00    +0.000 A 
ATOM     23  C   UNL     1       6.158   3.539  12.481  0.00  0.00    +0.000 A 
ATOM     24  C   UNL     1       7.134   4.387  11.966  0.00  0.00    +0.000 A 
ATOM     25  C   UNL     1       7.814   5.264  12.812  0.00  0.00    +0.000 A 
ATOM     26  C   UNL     1       7.539   5.269  14.182  0.00  0.00    +0.000 A 
ENDBRANCH  20  21
ENDBRANCH  18  20
ENDBRANCH   5  14
BRANCH   1  28
ATOM     27  C   UNL     1       2.724  13.410  18.413  0.00  0.00    +0.000 C 
ATOM     28  O   UNL     1       1.892  12.422  17.810  0.00  0.00    +0.000 OA
ENDBRANCH   1  28
BRANCH   6  29
ATOM     29  C   UNL     1       1.971   4.904  20.393  0.00  0.00    +0.000 C 
ATOM     30  O   UNL     1       0.921   4.335  20.659  0.00  0.00    +0.000 OA
BRANCH  29  31
ATOM     31  O   UNL     1       3.201   4.417  20.686  0.00  0.00    +0.000 OA
BRANCH  31  32
ATOM     32  C   UNL     1       3.272   3.008  20.978  0.00  0.00    +0.000 C 
BRANCH  32  33
ATOM     33  C   UNL     1       4.280   2.267  20.102  0.00  0.00    +0.000 C 
BRANCH  33  34
ATOM     34  O   UNL     1       5.298   3.151  19.635  0.00  0.00    +0.000 OA
ATOM     35  H   UNL     1       5.706   2.723  18.860  0.00  0.00    +0.000 HD
ENDBRANCH  33  34
ENDBRANCH  32  33
ENDBRANCH  31  32
ENDBRANCH  29  31
ENDBRANCH   6  29
TORSDOF 9
ENDMDL
MODEL 8
REMARK VINA RESULT:      -6.7      3.753      8.656
REMARK  Name = 
REMARK  10 active torsions:
REMARK  status: ('A' for Active; 'I' for Inactive)
REMARK    1  A    between atoms: C_1  and  O_2
REMARK    2  A    between atoms: O_2  and  C_3
REMARK    3  A    between atoms: C_7  and  C_8
REMARK    4  A    between atoms: C_12  and  O_13
REMARK    5  A    between atoms: O_13  and  C_14
REMARK    6  A    between atoms: C_21  and  C_22
REMARK    7  A    between atoms: C_22  and  O_24
REMARK    8  A    between atoms: O_24  and  C_25
REMARK    9  A    between atoms: C_25  and  C_26
REMARK   10  A    between atoms: C_26  and  O_27
REMARK                            x       y       z     vdW  Elec       q    Type
REMARK                         _______ _______ _______ _____ _____    ______ ____
ROOT
ATOM      1  C   UNL     1      -4.977  11.524  18.512  0.00  0.00    +0.000 A 
ATOM      2  C   UNL     1      -3.838  10.735  18.279  0.00  0.00    +0.000 A 
ATOM      3  C   UNL     1      -2.594  11.086  18.817  0.00  0.00    +0.000 A 
ATOM      4  N   UNL     1      -1.445  10.326  18.567  0.00  0.00    +0.000 N 
ATOM      5  C   UNL     1      -0.218  10.651  19.117  0.00  0.00    +0.000 A 
ATOM      6  C   UNL     1       0.017  11.776  19.832  0.00  0.00    +0.000 A 
ATOM      7  C   UNL     1      -1.151  12.676  20.078  0.00  0.00    +0.000 A 
ATOM      8  O   UNL     1      -1.049  13.742  20.672  0.00  0.00    +0.000 OA
ATOM      9  C   UNL     1      -2.487  12.261  19.568  0.00  0.00    +0.000 A 
ATOM     10  C   UNL     1      -3.615  13.044  19.826  0.00  0.00    +0.000 A 
ATOM     11  C   UNL     1      -4.847  12.671  19.300  0.00  0.00    +0.000 A 
ATOM     12  F   UNL     1      -5.901  13.453  19.579  0.00  0.00    +0.000 F 
ATOM     13  H   UNL     1      -1.550   9.402  18.158  0.00  0.00    +0.000 HD
ENDROOT
BRANCH   5  14
ATOM     14  C   UNL     1       0.808   9.605  18.932  0.00  0.00    +0.000 A 
ATOM     15  C   UNL     1       1.571   9.528  17.764  0.00  0.00    +0.000 A 
ATOM     16  C   UNL     1       2.538   8.531  17.621  0.00  0.00    +0.000 A 
ATOM     17  C   UNL     1       2.712   7.578  18.627  0.00  0.00    +0.000 A 
ATOM     18  C   UNL     1       1.924   7.618  19.774  0.00  0.00    +0.000 A 
ATOM     19  C   UNL     1       1.004   8.662  19.951  0.00  0.00    +0.000 A 
BRANCH  18  20
ATOM     20  O   UNL     1       2.141   6.632  20.710  0.00  0.00    +0.000 OA
BRANCH  20  21
ATOM     21  C   UNL     1       2.188   5.316  20.298  0.00  0.00    +0.000 A 
ATOM     22  C   UNL     1       3.342   4.697  19.806  0.00  0.00    +0.000 A 
ATOM     23  C   UNL     1       3.294   3.368  19.379  0.00  0.00    +0.000 A 
ATOM     24  C   UNL     1       2.112   2.643  19.494  0.00  0.00    +0.000 A 
ATOM     25  C   UNL     1       0.977   3.240  20.041  0.00  0.00    +0.000 A 
ATOM     26  C   UNL     1       1.016   4.578  20.445  0.00  0.00    +0.000 A 
ENDBRANCH  20  21
ENDBRANCH  18  20
ENDBRANCH   5  14
BRANCH   1  28
ATOM     27  C   UNL     1      -7.025  10.324  18.729  0.00  0.00    +0.000 C 
ATOM     28  O   UNL     1      -6.118  11.061  17.913  0.00  0.00    +0.000 OA
ENDBRANCH   1  28
BRANCH   6  29
ATOM     29  C   UNL     1       1.363  12.090  20.396  0.00  0.00    +0.000 C 
ATOM     30  O   UNL     1       1.732  11.792  21.524  0.00  0.00    +0.000 OA
BRANCH  29  31
ATOM     31  O   UNL     1       2.088  12.831  19.524  0.00  0.00    +0.000 OA
BRANCH  31  32
ATOM     32  C   UNL     1       2.387  14.180  19.934  0.00  0.00    +0.000 C 
BRANCH  32  33
ATOM     33  C   UNL     1       3.774  14.321  20.555  0.00  0.00    +0.000 C 
BRANCH  33  34
ATOM     34  O   UNL     1       3.739  14.040  21.954  0.00  0.00    +0.000 OA
ATOM     35  H   UNL     1       4.383  13.326  22.112  0.00  0.00    +0.000 HD
ENDBRANCH  33  34
ENDBRANCH  32  33
ENDBRANCH  31  32
ENDBRANCH  29  31
ENDBRANCH   6  29
TORSDOF 9
ENDMDL
MODEL 9
REMARK VINA RESULT:      -6.6      3.208      4.955
REMARK  Name = 
REMARK  10 active torsions:
REMARK  status: ('A' for Active; 'I' for Inactive)
REMARK    1  A    between atoms: C_1  and  O_2
REMARK    2  A    between atoms: O_2  and  C_3
REMARK    3  A    between atoms: C_7  and  C_8
REMARK    4  A    between atoms: C_12  and  O_13
REMARK    5  A    between atoms: O_13  and  C_14
REMARK    6  A    between atoms: C_21  and  C_22
REMARK    7  A    between atoms: C_22  and  O_24
REMARK    8  A    between atoms: O_24  and  C_25
REMARK    9  A    between atoms: C_25  and  C_26
REMARK   10  A    between atoms: C_26  and  O_27
REMARK                            x       y       z     vdW  Elec       q    Type
REMARK                         _______ _______ _______ _____ _____    ______ ____
ROOT
ATOM      1  C   UNL     1       6.164   5.436  15.358  0.00  0.00    +0.000 A 
ATOM      2  C   UNL     1       5.259   6.326  15.958  0.00  0.00    +0.000 A 
ATOM      3  C   UNL     1       4.504   5.944  17.074  0.00  0.00    +0.000 A 
ATOM      4  N   UNL     1       3.575   6.809  17.663  0.00  0.00    +0.000 N 
ATOM      5  C   UNL     1       2.846   6.449  18.782  0.00  0.00    +0.000 A 
ATOM      6  C   UNL     1       2.863   5.212  19.333  0.00  0.00    +0.000 A 
ATOM      7  C   UNL     1       3.781   4.210  18.709  0.00  0.00    +0.000 A 
ATOM      8  O   UNL     1       3.847   3.048  19.092  0.00  0.00    +0.000 OA
ATOM      9  C   UNL     1       4.637   4.642  17.570  0.00  0.00    +0.000 A 
ATOM     10  C   UNL     1       5.549   3.754  16.996  0.00  0.00    +0.000 A 
ATOM     11  C   UNL     1       6.304   4.155  15.900  0.00  0.00    +0.000 A 
ATOM     12  F   UNL     1       7.170   3.267  15.387  0.00  0.00    +0.000 F 
ATOM     13  H   UNL     1       3.590   7.792  17.406  0.00  0.00    +0.000 HD
ENDROOT
BRANCH   5  14
ATOM     14  C   UNL     1       2.102   7.571  19.391  0.00  0.00    +0.000 A 
ATOM     15  C   UNL     1       1.843   7.618  20.762  0.00  0.00    +0.000 A 
ATOM     16  C   UNL     1       1.141   8.695  21.308  0.00  0.00    +0.000 A 
ATOM     17  C   UNL     1       0.656   9.706  20.476  0.00  0.00    +0.000 A 
ATOM     18  C   UNL     1       0.869   9.645  19.101  0.00  0.00    +0.000 A 
ATOM     19  C   UNL     1       1.636   8.602  18.562  0.00  0.00    +0.000 A 
BRANCH  18  20
ATOM     20  O   UNL     1       0.341  10.668  18.347  0.00  0.00    +0.000 OA
BRANCH  20  21
ATOM     21  C   UNL     1      -1.018  10.700  18.119  0.00  0.00    +0.000 A 
ATOM     22  C   UNL     1      -1.679   9.843  17.232  0.00  0.00    +0.000 A 
ATOM     23  C   UNL     1      -3.055   9.967  17.035  0.00  0.00    +0.000 A 
ATOM     24  C   UNL     1      -3.781  10.906  17.761  0.00  0.00    +0.000 A 
ATOM     25  C   UNL     1      -3.134  11.720  18.691  0.00  0.00    +0.000 A 
ATOM     26  C   UNL     1      -1.752  11.616  18.870  0.00  0.00    +0.000 A 
ENDBRANCH  20  21
ENDBRANCH  18  20
ENDBRANCH   5  14
BRANCH   1  28
ATOM     27  C   UNL     1       7.195   5.027  13.247  0.00  0.00    +0.000 C 
ATOM     28  O   UNL     1       6.822   5.947  14.270  0.00  0.00    +0.000 OA
ENDBRANCH   1  28
BRANCH   6  29
ATOM     29  C   UNL     1       2.048   4.867  20.535  0.00  0.00    +0.000 C 
ATOM     30  O   UNL     1       2.451   4.923  21.688  0.00  0.00    +0.000 OA
BRANCH  29  31
ATOM     31  O   UNL     1       0.832   4.395  20.170  0.00  0.00    +0.000 OA
BRANCH  31  32
ATOM     32  C   UNL     1       0.630   2.976  20.323  0.00  0.00    +0.000 C 
BRANCH  32  33
ATOM     33  C   UNL     1       0.614   2.229  18.992  0.00  0.00    +0.000 C 
BRANCH  33  34
ATOM     34  O   UNL     1       0.805   3.126  17.899  0.00  0.00    +0.000 OA
ATOM     35  H   UNL     1       1.577   3.678  18.122  0.00  0.00    +0.000 HD
ENDBRANCH  33  34
ENDBRANCH  32  33
ENDBRANCH  31  32
ENDBRANCH  29  31
ENDBRANCH   6  29
TORSDOF 9
ENDMDL
