MODEL 1
REMARK VINA RESULT:      -6.7      0.000      0.000
REMARK  Name = 
REMARK  4 active torsions:
REMARK  status: ('A' for Active; 'I' for Inactive)
REMARK    1  A    between atoms: N_6  and  C_7
REMARK    2  A    between atoms: C_7  and  C_8
REMARK    3  A    between atoms: N_10  and  C_11
REMARK    4  A    between atoms: C_11  and  C_12
REMARK                            x       y       z     vdW  Elec       q    Type
REMARK                         _______ _______ _______ _____ _____    ______ ____
ROOT
ATOM      1  C   UNL     1       5.863   5.895  16.192  0.00  0.00    +0.000 C 
ATOM      2  O   UNL     1       5.370   6.845  15.600  0.00  0.00    +0.000 OA
ATOM      3  N   UNL     1       5.300   5.442  17.352  0.00  0.00    +0.000 N 
ATOM      4  H   UNL     1       5.723   4.632  17.832  0.00  0.00    +0.000 HD
ENDROOT
BRANCH   1   5
ATOM      5  C   UNL     1       7.124   5.269  15.641  0.00  0.00    +0.000 C 
BRANCH   5  11
ATOM      6  N   UNL     1       8.641   5.906  13.208  0.00  0.00    +0.000 NA
ATOM      7  C   UNL     1       7.669   5.070  13.190  0.00  0.00    +0.000 A 
ATOM      8  S   UNL     1       7.171   4.233  11.818  0.00  0.00    +0.000 S 
ATOM      9  C   UNL     1       5.957   3.409  12.645  0.00  0.00    +0.000 A 
ATOM     10  C   UNL     1       5.975   3.814  13.976  0.00  0.00    +0.000 A 
ATOM     11  N   UNL     1       6.927   4.742  14.281  0.00  0.00    +0.000 N 
ATOM     12  H   UNL     1       9.178   6.114  12.353  0.00  0.00    +0.000 HD
ENDBRANCH   5  11
ENDBRANCH   1   5
BRANCH   3  13
ATOM     13  C   UNL     1       4.145   6.103  17.942  0.00  0.00    +0.000 C 
BRANCH  13  14
ATOM     14  C   UNL     1       3.429   5.244  18.969  0.00  0.00    +0.000 A 
ATOM     15  C   UNL     1       3.666   3.856  18.994  0.00  0.00    +0.000 A 
ATOM     16  C   UNL     1       2.992   3.030  19.899  0.00  0.00    +0.000 A 
ATOM     17  C   UNL     1       2.072   3.576  20.794  0.00  0.00    +0.000 A 
ATOM     18 CL   UNL     1       1.220   2.535  21.923  0.00  0.00    +0.000 Cl
ATOM     19  C   UNL     1       1.824   4.951  20.786  0.00  0.00    +0.000 A 
ATOM     20  C   UNL     1       2.489   5.788  19.878  0.00  0.00    +0.000 A 
ATOM     21 CL   UNL     1       2.106   7.506  19.903  0.00  0.00    +0.000 Cl
ENDBRANCH  13  14
ENDBRANCH   3  13
TORSDOF 4
ENDMDL
MODEL 2
REMARK VINA RESULT:      -6.5      4.314      6.674
REMARK  Name = 
REMARK  4 active torsions:
REMARK  status: ('A' for Active; 'I' for Inactive)
REMARK    1  A    between atoms: N_6  and  C_7
REMARK    2  A    between atoms: C_7  and  C_8
REMARK    3  A    between atoms: N_10  and  C_11
REMARK    4  A    between atoms: C_11  and  C_12
REMARK                            x       y       z     vdW  Elec       q    Type
REMARK                         _______ _______ _______ _____ _____    ______ ____
ROOT
ATOM      1  C   UNL     1       3.531   6.183  19.055  0.00  0.00    +0.000 C 
ATOM      2  O   UNL     1       3.816   7.048  18.240  0.00  0.00    +0.000 OA
ATOM      3  N   UNL     1       4.496   5.335  19.523  0.00  0.00    +0.000 N 
ATOM      4  H   UNL     1       4.240   4.618  20.219  0.00  0.00    +0.000 HD
ENDROOT
BRANCH   1   5
ATOM      5  C   UNL     1       2.092   6.044  19.497  0.00  0.00    +0.000 C 
BRANCH   5  11
ATOM      6  N   UNL     1       1.400   4.097  17.410  0.00  0.00    +0.000 NA
ATOM      7  C   UNL     1       1.397   3.776  18.651  0.00  0.00    +0.000 A 
ATOM      8  S   UNL     1       1.036   2.236  19.226  0.00  0.00    +0.000 S 
ATOM      9  C   UNL     1       1.279   2.675  20.833  0.00  0.00    +0.000 A 
ATOM     10  C   UNL     1       1.637   4.020  20.876  0.00  0.00    +0.000 A 
ATOM     11  N   UNL     1       1.701   4.635  19.661  0.00  0.00    +0.000 N 
ATOM     12  H   UNL     1       1.170   3.404  16.682  0.00  0.00    +0.000 HD
ENDBRANCH   5  11
ENDBRANCH   1   5
BRANCH   3  13
ATOM     13  C   UNL     1       5.863   5.398  19.026  0.00  0.00    +0.000 C 
BRANCH  13  14
ATOM     14  C   UNL     1       5.979   5.044  17.554  0.00  0.00    +0.000 A 
ATOM     15  C   UNL     1       5.299   3.912  17.061  0.00  0.00    +0.000 A 
ATOM     16  C   UNL     1       5.417   3.534  15.721  0.00  0.00    +0.000 A 
ATOM     17  C   UNL     1       6.213   4.279  14.850  0.00  0.00    +0.000 A 
ATOM     18 CL   UNL     1       6.366   3.795  13.169  0.00  0.00    +0.000 Cl
ATOM     19  C   UNL     1       6.892   5.405  15.319  0.00  0.00    +0.000 A 
ATOM     20  C   UNL     1       6.787   5.790  16.663  0.00  0.00    +0.000 A 
ATOM     21 CL   UNL     1       7.696   7.202  17.194  0.00  0.00    +0.000 Cl
ENDBRANCH  13  14
ENDBRANCH   3  13
TORSDOF 4
ENDMDL
MODEL 3
REMARK VINA RESULT:      -6.5      1.327      1.650
REMARK  Name = 
REMARK  4 active torsions:
REMARK  status: ('A' for Active; 'I' for Inactive)
REMARK    1  A    between atoms: N_6  and  C_7
REMARK    2  A    between atoms: C_7  and  C_8
REMARK    3  A    between atoms: N_10  and  C_11
REMARK    4  A    between atoms: C_11  and  C_12
REMARK                            x       y       z     vdW  Elec       q    Type
REMARK                         _______ _______ _______ _____ _____    ______ ____
ROOT
ATOM      1  C   UNL     1       5.539   5.951  16.008  0.00  0.00    +0.000 C 
ATOM      2  O   UNL     1       5.014   6.854  15.373  0.00  0.00    +0.000 OA
ATOM      3  N   UNL     1       4.945   5.475  17.143  0.00  0.00    +0.000 N 
ATOM      4  H   UNL     1       5.396   4.704  17.661  0.00  0.00    +0.000 HD
ENDROOT
BRANCH   1   5
ATOM      5  C   UNL     1       6.870   5.409  15.539  0.00  0.00    +0.000 C 
BRANCH   5  11
ATOM      6  N   UNL     1       8.566   5.885  13.189  0.00  0.00    +0.000 NA
ATOM      7  C   UNL     1       7.596   5.049  13.154  0.00  0.00    +0.000 A 
ATOM      8  S   UNL     1       7.199   4.121  11.807  0.00  0.00    +0.000 S 
ATOM      9  C   UNL     1       5.924   3.352  12.594  0.00  0.00    +0.000 A 
ATOM     10  C   UNL     1       5.844   3.845  13.893  0.00  0.00    +0.000 A 
ATOM     11  N   UNL     1       6.773   4.792  14.206  0.00  0.00    +0.000 N 
ATOM     12  H   UNL     1       9.167   6.037  12.365  0.00  0.00    +0.000 HD
ENDBRANCH   5  11
ENDBRANCH   1   5
BRANCH   3  13
ATOM     13  C   UNL     1       3.715   6.060  17.657  0.00  0.00    +0.000 C 
BRANCH  13  14
ATOM     14  C   UNL     1       3.025   5.184  18.688  0.00  0.00    +0.000 A 
ATOM     15  C   UNL     1       2.853   5.668  20.000  0.00  0.00    +0.000 A 
ATOM     16  C   UNL     1       2.259   4.872  20.984  0.00  0.00    +0.000 A 
ATOM     17  C   UNL     1       1.827   3.582  20.676  0.00  0.00    +0.000 A 
ATOM     18 CL   UNL     1       1.091   2.582  21.918  0.00  0.00    +0.000 Cl
ATOM     19  C   UNL     1       1.987   3.086  19.381  0.00  0.00    +0.000 A 
ATOM     20  C   UNL     1       2.587   3.872  18.387  0.00  0.00    +0.000 A 
ATOM     21 CL   UNL     1       2.786   3.171  16.784  0.00  0.00    +0.000 Cl
ENDBRANCH  13  14
ENDBRANCH   3  13
TORSDOF 4
ENDMDL
MODEL 4
REMARK VINA RESULT:      -6.4      6.106      7.896
REMARK  Name = 
REMARK  4 active torsions:
REMARK  status: ('A' for Active; 'I' for Inactive)
REMARK    1  A    between atoms: N_6  and  C_7
REMARK    2  A    between atoms: C_7  and  C_8
REMARK    3  A    between atoms: N_10  and  C_11
REMARK    4  A    between atoms: C_11  and  C_12
REMARK                            x       y       z     vdW  Elec       q    Type
REMARK                         _______ _______ _______ _____ _____    ______ ____
ROOT
ATOM      1  C   UNL     1       7.861   7.634  17.959  0.00  0.00    +0.000 C 
ATOM      2  O   UNL     1       7.374   7.723  16.841  0.00  0.00    +0.000 OA
ATOM      3  N   UNL     1       8.474   8.714  18.529  0.00  0.00    +0.000 N 
ATOM      4  H   UNL     1       8.869   8.624  19.478  0.00  0.00    +0.000 HD
ENDROOT
BRANCH   1   5
ATOM      5  C   UNL     1       7.811   6.301  18.670  0.00  0.00    +0.000 C 
BRANCH   5  11
ATOM      6  N   UNL     1       7.487   4.418  16.440  0.00  0.00    +0.000 NA
ATOM      7  C   UNL     1       6.528   4.659  17.255  0.00  0.00    +0.000 A 
ATOM      8  S   UNL     1       5.015   3.927  17.174  0.00  0.00    +0.000 S 
ATOM      9  C   UNL     1       4.442   4.743  18.531  0.00  0.00    +0.000 A 
ATOM     10  C   UNL     1       5.455   5.568  19.012  0.00  0.00    +0.000 A 
ATOM     11  N   UNL     1       6.617   5.525  18.300  0.00  0.00    +0.000 N 
ATOM     12  H   UNL     1       7.371   3.745  15.667  0.00  0.00    +0.000 HD
ENDBRANCH   5  11
ENDBRANCH   1   5
BRANCH   3  13
ATOM     13  C   UNL     1       8.614   9.972  17.810  0.00  0.00    +0.000 C 
BRANCH  13  14
ATOM     14  C   UNL     1       9.089  11.112  18.693  0.00  0.00    +0.000 A 
ATOM     15  C   UNL     1       9.877  10.826  19.825  0.00  0.00    +0.000 A 
ATOM     16  C   UNL     1      10.297  11.848  20.682  0.00  0.00    +0.000 A 
ATOM     17  C   UNL     1       9.938  13.172  20.423  0.00  0.00    +0.000 A 
ATOM     18 CL   UNL     1      10.459  14.451  21.507  0.00  0.00    +0.000 Cl
ATOM     19  C   UNL     1       9.159  13.475  19.304  0.00  0.00    +0.000 A 
ATOM     20  C   UNL     1       8.727  12.458  18.442  0.00  0.00    +0.000 A 
ATOM     21 CL   UNL     1       7.722  12.909  17.068  0.00  0.00    +0.000 Cl
ENDBRANCH  13  14
ENDBRANCH   3  13
TORSDOF 4
ENDMDL
MODEL 5
REMARK VINA RESULT:      -6.3      4.109      6.971
REMARK  Name = 
REMARK  4 active torsions:
REMARK  status: ('A' for Active; 'I' for Inactive)
REMARK    1  A    between atoms: N_6  and  C_7
REMARK    2  A    between atoms: C_7  and  C_8
REMARK    3  A    between atoms: N_10  and  C_11
REMARK    4  A    between atoms: C_11  and  C_12
REMARK                            x       y       z     vdW  Elec       q    Type
REMARK                         _______ _______ _______ _____ _____    ______ ____
ROOT
ATOM      1  C   UNL     1       3.912   5.919  19.051  0.00  0.00    +0.000 C 
ATOM      2  O   UNL     1       4.684   5.088  19.507  0.00  0.00    +0.000 OA
ATOM      3  N   UNL     1       4.332   6.789  18.084  0.00  0.00    +0.000 N 
ATOM      4  H   UNL     1       3.663   7.477  17.702  0.00  0.00    +0.000 HD
ENDROOT
BRANCH   1   5
ATOM      5  C   UNL     1       2.508   5.991  19.607  0.00  0.00    +0.000 C 
BRANCH   5  11
ATOM      6  N   UNL     1       1.401   4.220  17.542  0.00  0.00    +0.000 NA
ATOM      7  C   UNL     1       1.422   3.875  18.776  0.00  0.00    +0.000 A 
ATOM      8  S   UNL     1       0.863   2.396  19.352  0.00  0.00    +0.000 S 
ATOM      9  C   UNL     1       1.267   2.756  20.947  0.00  0.00    +0.000 A 
ATOM     10  C   UNL     1       1.830   4.029  20.984  0.00  0.00    +0.000 A 
ATOM     11  N   UNL     1       1.914   4.655  19.776  0.00  0.00    +0.000 N 
ATOM     12  H   UNL     1       1.023   3.587  16.820  0.00  0.00    +0.000 HD
ENDBRANCH   5  11
ENDBRANCH   1   5
BRANCH   3  13
ATOM     13  C   UNL     1       5.710   6.792  17.616  0.00  0.00    +0.000 C 
BRANCH  13  14
ATOM     14  C   UNL     1       5.925   5.916  16.395  0.00  0.00    +0.000 A 
ATOM     15  C   UNL     1       5.147   6.136  15.241  0.00  0.00    +0.000 A 
ATOM     16  C   UNL     1       5.290   5.321  14.114  0.00  0.00    +0.000 A 
ATOM     17  C   UNL     1       6.212   4.274  14.119  0.00  0.00    +0.000 A 
ATOM     18 CL   UNL     1       6.382   3.246  12.705  0.00  0.00    +0.000 Cl
ATOM     19  C   UNL     1       6.994   4.041  15.253  0.00  0.00    +0.000 A 
ATOM     20  C   UNL     1       6.854   4.847  16.391  0.00  0.00    +0.000 A 
ATOM     21 CL   UNL     1       7.850   4.477  17.795  0.00  0.00    +0.000 Cl
ENDBRANCH  13  14
ENDBRANCH   3  13
TORSDOF 4
ENDMDL
MODEL 6
REMARK VINA RESULT:      -6.3      4.765      6.576
REMARK  Name = 
REMARK  4 active torsions:
REMARK  status: ('A' for Active; 'I' for Inactive)
REMARK    1  A    between atoms: N_6  and  C_7
REMARK    2  A    between atoms: C_7  and  C_8
REMARK    3  A    between atoms: N_10  and  C_11
REMARK    4  A    between atoms: C_11  and  C_12
REMARK                            x       y       z     vdW  Elec       q    Type
REMARK                         _______ _______ _______ _____ _____    ______ ____
ROOT
ATOM      1  C   UNL     1       2.634   6.115  19.914  0.00  0.00    +0.000 C 
ATOM      2  O   UNL     1       2.172   5.295  20.695  0.00  0.00    +0.000 OA
ATOM      3  N   UNL     1       2.297   7.435  20.027  0.00  0.00    +0.000 N 
ATOM      4  H   UNL     1       2.705   8.115  19.367  0.00  0.00    +0.000 HD
ENDROOT
BRANCH   1   5
ATOM      5  C   UNL     1       3.541   5.634  18.805  0.00  0.00    +0.000 C 
BRANCH   5  11
ATOM      6  N   UNL     1       5.328   3.374  19.375  0.00  0.00    +0.000 NA
ATOM      7  C   UNL     1       4.196   3.203  18.798  0.00  0.00    +0.000 A 
ATOM      8  S   UNL     1       3.594   1.702  18.333  0.00  0.00    +0.000 S 
ATOM      9  C   UNL     1       2.164   2.356  17.730  0.00  0.00    +0.000 A 
ATOM     10  C   UNL     1       2.199   3.736  17.910  0.00  0.00    +0.000 A 
ATOM     11  N   UNL     1       3.331   4.209  18.502  0.00  0.00    +0.000 N 
ATOM     12  H   UNL     1       5.944   2.575  19.585  0.00  0.00    +0.000 HD
ENDBRANCH   5  11
ENDBRANCH   1   5
BRANCH   3  13
ATOM     13  C   UNL     1       1.346   7.890  21.031  0.00  0.00    +0.000 C 
BRANCH  13  14
ATOM     14  C   UNL     1       0.656   9.189  20.650  0.00  0.00    +0.000 A 
ATOM     15  C   UNL     1       0.704   9.630  19.313  0.00  0.00    +0.000 A 
ATOM     16  C   UNL     1       0.115  10.841  18.937  0.00  0.00    +0.000 A 
ATOM     17  C   UNL     1      -0.532  11.631  19.888  0.00  0.00    +0.000 A 
ATOM     18 CL   UNL     1      -1.262  13.155  19.413  0.00  0.00    +0.000 Cl
ATOM     19  C   UNL     1      -0.591  11.209  21.218  0.00  0.00    +0.000 A 
ATOM     20  C   UNL     1       0.001  10.000  21.608  0.00  0.00    +0.000 A 
ATOM     21 CL   UNL     1      -0.085   9.546  23.307  0.00  0.00    +0.000 Cl
ENDBRANCH  13  14
ENDBRANCH   3  13
TORSDOF 4
ENDMDL
MODEL 7
REMARK VINA RESULT:      -6.2      4.529      7.118
REMARK  Name = 
REMARK  4 active torsions:
REMARK  status: ('A' for Active; 'I' for Inactive)
REMARK    1  A    between atoms: N_6  and  C_7
REMARK    2  A    between atoms: C_7  and  C_8
REMARK    3  A    between atoms: N_10  and  C_11
REMARK    4  A    between atoms: C_11  and  C_12
REMARK                            x       y       z     vdW  Elec       q    Type
REMARK                         _______ _______ _______ _____ _____    ______ ____
ROOT
ATOM      1  C   UNL     1       2.604   5.630  19.869  0.00  0.00    +0.000 C 
ATOM      2  O   UNL     1       1.859   4.839  19.310  0.00  0.00    +0.000 OA
ATOM      3  N   UNL     1       3.952   5.408  19.890  0.00  0.00    +0.000 N 
ATOM      4  H   UNL     1       4.568   6.093  20.356  0.00  0.00    +0.000 HD
ENDROOT
BRANCH   1   5
ATOM      5  C   UNL     1       2.001   6.827  20.570  0.00  0.00    +0.000 C 
BRANCH   5  11
ATOM      6  N   UNL     1       0.472   9.291  21.030  0.00  0.00    +0.000 NA
ATOM      7  C   UNL     1       1.084   9.082  19.924  0.00  0.00    +0.000 A 
ATOM      8  S   UNL     1       1.114  10.172  18.642  0.00  0.00    +0.000 S 
ATOM      9  C   UNL     1       2.086   9.176  17.694  0.00  0.00    +0.000 A 
ATOM     10  C   UNL     1       2.361   8.014  18.409  0.00  0.00    +0.000 A 
ATOM     11  N   UNL     1       1.801   7.959  19.651  0.00  0.00    +0.000 N 
ATOM     12  H   UNL     1      -0.052  10.165  21.191  0.00  0.00    +0.000 HD
ENDBRANCH   5  11
ENDBRANCH   1   5
BRANCH   3  13
ATOM     13  C   UNL     1       4.530   4.206  19.304  0.00  0.00    +0.000 C 
BRANCH  13  14
ATOM     14  C   UNL     1       5.222   4.465  17.978  0.00  0.00    +0.000 A 
ATOM     15  C   UNL     1       4.606   4.042  16.783  0.00  0.00    +0.000 A 
ATOM     16  C   UNL     1       5.235   4.228  15.548  0.00  0.00    +0.000 A 
ATOM     17  C   UNL     1       6.487   4.840  15.484  0.00  0.00    +0.000 A 
ATOM     18 CL   UNL     1       7.278   5.063  13.933  0.00  0.00    +0.000 Cl
ATOM     19  C   UNL     1       7.113   5.268  16.658  0.00  0.00    +0.000 A 
ATOM     20  C   UNL     1       6.495   5.081  17.902  0.00  0.00    +0.000 A 
ATOM     21 CL   UNL     1       7.355   5.617  19.342  0.00  0.00    +0.000 Cl
ENDBRANCH  13  14
ENDBRANCH   3  13
TORSDOF 4
ENDMDL
MODEL 8
REMARK VINA RESULT:      -6.2      4.436      6.999
REMARK  Name = 
REMARK  4 active torsions:
REMARK  status: ('A' for Active; 'I' for Inactive)
REMARK    1  A    between atoms: N_6  and  C_7
REMARK    2  A    between atoms: C_7  and  C_8
REMARK    3  A    between atoms: N_10  and  C_11
REMARK    4  A    between atoms: C_11  and  C_12
REMARK                            x       y       z     vdW  Elec       q    Type
REMARK                         _______ _______ _______ _____ _____    ______ ____
ROOT
ATOM      1  C   UNL     1       6.437   5.092  18.109  0.00  0.00    +0.000 C 
ATOM      2  O   UNL     1       7.483   4.474  18.241  0.00  0.00    +0.000 OA
ATOM      3  N   UNL     1       6.162   5.735  16.935  0.00  0.00    +0.000 N 
ATOM      4  H   UNL     1       5.269   6.242  16.837  0.00  0.00    +0.000 HD
ENDROOT
BRANCH   1   5
ATOM      5  C   UNL     1       5.482   5.166  19.280  0.00  0.00    +0.000 C 
BRANCH   5  11
ATOM      6  N   UNL     1       5.116   2.330  19.947  0.00  0.00    +0.000 NA
ATOM      7  C   UNL     1       4.177   3.016  19.409  0.00  0.00    +0.000 A 
ATOM      8  S   UNL     1       2.649   2.407  19.053  0.00  0.00    +0.000 S 
ATOM      9  C   UNL     1       2.100   3.878  18.444  0.00  0.00    +0.000 A 
ATOM     10  C   UNL     1       3.132   4.808  18.536  0.00  0.00    +0.000 A 
ATOM     11  N   UNL     1       4.290   4.329  19.071  0.00  0.00    +0.000 N 
ATOM     12  H   UNL     1       4.976   1.338  20.192  0.00  0.00    +0.000 HD
ENDBRANCH   5  11
ENDBRANCH   1   5
BRANCH   3  13
ATOM     13  C   UNL     1       7.121   5.751  15.839  0.00  0.00    +0.000 C 
BRANCH  13  14
ATOM     14  C   UNL     1       6.665   4.943  14.638  0.00  0.00    +0.000 A 
ATOM     15  C   UNL     1       5.507   4.146  14.740  0.00  0.00    +0.000 A 
ATOM     16  C   UNL     1       5.082   3.358  13.667  0.00  0.00    +0.000 A 
ATOM     17  C   UNL     1       5.805   3.351  12.473  0.00  0.00    +0.000 A 
ATOM     18 CL   UNL     1       5.274   2.351  11.131  0.00  0.00    +0.000 Cl
ATOM     19  C   UNL     1       6.955   4.135  12.352  0.00  0.00    +0.000 A 
ATOM     20  C   UNL     1       7.394   4.925  13.424  0.00  0.00    +0.000 A 
ATOM     21 CL   UNL     1       8.868   5.864  13.211  0.00  0.00    +0.000 Cl
ENDBRANCH  13  14
ENDBRANCH   3  13
TORSDOF 4
ENDMDL
MODEL 9
REMARK VINA RESULT:      -6.2      5.656      6.740
REMARK  Name = 
REMARK  4 active torsions:
REMARK  status: ('A' for Active; 'I' for Inactive)
REMARK    1  A    between atoms: N_6  and  C_7
REMARK    2  A    between atoms: C_7  and  C_8
REMARK    3  A    between atoms: N_10  and  C_11
REMARK    4  A    between atoms: C_11  and  C_12
REMARK                            x       y       z     vdW  Elec       q    Type
REMARK                         _______ _______ _______ _____ _____    ______ ____
ROOT
ATOM      1  C   UNL     1       8.276   9.188  18.165  0.00  0.00    +0.000 C 
ATOM      2  O   UNL     1       8.968   8.549  18.944  0.00  0.00    +0.000 OA
ATOM      3  N   UNL     1       7.513   8.540  17.234  0.00  0.00    +0.000 N 
ATOM      4  H   UNL     1       6.925   9.094  16.592  0.00  0.00    +0.000 HD
ENDROOT
BRANCH   1   5
ATOM      5  C   UNL     1       8.317  10.698  18.224  0.00  0.00    +0.000 C 
BRANCH   5  11
ATOM      6  N   UNL     1       9.449  11.046  20.911  0.00  0.00    +0.000 NA
ATOM      7  C   UNL     1      10.124  11.331  19.860  0.00  0.00    +0.000 A 
ATOM      8  S   UNL     1      11.709  11.896  19.881  0.00  0.00    +0.000 S 
ATOM      9  C   UNL     1      11.805  11.972  18.202  0.00  0.00    +0.000 A 
ATOM     10  C   UNL     1      10.590  11.553  17.669  0.00  0.00    +0.000 A 
ATOM     11  N   UNL     1       9.651  11.198  18.591  0.00  0.00    +0.000 N 
ATOM     12  H   UNL     1       9.858  11.157  21.851  0.00  0.00    +0.000 HD
ENDBRANCH   5  11
ENDBRANCH   1   5
BRANCH   3  13
ATOM     13  C   UNL     1       7.545   7.090  17.106  0.00  0.00    +0.000 C 
BRANCH  13  14
ATOM     14  C   UNL     1       6.287   6.419  17.628  0.00  0.00    +0.000 A 
ATOM     15  C   UNL     1       5.082   6.556  16.911  0.00  0.00    +0.000 A 
ATOM     16  C   UNL     1       3.897   5.986  17.385  0.00  0.00    +0.000 A 
ATOM     17  C   UNL     1       3.895   5.268  18.582  0.00  0.00    +0.000 A 
ATOM     18 CL   UNL     1       2.402   4.562  19.179  0.00  0.00    +0.000 Cl
ATOM     19  C   UNL     1       5.080   5.119  19.306  0.00  0.00    +0.000 A 
ATOM     20  C   UNL     1       6.273   5.692  18.844  0.00  0.00    +0.000 A 
ATOM     21 CL   UNL     1       7.722   5.490  19.823  0.00  0.00    +0.000 Cl
ENDBRANCH  13  14
ENDBRANCH   3  13
TORSDOF 4
ENDMDL
