MODEL 1
REMARK VINA RESULT:      -7.2      0.000      0.000
REMARK  Name = 
REMARK  11 active torsions:
REMARK  status: ('A' for Active; 'I' for Inactive)
REMARK    1  A    between atoms: C_1  and  C_2
REMARK    2  A    between atoms: C_2  and  O_3
REMARK    3  A    between atoms: O_3  and  C_4
REMARK    4  A    between atoms: N_6  and  C_7
REMARK    5  A    between atoms: C_7  and  N_9
REMARK    6  A    between atoms: N_9  and  C_10
REMARK    7  A    between atoms: N_9  and  C_20
REMARK    8  A    between atoms: C_10  and  C_11
REMARK    9  A    between atoms: C_11  and  C_13
REMARK   10  A    between atoms: C_23  and  S_24
REMARK   11  A    between atoms: S_24  and  N_25
REMARK                            x       y       z     vdW  Elec       q    Type
REMARK                         _______ _______ _______ _____ _____    ______ ____
ROOT
ATOM      1  N   UNL     1       3.130   4.242  18.377  0.00  0.00    +0.000 N 
ENDROOT
BRANCH   1   2
ATOM      2  C   UNL     1       2.638   5.407  19.064  0.00  0.00    +0.000 A 
ATOM      3  C   UNL     1       2.714   6.682  18.488  0.00  0.00    +0.000 A 
ATOM      4  C   UNL     1       2.194   7.798  19.150  0.00  0.00    +0.000 A 
ATOM      5  C   UNL     1       1.572   7.636  20.389  0.00  0.00    +0.000 A 
ATOM      6  C   UNL     1       1.510   6.384  20.994  0.00  0.00    +0.000 A 
ATOM      7  C   UNL     1       2.040   5.277  20.331  0.00  0.00    +0.000 A 
BRANCH   5   8
ATOM      8  S   UNL     1       0.857   9.034  21.199  0.00  0.00    +0.000 S 
ATOM      9  O   UNL     1       1.019  10.204  20.369  0.00  0.00    +0.000 OA
ATOM     10  O   UNL     1      -0.410   8.653  21.771  0.00  0.00    +0.000 OA
BRANCH   8  11
ATOM     11  N   UNL     1       1.910   9.227  22.492  0.00  0.00    +0.000 NA
ATOM     12  H   UNL     1       1.466   9.767  23.234  0.00  0.00    +0.000 HD
ATOM     13  H   UNL     1       2.280   8.324  22.788  0.00  0.00    +0.000 HD
ENDBRANCH   8  11
ENDBRANCH   5   8
ENDBRANCH   1   2
BRANCH   1  14
ATOM     14  C   UNL     1       2.906   2.969  18.890  0.00  0.00    +0.000 C 
ATOM     15  S   UNL     1       1.485   2.086  18.744  0.00  0.00    +0.000 S 
BRANCH  14  18
ATOM     16  C   UNL     1       4.027   2.142  20.926  0.00  0.00    +0.000 C 
ATOM     17  O   UNL     1       3.165   2.362  21.764  0.00  0.00    +0.000 OA
ATOM     18  N   UNL     1       3.947   2.366  19.570  0.00  0.00    +0.000 N 
ATOM     19  H   UNL     1       4.858   2.463  19.148  0.00  0.00    +0.000 HD
BRANCH  16  20
ATOM     20  O   UNL     1       5.296   1.746  21.210  0.00  0.00    +0.000 OA
BRANCH  20  22
ATOM     21  C   UNL     1       6.377  -0.092  22.279  0.00  0.00    +0.000 C 
ATOM     22  C   UNL     1       5.560   0.341  21.076  0.00  0.00    +0.000 C 
ENDBRANCH  20  22
ENDBRANCH  16  20
ENDBRANCH  14  18
ENDBRANCH   1  14
BRANCH   1  23
ATOM     23  C   UNL     1       3.629   4.435  17.003  0.00  0.00    +0.000 C 
BRANCH  23  24
ATOM     24  C   UNL     1       5.148   4.293  16.816  0.00  0.00    +0.000 C 
ATOM     25  O   UNL     1       5.684   3.327  16.277  0.00  0.00    +0.000 OA
BRANCH  24  26
ATOM     26  C   UNL     1       6.014   5.395  17.353  0.00  0.00    +0.000 A 
ATOM     27  C   UNL     1       6.943   5.175  18.380  0.00  0.00    +0.000 A 
ATOM     28  C   UNL     1       7.800   6.202  18.792  0.00  0.00    +0.000 A 
ATOM     29  C   UNL     1       7.729   7.454  18.184  0.00  0.00    +0.000 A 
ATOM     30 CL   UNL     1       8.834   8.687  18.646  0.00  0.00    +0.000 Cl
ATOM     31  C   UNL     1       6.780   7.701  17.195  0.00  0.00    +0.000 A 
ATOM     32  C   UNL     1       5.918   6.675  16.785  0.00  0.00    +0.000 A 
ENDBRANCH  24  26
ENDBRANCH  23  24
ENDBRANCH   1  23
TORSDOF 10
ENDMDL
MODEL 2
REMARK VINA RESULT:      -7.0      4.662      9.174
REMARK  Name = 
REMARK  11 active torsions:
REMARK  status: ('A' for Active; 'I' for Inactive)
REMARK    1  A    between atoms: C_1  and  C_2
REMARK    2  A    between atoms: C_2  and  O_3
REMARK    3  A    between atoms: O_3  and  C_4
REMARK    4  A    between atoms: N_6  and  C_7
REMARK    5  A    between atoms: C_7  and  N_9
REMARK    6  A    between atoms: N_9  and  C_10
REMARK    7  A    between atoms: N_9  and  C_20
REMARK    8  A    between atoms: C_10  and  C_11
REMARK    9  A    between atoms: C_11  and  C_13
REMARK   10  A    between atoms: C_23  and  S_24
REMARK   11  A    between atoms: S_24  and  N_25
REMARK                            x       y       z     vdW  Elec       q    Type
REMARK                         _______ _______ _______ _____ _____    ______ ____
ROOT
ATOM      1  N   UNL     1       1.310   8.904  19.505  0.00  0.00    +0.000 N 
ENDROOT
BRANCH   1   2
ATOM      2  C   UNL     1       2.139   7.780  19.157  0.00  0.00    +0.000 A 
ATOM      3  C   UNL     1       2.179   6.627  19.952  0.00  0.00    +0.000 A 
ATOM      4  C   UNL     1       2.957   5.528  19.579  0.00  0.00    +0.000 A 
ATOM      5  C   UNL     1       3.686   5.572  18.389  0.00  0.00    +0.000 A 
ATOM      6  C   UNL     1       3.685   6.717  17.598  0.00  0.00    +0.000 A 
ATOM      7  C   UNL     1       2.913   7.814  17.983  0.00  0.00    +0.000 A 
BRANCH   5   8
ATOM      8  S   UNL     1       4.620   4.161  17.882  0.00  0.00    +0.000 S 
ATOM      9  O   UNL     1       3.898   2.959  18.224  0.00  0.00    +0.000 OA
ATOM     10  O   UNL     1       5.162   4.398  16.567  0.00  0.00    +0.000 OA
BRANCH   8  11
ATOM     11  N   UNL     1       5.921   4.242  18.940  0.00  0.00    +0.000 NA
ATOM     12  H   UNL     1       5.597   4.190  19.906  0.00  0.00    +0.000 HD
ATOM     13  H   UNL     1       6.626   3.548  18.692  0.00  0.00    +0.000 HD
ENDBRANCH   8  11
ENDBRANCH   5   8
ENDBRANCH   1   2
BRANCH   1  14
ATOM     14  C   UNL     1       1.100   9.938  18.599  0.00  0.00    +0.000 C 
ATOM     15  S   UNL     1       2.019  11.338  18.475  0.00  0.00    +0.000 S 
BRANCH  14  18
ATOM     16  C   UNL     1      -1.227  10.291  17.860  0.00  0.00    +0.000 C 
ATOM     17  O   UNL     1      -1.645  11.001  18.762  0.00  0.00    +0.000 OA
ATOM     18  N   UNL     1       0.051   9.801  17.711  0.00  0.00    +0.000 N 
ATOM     19  H   UNL     1       0.073   8.974  17.133  0.00  0.00    +0.000 HD
BRANCH  16  20
ATOM     20  O   UNL     1      -2.002   9.743  16.888  0.00  0.00    +0.000 OA
BRANCH  20  22
ATOM     21  C   UNL     1      -2.951  10.119  14.731  0.00  0.00    +0.000 C 
ATOM     22  C   UNL     1      -2.818  10.660  16.144  0.00  0.00    +0.000 C 
ENDBRANCH  20  22
ENDBRANCH  16  20
ENDBRANCH  14  18
ENDBRANCH   1  14
BRANCH   1  23
ATOM     23  C   UNL     1       0.493   8.781  20.727  0.00  0.00    +0.000 C 
BRANCH  23  24
ATOM     24  C   UNL     1       0.862   9.733  21.877  0.00  0.00    +0.000 C 
ATOM     25  O   UNL     1       1.859   9.598  22.584  0.00  0.00    +0.000 OA
BRANCH  24  26
ATOM     26  C   UNL     1      -0.075  10.872  22.156  0.00  0.00    +0.000 A 
ATOM     27  C   UNL     1       0.060  12.115  21.521  0.00  0.00    +0.000 A 
ATOM     28  C   UNL     1      -0.885  13.125  21.734  0.00  0.00    +0.000 A 
ATOM     29  C   UNL     1      -1.965  12.900  22.585  0.00  0.00    +0.000 A 
ATOM     30 CL   UNL     1      -3.160  14.119  22.783  0.00  0.00    +0.000 Cl
ATOM     31  C   UNL     1      -2.086  11.687  23.259  0.00  0.00    +0.000 A 
ATOM     32  C   UNL     1      -1.138  10.677  23.051  0.00  0.00    +0.000 A 
ENDBRANCH  24  26
ENDBRANCH  23  24
ENDBRANCH   1  23
TORSDOF 10
ENDMDL
MODEL 3
REMARK VINA RESULT:      -6.9      4.778      9.222
REMARK  Name = 
REMARK  11 active torsions:
REMARK  status: ('A' for Active; 'I' for Inactive)
REMARK    1  A    between atoms: C_1  and  C_2
REMARK    2  A    between atoms: C_2  and  O_3
REMARK    3  A    between atoms: O_3  and  C_4
REMARK    4  A    between atoms: N_6  and  C_7
REMARK    5  A    between atoms: C_7  and  N_9
REMARK    6  A    between atoms: N_9  and  C_10
REMARK    7  A    between atoms: N_9  and  C_20
REMARK    8  A    between atoms: C_10  and  C_11
REMARK    9  A    between atoms: C_11  and  C_13
REMARK   10  A    between atoms: C_23  and  S_24
REMARK   11  A    between atoms: S_24  and  N_25
REMARK                            x       y       z     vdW  Elec       q    Type
REMARK                         _______ _______ _______ _____ _____    ______ ____
ROOT
ATOM      1  N   UNL     1       1.195   9.081  19.525  0.00  0.00    +0.000 N 
ENDROOT
BRANCH   1   2
ATOM      2  C   UNL     1       2.053   7.988  19.151  0.00  0.00    +0.000 A 
ATOM      3  C   UNL     1       2.810   8.023  17.971  0.00  0.00    +0.000 A 
ATOM      4  C   UNL     1       3.670   6.972  17.642  0.00  0.00    +0.000 A 
ATOM      5  C   UNL     1       3.792   5.884  18.509  0.00  0.00    +0.000 A 
ATOM      6  C   UNL     1       3.029   5.814  19.671  0.00  0.00    +0.000 A 
ATOM      7  C   UNL     1       2.166   6.863  19.987  0.00  0.00    +0.000 A 
BRANCH   5   8
ATOM      8  S   UNL     1       4.926   4.584  18.127  0.00  0.00    +0.000 S 
ATOM      9  O   UNL     1       6.263   4.994  18.481  0.00  0.00    +0.000 OA
ATOM     10  O   UNL     1       4.360   3.324  18.543  0.00  0.00    +0.000 OA
BRANCH   8  11
ATOM     11  N   UNL     1       4.863   4.589  16.450  0.00  0.00    +0.000 NA
ATOM     12  H   UNL     1       4.222   5.310  16.120  0.00  0.00    +0.000 HD
ATOM     13  H   UNL     1       5.803   4.647  16.058  0.00  0.00    +0.000 HD
ENDBRANCH   8  11
ENDBRANCH   5   8
ENDBRANCH   1   2
BRANCH   1  14
ATOM     14  C   UNL     1       0.972  10.138  18.649  0.00  0.00    +0.000 C 
ATOM     15  S   UNL     1       1.847  11.570  18.593  0.00  0.00    +0.000 S 
BRANCH  14  18
ATOM     16  C   UNL     1      -1.359  10.405  17.886  0.00  0.00    +0.000 C 
ATOM     17  O   UNL     1      -1.833  11.032  18.822  0.00  0.00    +0.000 OA
ATOM     18  N   UNL     1      -0.053   9.998  17.733  0.00  0.00    +0.000 N 
ATOM     19  H   UNL     1       0.027   9.212  17.106  0.00  0.00    +0.000 HD
BRANCH  16  20
ATOM     20  O   UNL     1      -2.085   9.876  16.866  0.00  0.00    +0.000 OA
BRANCH  20  22
ATOM     21  C   UNL     1      -3.050  10.079  14.694  0.00  0.00    +0.000 C 
ATOM     22  C   UNL     1      -2.686  10.821  15.968  0.00  0.00    +0.000 C 
ENDBRANCH  20  22
ENDBRANCH  16  20
ENDBRANCH  14  18
ENDBRANCH   1  14
BRANCH   1  23
ATOM     23  C   UNL     1       0.369   8.902  20.733  0.00  0.00    +0.000 C 
BRANCH  23  24
ATOM     24  C   UNL     1       0.721   9.806  21.925  0.00  0.00    +0.000 C 
ATOM     25  O   UNL     1       1.702   9.636  22.648  0.00  0.00    +0.000 OA
BRANCH  24  26
ATOM     26  C   UNL     1      -0.212  10.943  22.227  0.00  0.00    +0.000 A 
ATOM     27  C   UNL     1      -0.070  12.199  21.619  0.00  0.00    +0.000 A 
ATOM     28  C   UNL     1      -1.012  13.207  21.851  0.00  0.00    +0.000 A 
ATOM     29  C   UNL     1      -2.094  12.968  22.695  0.00  0.00    +0.000 A 
ATOM     30 CL   UNL     1      -3.286  14.188  22.917  0.00  0.00    +0.000 Cl
ATOM     31  C   UNL     1      -2.222  11.742  23.342  0.00  0.00    +0.000 A 
ATOM     32  C   UNL     1      -1.277  10.733  23.115  0.00  0.00    +0.000 A 
ENDBRANCH  24  26
ENDBRANCH  23  24
ENDBRANCH   1  23
TORSDOF 10
ENDMDL
MODEL 4
REMARK VINA RESULT:      -6.9      3.897      7.122
REMARK  Name = 
REMARK  11 active torsions:
REMARK  status: ('A' for Active; 'I' for Inactive)
REMARK    1  A    between atoms: C_1  and  C_2
REMARK    2  A    between atoms: C_2  and  O_3
REMARK    3  A    between atoms: O_3  and  C_4
REMARK    4  A    between atoms: N_6  and  C_7
REMARK    5  A    between atoms: C_7  and  N_9
REMARK    6  A    between atoms: N_9  and  C_10
REMARK    7  A    between atoms: N_9  and  C_20
REMARK    8  A    between atoms: C_10  and  C_11
REMARK    9  A    between atoms: C_11  and  C_13
REMARK   10  A    between atoms: C_23  and  S_24
REMARK   11  A    between atoms: S_24  and  N_25
REMARK                            x       y       z     vdW  Elec       q    Type
REMARK                         _______ _______ _______ _____ _____    ______ ____
ROOT
ATOM      1  N   UNL     1       2.148   7.041  18.625  0.00  0.00    +0.000 N 
ENDROOT
BRANCH   1   2
ATOM      2  C   UNL     1       3.291   6.452  17.980  0.00  0.00    +0.000 A 
ATOM      3  C   UNL     1       3.309   5.098  17.617  0.00  0.00    +0.000 A 
ATOM      4  C   UNL     1       4.410   4.549  16.954  0.00  0.00    +0.000 A 
ATOM      5  C   UNL     1       5.496   5.365  16.632  0.00  0.00    +0.000 A 
ATOM      6  C   UNL     1       5.514   6.705  17.007  0.00  0.00    +0.000 A 
ATOM      7  C   UNL     1       4.415   7.242  17.677  0.00  0.00    +0.000 A 
BRANCH   5   8
ATOM      8  S   UNL     1       6.862   4.690  15.737  0.00  0.00    +0.000 S 
ATOM      9  O   UNL     1       6.439   3.498  15.042  0.00  0.00    +0.000 OA
ATOM     10  O   UNL     1       7.578   5.760  15.087  0.00  0.00    +0.000 OA
BRANCH   8  11
ATOM     11  N   UNL     1       7.844   4.174  16.996  0.00  0.00    +0.000 NA
ATOM     12  H   UNL     1       7.368   3.461  17.549  0.00  0.00    +0.000 HD
ATOM     13  H   UNL     1       8.759   3.894  16.643  0.00  0.00    +0.000 HD
ENDBRANCH   8  11
ENDBRANCH   5   8
ENDBRANCH   1   2
BRANCH   1  14
ATOM     14  C   UNL     1       2.024   7.015  20.011  0.00  0.00    +0.000 C 
ATOM     15  S   UNL     1       1.382   8.239  20.964  0.00  0.00    +0.000 S 
BRANCH  14  18
ATOM     16  C   UNL     1       1.750   4.705  20.831  0.00  0.00    +0.000 C 
ATOM     17  O   UNL     1       0.654   4.429  20.367  0.00  0.00    +0.000 OA
ATOM     18  N   UNL     1       2.453   5.876  20.665  0.00  0.00    +0.000 N 
ATOM     19  H   UNL     1       3.121   6.025  21.406  0.00  0.00    +0.000 HD
BRANCH  16  20
ATOM     20  O   UNL     1       2.427   3.933  21.721  0.00  0.00    +0.000 OA
BRANCH  20  22
ATOM     21  C   UNL     1       3.755   2.547  20.304  0.00  0.00    +0.000 C 
ATOM     22  C   UNL     1       2.639   2.567  21.334  0.00  0.00    +0.000 C 
ENDBRANCH  20  22
ENDBRANCH  16  20
ENDBRANCH  14  18
ENDBRANCH   1  14
BRANCH   1  23
ATOM     23  C   UNL     1       1.276   7.893  17.796  0.00  0.00    +0.000 C 
BRANCH  23  24
ATOM     24  C   UNL     1       1.413   9.408  18.017  0.00  0.00    +0.000 C 
ATOM     25  O   UNL     1       2.487  10.007  18.008  0.00  0.00    +0.000 OA
BRANCH  24  26
ATOM     26  C   UNL     1       0.155  10.182  18.285  0.00  0.00    +0.000 A 
ATOM     27  C   UNL     1      -1.063   9.851  17.674  0.00  0.00    +0.000 A 
ATOM     28  C   UNL     1      -2.236  10.534  18.017  0.00  0.00    +0.000 A 
ATOM     29  C   UNL     1      -2.195  11.553  18.966  0.00  0.00    +0.000 A 
ATOM     30 CL   UNL     1      -3.652  12.337  19.435  0.00  0.00    +0.000 Cl
ATOM     31  C   UNL     1      -0.985  11.924  19.546  0.00  0.00    +0.000 A 
ATOM     32  C   UNL     1       0.190  11.245  19.200  0.00  0.00    +0.000 A 
ENDBRANCH  24  26
ENDBRANCH  23  24
ENDBRANCH   1  23
TORSDOF 10
ENDMDL
MODEL 5
REMARK VINA RESULT:      -6.9      4.767      9.222
REMARK  Name = 
REMARK  11 active torsions:
REMARK  status: ('A' for Active; 'I' for Inactive)
REMARK    1  A    between atoms: C_1  and  C_2
REMARK    2  A    between atoms: C_2  and  O_3
REMARK    3  A    between atoms: O_3  and  C_4
REMARK    4  A    between atoms: N_6  and  C_7
REMARK    5  A    between atoms: C_7  and  N_9
REMARK    6  A    between atoms: N_9  and  C_10
REMARK    7  A    between atoms: N_9  and  C_20
REMARK    8  A    between atoms: C_10  and  C_11
REMARK    9  A    between atoms: C_11  and  C_13
REMARK   10  A    between atoms: C_23  and  S_24
REMARK   11  A    between atoms: S_24  and  N_25
REMARK                            x       y       z     vdW  Elec       q    Type
REMARK                         _______ _______ _______ _____ _____    ______ ____
ROOT
ATOM      1  N   UNL     1       1.243   9.102  19.452  0.00  0.00    +0.000 N 
ENDROOT
BRANCH   1   2
ATOM      2  C   UNL     1       2.134   8.023  19.117  0.00  0.00    +0.000 A 
ATOM      3  C   UNL     1       2.271   6.903  19.948  0.00  0.00    +0.000 A 
ATOM      4  C   UNL     1       3.109   5.844  19.589  0.00  0.00    +0.000 A 
ATOM      5  C   UNL     1       3.801   5.894  18.377  0.00  0.00    +0.000 A 
ATOM      6  C   UNL     1       3.703   7.008  17.549  0.00  0.00    +0.000 A 
ATOM      7  C   UNL     1       2.872   8.065  17.920  0.00  0.00    +0.000 A 
BRANCH   5   8
ATOM      8  S   UNL     1       4.812   4.528  17.890  0.00  0.00    +0.000 S 
ATOM      9  O   UNL     1       5.363   3.897  19.064  0.00  0.00    +0.000 OA
ATOM     10  O   UNL     1       4.141   3.790  16.848  0.00  0.00    +0.000 OA
BRANCH   8  11
ATOM     11  N   UNL     1       6.087   5.326  17.144  0.00  0.00    +0.000 NA
ATOM     12  H   UNL     1       6.504   4.734  16.426  0.00  0.00    +0.000 HD
ATOM     13  H   UNL     1       5.790   6.244  16.816  0.00  0.00    +0.000 HD
ENDBRANCH   8  11
ENDBRANCH   5   8
ENDBRANCH   1   2
BRANCH   1  14
ATOM     14  C   UNL     1       1.033  10.151  18.562  0.00  0.00    +0.000 C 
ATOM     15  S   UNL     1       1.924  11.572  18.491  0.00  0.00    +0.000 S 
BRANCH  14  18
ATOM     16  C   UNL     1      -1.306  10.378  17.811  0.00  0.00    +0.000 C 
ATOM     17  O   UNL     1      -1.793  10.966  18.766  0.00  0.00    +0.000 OA
ATOM     18  N   UNL     1       0.010  10.010  17.645  0.00  0.00    +0.000 N 
ATOM     19  H   UNL     1       0.109   9.243  16.995  0.00  0.00    +0.000 HD
BRANCH  16  20
ATOM     20  O   UNL     1      -2.020   9.859  16.779  0.00  0.00    +0.000 OA
BRANCH  20  22
ATOM     21  C   UNL     1      -3.183  10.052  14.704  0.00  0.00    +0.000 C 
ATOM     22  C   UNL     1      -2.634  10.813  15.898  0.00  0.00    +0.000 C 
ENDBRANCH  20  22
ENDBRANCH  16  20
ENDBRANCH  14  18
ENDBRANCH   1  14
BRANCH   1  23
ATOM     23  C   UNL     1       0.375   8.914  20.629  0.00  0.00    +0.000 C 
BRANCH  23  24
ATOM     24  C   UNL     1       0.714   9.776  21.856  0.00  0.00    +0.000 C 
ATOM     25  O   UNL     1       1.683   9.578  22.586  0.00  0.00    +0.000 OA
BRANCH  24  26
ATOM     26  C   UNL     1      -0.218  10.907  22.182  0.00  0.00    +0.000 A 
ATOM     27  C   UNL     1      -1.294  10.749  23.068  0.00  0.00    +0.000 A 
ATOM     28  C   UNL     1      -2.086  11.847  23.422  0.00  0.00    +0.000 A 
ATOM     29  C   UNL     1      -1.812  13.104  22.887  0.00  0.00    +0.000 A 
ATOM     30 CL   UNL     1      -2.745  14.461  23.384  0.00  0.00    +0.000 Cl
ATOM     31  C   UNL     1      -0.778  13.266  21.969  0.00  0.00    +0.000 A 
ATOM     32  C   UNL     1       0.014  12.167  21.610  0.00  0.00    +0.000 A 
ENDBRANCH  24  26
ENDBRANCH  23  24
ENDBRANCH   1  23
TORSDOF 10
ENDMDL
MODEL 6
REMARK VINA RESULT:      -6.8      2.762      3.575
REMARK  Name = 
REMARK  11 active torsions:
REMARK  status: ('A' for Active; 'I' for Inactive)
REMARK    1  A    between atoms: C_1  and  C_2
REMARK    2  A    between atoms: C_2  and  O_3
REMARK    3  A    between atoms: O_3  and  C_4
REMARK    4  A    between atoms: N_6  and  C_7
REMARK    5  A    between atoms: C_7  and  N_9
REMARK    6  A    between atoms: N_9  and  C_10
REMARK    7  A    between atoms: N_9  and  C_20
REMARK    8  A    between atoms: C_10  and  C_11
REMARK    9  A    between atoms: C_11  and  C_13
REMARK   10  A    between atoms: C_23  and  S_24
REMARK   11  A    between atoms: S_24  and  N_25
REMARK                            x       y       z     vdW  Elec       q    Type
REMARK                         _______ _______ _______ _____ _____    ______ ____
ROOT
ATOM      1  N   UNL     1       3.142   6.399  18.528  0.00  0.00    +0.000 N 
ENDROOT
BRANCH   1   2
ATOM      2  C   UNL     1       2.361   7.525  18.964  0.00  0.00    +0.000 A 
ATOM      3  C   UNL     1       1.879   7.617  20.277  0.00  0.00    +0.000 A 
ATOM      4  C   UNL     1       1.156   8.737  20.697  0.00  0.00    +0.000 A 
ATOM      5  C   UNL     1       0.931   9.786  19.804  0.00  0.00    +0.000 A 
ATOM      6  C   UNL     1       1.375   9.706  18.488  0.00  0.00    +0.000 A 
ATOM      7  C   UNL     1       2.087   8.580  18.074  0.00  0.00    +0.000 A 
BRANCH   5   8
ATOM      8  S   UNL     1       0.074  11.231  20.351  0.00  0.00    +0.000 S 
ATOM      9  O   UNL     1      -1.315  11.138  19.973  0.00  0.00    +0.000 OA
ATOM     10  O   UNL     1       0.498  11.555  21.691  0.00  0.00    +0.000 OA
BRANCH   8  11
ATOM     11  N   UNL     1       0.753  12.400  19.356  0.00  0.00    +0.000 NA
ATOM     12  H   UNL     1       0.663  13.323  19.779  0.00  0.00    +0.000 HD
ATOM     13  H   UNL     1       1.707  12.142  19.103  0.00  0.00    +0.000 HD
ENDBRANCH   8  11
ENDBRANCH   5   8
ENDBRANCH   1   2
BRANCH   1  14
ATOM     14  C   UNL     1       2.629   5.108  18.605  0.00  0.00    +0.000 C 
ATOM     15  S   UNL     1       1.561   4.408  17.515  0.00  0.00    +0.000 S 
BRANCH  14  18
ATOM     16  C   UNL     1       3.507   3.028  19.601  0.00  0.00    +0.000 C 
ATOM     17  O   UNL     1       3.712   2.366  18.595  0.00  0.00    +0.000 OA
ATOM     18  N   UNL     1       3.043   4.323  19.664  0.00  0.00    +0.000 N 
ATOM     19  H   UNL     1       2.611   4.527  20.553  0.00  0.00    +0.000 HD
BRANCH  16  20
ATOM     20  O   UNL     1       3.582   2.548  20.869  0.00  0.00    +0.000 OA
BRANCH  20  22
ATOM     21  C   UNL     1       1.219   2.544  21.201  0.00  0.00    +0.000 C 
ATOM     22  C   UNL     1       2.555   2.990  21.770  0.00  0.00    +0.000 C 
ENDBRANCH  20  22
ENDBRANCH  16  20
ENDBRANCH  14  18
ENDBRANCH   1  14
BRANCH   1  23
ATOM     23  C   UNL     1       4.368   6.689  17.761  0.00  0.00    +0.000 C 
BRANCH  23  24
ATOM     24  C   UNL     1       5.418   5.567  17.728  0.00  0.00    +0.000 C 
ATOM     25  O   UNL     1       5.987   5.132  18.727  0.00  0.00    +0.000 OA
BRANCH  24  26
ATOM     26  C   UNL     1       5.778   5.000  16.385  0.00  0.00    +0.000 A 
ATOM     27  C   UNL     1       4.916   4.141  15.689  0.00  0.00    +0.000 A 
ATOM     28  C   UNL     1       5.241   3.705  14.399  0.00  0.00    +0.000 A 
ATOM     29  C   UNL     1       6.431   4.119  13.804  0.00  0.00    +0.000 A 
ATOM     30 CL   UNL     1       6.787   3.638  12.192  0.00  0.00    +0.000 Cl
ATOM     31  C   UNL     1       7.319   4.934  14.502  0.00  0.00    +0.000 A 
ATOM     32  C   UNL     1       6.997   5.367  15.795  0.00  0.00    +0.000 A 
ENDBRANCH  24  26
ENDBRANCH  23  24
ENDBRANCH   1  23
TORSDOF 10
ENDMDL
MODEL 7
REMARK VINA RESULT:      -6.8      2.708      3.389
REMARK  Name = 
REMARK  11 active torsions:
REMARK  status: ('A' for Active; 'I' for Inactive)
REMARK    1  A    between atoms: C_1  and  C_2
REMARK    2  A    between atoms: C_2  and  O_3
REMARK    3  A    between atoms: O_3  and  C_4
REMARK    4  A    between atoms: N_6  and  C_7
REMARK    5  A    between atoms: C_7  and  N_9
REMARK    6  A    between atoms: N_9  and  C_10
REMARK    7  A    between atoms: N_9  and  C_20
REMARK    8  A    between atoms: C_10  and  C_11
REMARK    9  A    between atoms: C_11  and  C_13
REMARK   10  A    between atoms: C_23  and  S_24
REMARK   11  A    between atoms: S_24  and  N_25
REMARK                            x       y       z     vdW  Elec       q    Type
REMARK                         _______ _______ _______ _____ _____    ______ ____
ROOT
ATOM      1  N   UNL     1       3.008   6.421  18.408  0.00  0.00    +0.000 N 
ENDROOT
BRANCH   1   2
ATOM      2  C   UNL     1       2.325   7.537  19.007  0.00  0.00    +0.000 A 
ATOM      3  C   UNL     1       1.988   8.674  18.260  0.00  0.00    +0.000 A 
ATOM      4  C   UNL     1       1.288   9.732  18.846  0.00  0.00    +0.000 A 
ATOM      5  C   UNL     1       0.902   9.646  20.185  0.00  0.00    +0.000 A 
ATOM      6  C   UNL     1       1.250   8.539  20.954  0.00  0.00    +0.000 A 
ATOM      7  C   UNL     1       1.957   7.491  20.364  0.00  0.00    +0.000 A 
BRANCH   5   8
ATOM      8  S   UNL     1      -0.039  10.954  20.910  0.00  0.00    +0.000 S 
ATOM      9  O   UNL     1       0.853  11.995  21.357  0.00  0.00    +0.000 OA
ATOM     10  O   UNL     1      -1.197  11.216  20.090  0.00  0.00    +0.000 OA
BRANCH   8  11
ATOM     11  N   UNL     1      -0.614  10.202  22.296  0.00  0.00    +0.000 NA
ATOM     12  H   UNL     1      -1.274  10.809  22.782  0.00  0.00    +0.000 HD
ATOM     13  H   UNL     1      -0.976   9.275  22.075  0.00  0.00    +0.000 HD
ENDBRANCH   8  11
ENDBRANCH   5   8
ENDBRANCH   1   2
BRANCH   1  14
ATOM     14  C   UNL     1       2.475   5.138  18.487  0.00  0.00    +0.000 C 
ATOM     15  S   UNL     1       1.445   4.431  17.365  0.00  0.00    +0.000 S 
BRANCH  14  18
ATOM     16  C   UNL     1       3.509   3.169  19.554  0.00  0.00    +0.000 C 
ATOM     17  O   UNL     1       3.985   2.607  18.578  0.00  0.00    +0.000 OA
ATOM     18  N   UNL     1       2.833   4.368  19.576  0.00  0.00    +0.000 N 
ATOM     19  H   UNL     1       2.233   4.448  20.383  0.00  0.00    +0.000 HD
BRANCH  16  20
ATOM     20  O   UNL     1       3.453   2.633  20.801  0.00  0.00    +0.000 OA
BRANCH  20  22
ATOM     21  C   UNL     1       1.326   2.362  21.847  0.00  0.00    +0.000 C 
ATOM     22  C   UNL     1       2.541   3.262  21.714  0.00  0.00    +0.000 C 
ENDBRANCH  20  22
ENDBRANCH  16  20
ENDBRANCH  14  18
ENDBRANCH   1  14
BRANCH   1  23
ATOM     23  C   UNL     1       4.126   6.729  17.497  0.00  0.00    +0.000 C 
BRANCH  23  24
ATOM     24  C   UNL     1       5.301   5.739  17.519  0.00  0.00    +0.000 C 
ATOM     25  O   UNL     1       5.914   5.426  18.539  0.00  0.00    +0.000 OA
BRANCH  24  26
ATOM     26  C   UNL     1       5.729   5.148  16.207  0.00  0.00    +0.000 A 
ATOM     27  C   UNL     1       4.870   4.350  15.438  0.00  0.00    +0.000 A 
ATOM     28  C   UNL     1       5.269   3.894  14.177  0.00  0.00    +0.000 A 
ATOM     29  C   UNL     1       6.528   4.225  13.682  0.00  0.00    +0.000 A 
ATOM     30 CL   UNL     1       6.981   3.720  12.102  0.00  0.00    +0.000 Cl
ATOM     31  C   UNL     1       7.410   4.976  14.455  0.00  0.00    +0.000 A 
ATOM     32  C   UNL     1       7.014   5.430  15.720  0.00  0.00    +0.000 A 
ENDBRANCH  24  26
ENDBRANCH  23  24
ENDBRANCH   1  23
TORSDOF 10
ENDMDL
MODEL 8
REMARK VINA RESULT:      -6.7      3.803      7.001
REMARK  Name = 
REMARK  11 active torsions:
REMARK  status: ('A' for Active; 'I' for Inactive)
REMARK    1  A    between atoms: C_1  and  C_2
REMARK    2  A    between atoms: C_2  and  O_3
REMARK    3  A    between atoms: O_3  and  C_4
REMARK    4  A    between atoms: N_6  and  C_7
REMARK    5  A    between atoms: C_7  and  N_9
REMARK    6  A    between atoms: N_9  and  C_10
REMARK    7  A    between atoms: N_9  and  C_20
REMARK    8  A    between atoms: C_10  and  C_11
REMARK    9  A    between atoms: C_11  and  C_13
REMARK   10  A    between atoms: C_23  and  S_24
REMARK   11  A    between atoms: S_24  and  N_25
REMARK                            x       y       z     vdW  Elec       q    Type
REMARK                         _______ _______ _______ _____ _____    ______ ____
ROOT
ATOM      1  N   UNL     1       2.211   6.995  18.651  0.00  0.00    +0.000 N 
ENDROOT
BRANCH   1   2
ATOM      2  C   UNL     1       3.370   6.425  18.017  0.00  0.00    +0.000 A 
ATOM      3  C   UNL     1       3.380   5.096  17.571  0.00  0.00    +0.000 A 
ATOM      4  C   UNL     1       4.499   4.569  16.920  0.00  0.00    +0.000 A 
ATOM      5  C   UNL     1       5.611   5.382  16.693  0.00  0.00    +0.000 A 
ATOM      6  C   UNL     1       5.635   6.696  17.152  0.00  0.00    +0.000 A 
ATOM      7  C   UNL     1       4.518   7.211  17.809  0.00  0.00    +0.000 A 
BRANCH   5   8
ATOM      8  S   UNL     1       7.001   4.738  15.813  0.00  0.00    +0.000 S 
ATOM      9  O   UNL     1       7.379   5.660  14.771  0.00  0.00    +0.000 OA
ATOM     10  O   UNL     1       7.948   4.194  16.756  0.00  0.00    +0.000 OA
BRANCH   8  11
ATOM     11  N   UNL     1       6.307   3.418  15.042  0.00  0.00    +0.000 NA
ATOM     12  H   UNL     1       6.190   2.645  15.697  0.00  0.00    +0.000 HD
ATOM     13  H   UNL     1       5.453   3.697  14.559  0.00  0.00    +0.000 HD
ENDBRANCH   8  11
ENDBRANCH   5   8
ENDBRANCH   1   2
BRANCH   1  14
ATOM     14  C   UNL     1       2.070   6.959  20.034  0.00  0.00    +0.000 C 
ATOM     15  S   UNL     1       1.414   8.177  20.987  0.00  0.00    +0.000 S 
BRANCH  14  18
ATOM     16  C   UNL     1       1.797   4.638  20.823  0.00  0.00    +0.000 C 
ATOM     17  O   UNL     1       0.715   4.357  20.329  0.00  0.00    +0.000 OA
ATOM     18  N   UNL     1       2.494   5.817  20.687  0.00  0.00    +0.000 N 
ATOM     19  H   UNL     1       3.142   5.963  21.446  0.00  0.00    +0.000 HD
BRANCH  16  20
ATOM     20  O   UNL     1       2.459   3.862  21.721  0.00  0.00    +0.000 OA
BRANCH  20  22
ATOM     21  C   UNL     1       3.780   2.534  20.243  0.00  0.00    +0.000 C 
ATOM     22  C   UNL     1       2.707   2.507  21.317  0.00  0.00    +0.000 C 
ENDBRANCH  20  22
ENDBRANCH  16  20
ENDBRANCH  14  18
ENDBRANCH   1  14
BRANCH   1  23
ATOM     23  C   UNL     1       1.337   7.839  17.816  0.00  0.00    +0.000 C 
BRANCH  23  24
ATOM     24  C   UNL     1       1.555   9.355  17.936  0.00  0.00    +0.000 C 
ATOM     25  O   UNL     1       2.602   9.923  17.629  0.00  0.00    +0.000 OA
BRANCH  24  26
ATOM     26  C   UNL     1       0.424  10.173  18.489  0.00  0.00    +0.000 A 
ATOM     27  C   UNL     1       0.634  11.181  19.441  0.00  0.00    +0.000 A 
ATOM     28  C   UNL     1      -0.429  11.987  19.864  0.00  0.00    +0.000 A 
ATOM     29  C   UNL     1      -1.706  11.785  19.344  0.00  0.00    +0.000 A 
ATOM     30 CL   UNL     1      -2.991  12.826  19.816  0.00  0.00    +0.000 Cl
ATOM     31  C   UNL     1      -1.938  10.756  18.434  0.00  0.00    +0.000 A 
ATOM     32  C   UNL     1      -0.876   9.946  18.013  0.00  0.00    +0.000 A 
ENDBRANCH  24  26
ENDBRANCH  23  24
ENDBRANCH   1  23
TORSDOF 10
ENDMDL
MODEL 9
REMARK VINA RESULT:      -6.7      2.689      3.253
REMARK  Name = 
REMARK  11 active torsions:
REMARK  status: ('A' for Active; 'I' for Inactive)
REMARK    1  A    between atoms: C_1  and  C_2
REMARK    2  A    between atoms: C_2  and  O_3
REMARK    3  A    between atoms: O_3  and  C_4
REMARK    4  A    between atoms: N_6  and  C_7
REMARK    5  A    between atoms: C_7  and  N_9
REMARK    6  A    between atoms: N_9  and  C_10
REMARK    7  A    between atoms: N_9  and  C_20
REMARK    8  A    between atoms: C_10  and  C_11
REMARK    9  A    between atoms: C_11  and  C_13
REMARK   10  A    between atoms: C_23  and  S_24
REMARK   11  A    between atoms: S_24  and  N_25
REMARK                            x       y       z     vdW  Elec       q    Type
REMARK                         _______ _______ _______ _____ _____    ______ ____
ROOT
ATOM      1  N   UNL     1       4.594   5.132  18.430  0.00  0.00    +0.000 N 
ENDROOT
BRANCH   1   2
ATOM      2  C   UNL     1       3.748   6.291  18.527  0.00  0.00    +0.000 A 
ATOM      3  C   UNL     1       3.735   7.273  17.526  0.00  0.00    +0.000 A 
ATOM      4  C   UNL     1       2.877   8.373  17.614  0.00  0.00    +0.000 A 
ATOM      5  C   UNL     1       2.009   8.483  18.702  0.00  0.00    +0.000 A 
ATOM      6  C   UNL     1       2.024   7.537  19.722  0.00  0.00    +0.000 A 
ATOM      7  C   UNL     1       2.890   6.447  19.630  0.00  0.00    +0.000 A 
BRANCH   5   8
ATOM      8  S   UNL     1       0.878   9.839  18.784  0.00  0.00    +0.000 S 
ATOM      9  O   UNL     1       1.615  11.071  18.922  0.00  0.00    +0.000 OA
ATOM     10  O   UNL     1      -0.156   9.654  17.795  0.00  0.00    +0.000 OA
BRANCH   8  11
ATOM     11  N   UNL     1       0.151   9.558  20.271  0.00  0.00    +0.000 NA
ATOM     12  H   UNL     1       0.625   8.799  20.760  0.00  0.00    +0.000 HD
ATOM     13  H   UNL     1       0.081  10.425  20.803  0.00  0.00    +0.000 HD
ENDBRANCH   8  11
ENDBRANCH   5   8
ENDBRANCH   1   2
BRANCH   1  14
ATOM     14  C   UNL     1       4.403   4.196  17.419  0.00  0.00    +0.000 C 
ATOM     15  S   UNL     1       5.131   4.221  15.906  0.00  0.00    +0.000 S 
BRANCH  14  18
ATOM     16  C   UNL     1       2.172   3.162  17.625  0.00  0.00    +0.000 C 
ATOM     17  O   UNL     1       1.461   4.086  17.258  0.00  0.00    +0.000 OA
ATOM     18  N   UNL     1       3.548   3.144  17.682  0.00  0.00    +0.000 N 
ATOM     19  H   UNL     1       3.889   2.457  18.337  0.00  0.00    +0.000 HD
BRANCH  16  20
ATOM     20  O   UNL     1       1.714   2.008  18.176  0.00  0.00    +0.000 OA
BRANCH  20  22
ATOM     21  C   UNL     1       1.200   2.741  20.388  0.00  0.00    +0.000 C 
ATOM     22  C   UNL     1       0.634   2.145  19.111  0.00  0.00    +0.000 C 
ENDBRANCH  20  22
ENDBRANCH  16  20
ENDBRANCH  14  18
ENDBRANCH   1  14
BRANCH   1  23
ATOM     23  C   UNL     1       5.814   5.120  19.260  0.00  0.00    +0.000 C 
BRANCH  23  24
ATOM     24  C   UNL     1       7.137   5.335  18.509  0.00  0.00    +0.000 C 
ATOM     25  O   UNL     1       7.841   4.420  18.086  0.00  0.00    +0.000 OA
BRANCH  24  26
ATOM     26  C   UNL     1       7.595   6.751  18.311  0.00  0.00    +0.000 A 
ATOM     27  C   UNL     1       7.071   7.565  17.297  0.00  0.00    +0.000 A 
ATOM     28  C   UNL     1       7.451   8.908  17.199  0.00  0.00    +0.000 A 
ATOM     29  C   UNL     1       8.361   9.442  18.110  0.00  0.00    +0.000 A 
ATOM     30 CL   UNL     1       8.767  11.111  18.027  0.00  0.00    +0.000 Cl
ATOM     31  C   UNL     1       8.926   8.633  19.093  0.00  0.00    +0.000 A 
ATOM     32  C   UNL     1       8.550   7.287  19.189  0.00  0.00    +0.000 A 
ENDBRANCH  24  26
ENDBRANCH  23  24
ENDBRANCH   1  23
TORSDOF 10
ENDMDL
