MODEL 1
REMARK VINA RESULT:      -6.1      0.000      0.000
REMARK  Name = 
REMARK  9 active torsions:
REMARK  status: ('A' for Active; 'I' for Inactive)
REMARK    1  A    between atoms: C_1  and  S_2
REMARK    2  A    between atoms: S_2  and  C_3
REMARK    3  A    between atoms: C_3  and  C_4
REMARK    4  A    between atoms: C_8  and  S_9
REMARK    5  A    between atoms: S_9  and  N_12
REMARK    6  A    between atoms: N_12  and  C_13
REMARK    7  A    between atoms: C_13  and  C_14
REMARK    8  A    between atoms: C_14  and  C_15
REMARK    9  A    between atoms: C_15  and  O_16
REMARK                            x       y       z     vdW  Elec       q    Type
REMARK                         _______ _______ _______ _____ _____    ______ ____
ROOT
ATOM      1  S   UNL     1       7.100   5.403  17.668  0.00  0.00    +0.000 S 
ATOM      2  O   UNL     1       7.506   6.525  16.853  0.00  0.00    +0.000 OA
ATOM      3  O   UNL     1       7.875   4.975  18.811  0.00  0.00    +0.000 OA
ENDROOT
BRANCH   1   8
ATOM      4  C   UNL     1       3.478   5.016  19.462  0.00  0.00    +0.000 A 
ATOM      5  C   UNL     1       2.746   6.042  18.844  0.00  0.00    +0.000 A 
ATOM      6  C   UNL     1       3.348   6.890  17.911  0.00  0.00    +0.000 A 
ATOM      7  C   UNL     1       4.690   6.723  17.578  0.00  0.00    +0.000 A 
ATOM      8  C   UNL     1       5.429   5.704  18.184  0.00  0.00    +0.000 A 
ATOM      9  C   UNL     1       4.832   4.852  19.121  0.00  0.00    +0.000 A 
BRANCH   4  10
ATOM     10  C   UNL     1       2.800   4.078  20.431  0.00  0.00    +0.000 C 
BRANCH  10  12
ATOM     11  C   UNL     1       1.029   2.533  18.961  0.00  0.00    +0.000 C 
ATOM     12  S   UNL     1       1.011   3.894  20.154  0.00  0.00    +0.000 S 
ENDBRANCH  10  12
ENDBRANCH   4  10
ENDBRANCH   1   8
BRANCH   1  13
ATOM     13  N   UNL     1       6.960   4.094  16.614  0.00  0.00    +0.000 NA
ATOM     14  H   UNL     1       7.430   3.280  17.013  0.00  0.00    +0.000 HD
BRANCH  13  15
ATOM     15  C   UNL     1       5.667   3.881  15.952  0.00  0.00    +0.000 C 
BRANCH  15  16
ATOM     16  C   UNL     1       5.607   4.669  14.648  0.00  0.00    +0.000 C 
BRANCH  16  17
ATOM     17  C   UNL     1       6.838   4.473  13.776  0.00  0.00    +0.000 C 
BRANCH  17  18
ATOM     18  O   UNL     1       7.791   5.491  14.066  0.00  0.00    +0.000 OA
ATOM     19  H   UNL     1       8.603   5.054  14.377  0.00  0.00    +0.000 HD
ENDBRANCH  17  18
ENDBRANCH  16  17
ENDBRANCH  15  16
ENDBRANCH  13  15
ENDBRANCH   1  13
TORSDOF 8
ENDMDL
MODEL 2
REMARK VINA RESULT:      -6.0      1.403      1.590
REMARK  Name = 
REMARK  9 active torsions:
REMARK  status: ('A' for Active; 'I' for Inactive)
REMARK    1  A    between atoms: C_1  and  S_2
REMARK    2  A    between atoms: S_2  and  C_3
REMARK    3  A    between atoms: C_3  and  C_4
REMARK    4  A    between atoms: C_8  and  S_9
REMARK    5  A    between atoms: S_9  and  N_12
REMARK    6  A    between atoms: N_12  and  C_13
REMARK    7  A    between atoms: C_13  and  C_14
REMARK    8  A    between atoms: C_14  and  C_15
REMARK    9  A    between atoms: C_15  and  O_16
REMARK                            x       y       z     vdW  Elec       q    Type
REMARK                         _______ _______ _______ _____ _____    ______ ____
ROOT
ATOM      1  S   UNL     1       6.655   5.537  18.655  0.00  0.00    +0.000 S 
ATOM      2  O   UNL     1       7.032   6.751  17.967  0.00  0.00    +0.000 OA
ATOM      3  O   UNL     1       7.018   5.303  20.035  0.00  0.00    +0.000 OA
ENDROOT
BRANCH   1   8
ATOM      4  C   UNL     1       2.955   3.910  18.275  0.00  0.00    +0.000 A 
ATOM      5  C   UNL     1       2.174   5.045  18.004  0.00  0.00    +0.000 A 
ATOM      6  C   UNL     1       2.747   6.319  17.975  0.00  0.00    +0.000 A 
ATOM      7  C   UNL     1       4.110   6.478  18.213  0.00  0.00    +0.000 A 
ATOM      8  C   UNL     1       4.898   5.356  18.482  0.00  0.00    +0.000 A 
ATOM      9  C   UNL     1       4.330   4.077  18.513  0.00  0.00    +0.000 A 
BRANCH   4  10
ATOM     10  C   UNL     1       2.330   2.536  18.253  0.00  0.00    +0.000 C 
BRANCH  10  12
ATOM     11  C   UNL     1       1.352   2.764  20.837  0.00  0.00    +0.000 C 
ATOM     12  S   UNL     1       0.757   2.425  19.162  0.00  0.00    +0.000 S 
ENDBRANCH  10  12
ENDBRANCH   4  10
ENDBRANCH   1   8
BRANCH   1  13
ATOM     13  N   UNL     1       7.279   4.271  17.730  0.00  0.00    +0.000 NA
ATOM     14  H   UNL     1       6.870   3.388  18.039  0.00  0.00    +0.000 HD
BRANCH  13  15
ATOM     15  C   UNL     1       7.430   4.487  16.286  0.00  0.00    +0.000 C 
BRANCH  15  16
ATOM     16  C   UNL     1       6.254   3.871  15.535  0.00  0.00    +0.000 C 
BRANCH  16  17
ATOM     17  C   UNL     1       5.429   4.898  14.775  0.00  0.00    +0.000 C 
BRANCH  17  18
ATOM     18  O   UNL     1       5.820   6.208  15.172  0.00  0.00    +0.000 OA
ATOM     19  H   UNL     1       5.011   6.735  15.288  0.00  0.00    +0.000 HD
ENDBRANCH  17  18
ENDBRANCH  16  17
ENDBRANCH  15  16
ENDBRANCH  13  15
ENDBRANCH   1  13
TORSDOF 8
ENDMDL
MODEL 3
REMARK VINA RESULT:      -6.0      1.370      1.534
REMARK  Name = 
REMARK  9 active torsions:
REMARK  status: ('A' for Active; 'I' for Inactive)
REMARK    1  A    between atoms: C_1  and  S_2
REMARK    2  A    between atoms: S_2  and  C_3
REMARK    3  A    between atoms: C_3  and  C_4
REMARK    4  A    between atoms: C_8  and  S_9
REMARK    5  A    between atoms: S_9  and  N_12
REMARK    6  A    between atoms: N_12  and  C_13
REMARK    7  A    between atoms: C_13  and  C_14
REMARK    8  A    between atoms: C_14  and  C_15
REMARK    9  A    between atoms: C_15  and  O_16
REMARK                            x       y       z     vdW  Elec       q    Type
REMARK                         _______ _______ _______ _____ _____    ______ ____
ROOT
ATOM      1  S   UNL     1       7.246   5.275  17.227  0.00  0.00    +0.000 S 
ATOM      2  O   UNL     1       7.554   6.618  16.792  0.00  0.00    +0.000 OA
ATOM      3  O   UNL     1       7.957   4.649  18.319  0.00  0.00    +0.000 OA
ENDROOT
BRANCH   1   8
ATOM      4  C   UNL     1       3.480   3.907  17.878  0.00  0.00    +0.000 A 
ATOM      5  C   UNL     1       2.742   5.101  17.880  0.00  0.00    +0.000 A 
ATOM      6  C   UNL     1       3.377   6.336  17.729  0.00  0.00    +0.000 A 
ATOM      7  C   UNL     1       4.760   6.396  17.569  0.00  0.00    +0.000 A 
ATOM      8  C   UNL     1       5.504   5.214  17.562  0.00  0.00    +0.000 A 
ATOM      9  C   UNL     1       4.874   3.974  17.714  0.00  0.00    +0.000 A 
BRANCH   4  10
ATOM     10  C   UNL     1       2.772   2.578  17.993  0.00  0.00    +0.000 C 
BRANCH  10  12
ATOM     11  C   UNL     1       1.549   2.669  20.478  0.00  0.00    +0.000 C 
ATOM     12  S   UNL     1       1.109   2.686  18.723  0.00  0.00    +0.000 S 
ENDBRANCH  10  12
ENDBRANCH   4  10
ENDBRANCH   1   8
BRANCH   1  13
ATOM     13  N   UNL     1       7.423   4.297  15.863  0.00  0.00    +0.000 NA
ATOM     14  H   UNL     1       7.142   3.342  16.087  0.00  0.00    +0.000 HD
BRANCH  13  15
ATOM     15  C   UNL     1       7.006   4.846  14.567  0.00  0.00    +0.000 C 
BRANCH  15  16
ATOM     16  C   UNL     1       5.796   4.083  14.037  0.00  0.00    +0.000 C 
BRANCH  16  17
ATOM     17  C   UNL     1       6.046   3.439  12.681  0.00  0.00    +0.000 C 
BRANCH  17  18
ATOM     18  O   UNL     1       7.064   4.160  11.995  0.00  0.00    +0.000 OA
ATOM     19  H   UNL     1       6.763   4.297  11.080  0.00  0.00    +0.000 HD
ENDBRANCH  17  18
ENDBRANCH  16  17
ENDBRANCH  15  16
ENDBRANCH  13  15
ENDBRANCH   1  13
TORSDOF 8
ENDMDL
MODEL 4
REMARK VINA RESULT:      -5.9      1.768      1.946
REMARK  Name = 
REMARK  9 active torsions:
REMARK  status: ('A' for Active; 'I' for Inactive)
REMARK    1  A    between atoms: C_1  and  S_2
REMARK    2  A    between atoms: S_2  and  C_3
REMARK    3  A    between atoms: C_3  and  C_4
REMARK    4  A    between atoms: C_8  and  S_9
REMARK    5  A    between atoms: S_9  and  N_12
REMARK    6  A    between atoms: N_12  and  C_13
REMARK    7  A    between atoms: C_13  and  C_14
REMARK    8  A    between atoms: C_14  and  C_15
REMARK    9  A    between atoms: C_15  and  O_16
REMARK                            x       y       z     vdW  Elec       q    Type
REMARK                         _______ _______ _______ _____ _____    ______ ____
ROOT
ATOM      1  S   UNL     1       6.718   4.921  16.774  0.00  0.00    +0.000 S 
ATOM      2  O   UNL     1       7.323   6.014  16.047  0.00  0.00    +0.000 OA
ATOM      3  O   UNL     1       7.394   4.279  17.880  0.00  0.00    +0.000 OA
ENDROOT
BRANCH   1   8
ATOM      4  C   UNL     1       2.809   4.950  17.867  0.00  0.00    +0.000 A 
ATOM      5  C   UNL     1       2.551   6.327  17.957  0.00  0.00    +0.000 A 
ATOM      6  C   UNL     1       3.564   7.262  17.731  0.00  0.00    +0.000 A 
ATOM      7  C   UNL     1       4.850   6.835  17.409  0.00  0.00    +0.000 A 
ATOM      8  C   UNL     1       5.119   5.468  17.314  0.00  0.00    +0.000 A 
ATOM      9  C   UNL     1       4.108   4.525  17.539  0.00  0.00    +0.000 A 
BRANCH   4  10
ATOM     10  C   UNL     1       1.691   3.955  18.065  0.00  0.00    +0.000 C 
BRANCH  10  12
ATOM     11  C   UNL     1       2.407   2.706  20.434  0.00  0.00    +0.000 C 
ATOM     12  S   UNL     1       2.245   2.331  18.671  0.00  0.00    +0.000 S 
ENDBRANCH  10  12
ENDBRANCH   4  10
ENDBRANCH   1   8
BRANCH   1  13
ATOM     13  N   UNL     1       6.367   3.739  15.622  0.00  0.00    +0.000 NA
ATOM     14  H   UNL     1       6.066   2.883  16.090  0.00  0.00    +0.000 HD
BRANCH  13  15
ATOM     15  C   UNL     1       5.639   4.151  14.417  0.00  0.00    +0.000 C 
BRANCH  15  16
ATOM     16  C   UNL     1       6.432   3.776  13.168  0.00  0.00    +0.000 C 
BRANCH  16  17
ATOM     17  C   UNL     1       5.567   3.168  12.074  0.00  0.00    +0.000 C 
BRANCH  17  18
ATOM     18  O   UNL     1       6.031   1.854  11.780  0.00  0.00    +0.000 OA
ATOM     19  H   UNL     1       6.477   1.886  10.915  0.00  0.00    +0.000 HD
ENDBRANCH  17  18
ENDBRANCH  16  17
ENDBRANCH  15  16
ENDBRANCH  13  15
ENDBRANCH   1  13
TORSDOF 8
ENDMDL
MODEL 5
REMARK VINA RESULT:      -5.8      1.919      2.884
REMARK  Name = 
REMARK  9 active torsions:
REMARK  status: ('A' for Active; 'I' for Inactive)
REMARK    1  A    between atoms: C_1  and  S_2
REMARK    2  A    between atoms: S_2  and  C_3
REMARK    3  A    between atoms: C_3  and  C_4
REMARK    4  A    between atoms: C_8  and  S_9
REMARK    5  A    between atoms: S_9  and  N_12
REMARK    6  A    between atoms: N_12  and  C_13
REMARK    7  A    between atoms: C_13  and  C_14
REMARK    8  A    between atoms: C_14  and  C_15
REMARK    9  A    between atoms: C_15  and  O_16
REMARK                            x       y       z     vdW  Elec       q    Type
REMARK                         _______ _______ _______ _____ _____    ______ ____
ROOT
ATOM      1  S   UNL     1       6.054   4.855  15.666  0.00  0.00    +0.000 S 
ATOM      2  O   UNL     1       6.103   3.434  15.407  0.00  0.00    +0.000 OA
ATOM      3  O   UNL     1       5.941   5.819  14.594  0.00  0.00    +0.000 OA
ENDROOT
BRANCH   1   8
ATOM      4  C   UNL     1       2.989   4.244  18.256  0.00  0.00    +0.000 A 
ATOM      5  C   UNL     1       2.561   5.558  18.502  0.00  0.00    +0.000 A 
ATOM      6  C   UNL     1       3.219   6.646  17.924  0.00  0.00    +0.000 A 
ATOM      7  C   UNL     1       4.313   6.437  17.088  0.00  0.00    +0.000 A 
ATOM      8  C   UNL     1       4.747   5.134  16.833  0.00  0.00    +0.000 A 
ATOM      9  C   UNL     1       4.092   4.040  17.410  0.00  0.00    +0.000 A 
BRANCH   4  10
ATOM     10  C   UNL     1       2.236   3.077  18.849  0.00  0.00    +0.000 C 
BRANCH  10  12
ATOM     11  C   UNL     1       1.676   2.728  21.541  0.00  0.00    +0.000 C 
ATOM     12  S   UNL     1       0.988   3.554  20.086  0.00  0.00    +0.000 S 
ENDBRANCH  10  12
ENDBRANCH   4  10
ENDBRANCH   1   8
BRANCH   1  13
ATOM     13  N   UNL     1       7.452   5.213  16.541  0.00  0.00    +0.000 NA
ATOM     14  H   UNL     1       7.775   6.151  16.303  0.00  0.00    +0.000 HD
BRANCH  13  15
ATOM     15  C   UNL     1       7.499   4.811  17.952  0.00  0.00    +0.000 C 
BRANCH  15  16
ATOM     16  C   UNL     1       7.438   6.041  18.852  0.00  0.00    +0.000 C 
BRANCH  16  17
ATOM     17  C   UNL     1       8.155   7.246  18.263  0.00  0.00    +0.000 C 
BRANCH  17  18
ATOM     18  O   UNL     1       7.286   7.918  17.357  0.00  0.00    +0.000 OA
ATOM     19  H   UNL     1       7.515   8.863  17.374  0.00  0.00    +0.000 HD
ENDBRANCH  17  18
ENDBRANCH  16  17
ENDBRANCH  15  16
ENDBRANCH  13  15
ENDBRANCH   1  13
TORSDOF 8
ENDMDL
MODEL 6
REMARK VINA RESULT:      -5.6      2.632      3.733
REMARK  Name = 
REMARK  9 active torsions:
REMARK  status: ('A' for Active; 'I' for Inactive)
REMARK    1  A    between atoms: C_1  and  S_2
REMARK    2  A    between atoms: S_2  and  C_3
REMARK    3  A    between atoms: C_3  and  C_4
REMARK    4  A    between atoms: C_8  and  S_9
REMARK    5  A    between atoms: S_9  and  N_12
REMARK    6  A    between atoms: N_12  and  C_13
REMARK    7  A    between atoms: C_13  and  C_14
REMARK    8  A    between atoms: C_14  and  C_15
REMARK    9  A    between atoms: C_15  and  O_16
REMARK                            x       y       z     vdW  Elec       q    Type
REMARK                         _______ _______ _______ _____ _____    ______ ____
ROOT
ATOM      1  S   UNL     1       7.274   5.197  18.146  0.00  0.00    +0.000 S 
ATOM      2  O   UNL     1       7.598   5.158  19.554  0.00  0.00    +0.000 OA
ATOM      3  O   UNL     1       8.009   4.418  17.175  0.00  0.00    +0.000 OA
ENDROOT
BRANCH   1   8
ATOM      4  C   UNL     1       3.301   4.894  18.925  0.00  0.00    +0.000 A 
ATOM      5  C   UNL     1       2.868   4.074  17.870  0.00  0.00    +0.000 A 
ATOM      6  C   UNL     1       3.761   3.640  16.888  0.00  0.00    +0.000 A 
ATOM      7  C   UNL     1       5.101   4.014  16.947  0.00  0.00    +0.000 A 
ATOM      8  C   UNL     1       5.545   4.827  17.992  0.00  0.00    +0.000 A 
ATOM      9  C   UNL     1       4.655   5.267  18.980  0.00  0.00    +0.000 A 
BRANCH   4  10
ATOM     10  C   UNL     1       2.333   5.314  20.005  0.00  0.00    +0.000 C 
BRANCH  10  12
ATOM     11  C   UNL     1       2.209   3.052  21.602  0.00  0.00    +0.000 C 
ATOM     12  S   UNL     1       1.155   4.014  20.489  0.00  0.00    +0.000 S 
ENDBRANCH  10  12
ENDBRANCH   4  10
ENDBRANCH   1   8
BRANCH   1  13
ATOM     13  N   UNL     1       7.374   6.820  17.695  0.00  0.00    +0.000 NA
ATOM     14  H   UNL     1       6.439   7.183  17.511  0.00  0.00    +0.000 HD
BRANCH  13  15
ATOM     15  C   UNL     1       8.309   7.679  18.430  0.00  0.00    +0.000 C 
BRANCH  15  16
ATOM     16  C   UNL     1       8.237   9.109  17.903  0.00  0.00    +0.000 C 
BRANCH  16  17
ATOM     17  C   UNL     1       8.971  10.107  18.786  0.00  0.00    +0.000 C 
BRANCH  17  18
ATOM     18  O   UNL     1       8.981  11.382  18.152  0.00  0.00    +0.000 OA
ATOM     19  H   UNL     1       9.713  11.387  17.511  0.00  0.00    +0.000 HD
ENDBRANCH  17  18
ENDBRANCH  16  17
ENDBRANCH  15  16
ENDBRANCH  13  15
ENDBRANCH   1  13
TORSDOF 8
ENDMDL
MODEL 7
REMARK VINA RESULT:      -5.6      2.618      3.599
REMARK  Name = 
REMARK  9 active torsions:
REMARK  status: ('A' for Active; 'I' for Inactive)
REMARK    1  A    between atoms: C_1  and  S_2
REMARK    2  A    between atoms: S_2  and  C_3
REMARK    3  A    between atoms: C_3  and  C_4
REMARK    4  A    between atoms: C_8  and  S_9
REMARK    5  A    between atoms: S_9  and  N_12
REMARK    6  A    between atoms: N_12  and  C_13
REMARK    7  A    between atoms: C_13  and  C_14
REMARK    8  A    between atoms: C_14  and  C_15
REMARK    9  A    between atoms: C_15  and  O_16
REMARK                            x       y       z     vdW  Elec       q    Type
REMARK                         _______ _______ _______ _____ _____    ______ ____
ROOT
ATOM      1  S   UNL     1       7.080   5.265  17.281  0.00  0.00    +0.000 S 
ATOM      2  O   UNL     1       7.745   4.898  18.510  0.00  0.00    +0.000 OA
ATOM      3  O   UNL     1       7.359   4.586  16.035  0.00  0.00    +0.000 OA
ENDROOT
BRANCH   1   8
ATOM      4  C   UNL     1       3.273   3.927  17.728  0.00  0.00    +0.000 A 
ATOM      5  C   UNL     1       2.564   5.131  17.863  0.00  0.00    +0.000 A 
ATOM      6  C   UNL     1       3.231   6.358  17.865  0.00  0.00    +0.000 A 
ATOM      7  C   UNL     1       4.617   6.401  17.727  0.00  0.00    +0.000 A 
ATOM      8  C   UNL     1       5.333   5.210  17.589  0.00  0.00    +0.000 A 
ATOM      9  C   UNL     1       4.670   3.976  17.588  0.00  0.00    +0.000 A 
BRANCH   4  10
ATOM     10  C   UNL     1       2.532   2.612  17.678  0.00  0.00    +0.000 C 
BRANCH  10  12
ATOM     11  C   UNL     1       2.396   2.678  20.446  0.00  0.00    +0.000 C 
ATOM     12  S   UNL     1       1.320   2.395  19.019  0.00  0.00    +0.000 S 
ENDBRANCH  10  12
ENDBRANCH   4  10
ENDBRANCH   1   8
BRANCH   1  13
ATOM     13  N   UNL     1       7.393   6.907  17.060  0.00  0.00    +0.000 NA
ATOM     14  H   UNL     1       6.577   7.360  16.647  0.00  0.00    +0.000 HD
BRANCH  13  15
ATOM     15  C   UNL     1       8.103   7.620  18.129  0.00  0.00    +0.000 C 
BRANCH  15  16
ATOM     16  C   UNL     1       8.109   9.119  17.849  0.00  0.00    +0.000 C 
BRANCH  16  17
ATOM     17  C   UNL     1       8.919   9.912  18.864  0.00  0.00    +0.000 C 
BRANCH  17  18
ATOM     18  O   UNL     1       9.727  10.867  18.184  0.00  0.00    +0.000 OA
ATOM     19  H   UNL     1       9.230  11.171  17.405  0.00  0.00    +0.000 HD
ENDBRANCH  17  18
ENDBRANCH  16  17
ENDBRANCH  15  16
ENDBRANCH  13  15
ENDBRANCH   1  13
TORSDOF 8
ENDMDL
MODEL 8
REMARK VINA RESULT:      -5.6      2.330      2.560
REMARK  Name = 
REMARK  9 active torsions:
REMARK  status: ('A' for Active; 'I' for Inactive)
REMARK    1  A    between atoms: C_1  and  S_2
REMARK    2  A    between atoms: S_2  and  C_3
REMARK    3  A    between atoms: C_3  and  C_4
REMARK    4  A    between atoms: C_8  and  S_9
REMARK    5  A    between atoms: S_9  and  N_12
REMARK    6  A    between atoms: N_12  and  C_13
REMARK    7  A    between atoms: C_13  and  C_14
REMARK    8  A    between atoms: C_14  and  C_15
REMARK    9  A    between atoms: C_15  and  O_16
REMARK                            x       y       z     vdW  Elec       q    Type
REMARK                         _______ _______ _______ _____ _____    ______ ____
ROOT
ATOM      1  S   UNL     1       6.944   4.727  15.713  0.00  0.00    +0.000 S 
ATOM      2  O   UNL     1       7.299   5.803  14.816  0.00  0.00    +0.000 OA
ATOM      3  O   UNL     1       7.895   4.179  16.655  0.00  0.00    +0.000 OA
ENDROOT
BRANCH   1   8
ATOM      4  C   UNL     1       3.277   4.699  17.453  0.00  0.00    +0.000 A 
ATOM      5  C   UNL     1       3.109   6.055  17.779  0.00  0.00    +0.000 A 
ATOM      6  C   UNL     1       4.118   6.985  17.518  0.00  0.00    +0.000 A 
ATOM      7  C   UNL     1       5.309   6.575  16.923  0.00  0.00    +0.000 A 
ATOM      8  C   UNL     1       5.487   5.230  16.591  0.00  0.00    +0.000 A 
ATOM      9  C   UNL     1       4.480   4.293  16.850  0.00  0.00    +0.000 A 
BRANCH   4  10
ATOM     10  C   UNL     1       2.157   3.716  17.696  0.00  0.00    +0.000 C 
BRANCH  10  12
ATOM     11  C   UNL     1       3.485   1.470  18.631  0.00  0.00    +0.000 C 
ATOM     12  S   UNL     1       2.345   2.745  19.223  0.00  0.00    +0.000 S 
ENDBRANCH  10  12
ENDBRANCH   4  10
ENDBRANCH   1   8
BRANCH   1  13
ATOM     13  N   UNL     1       6.402   3.468  14.730  0.00  0.00    +0.000 NA
ATOM     14  H   UNL     1       5.554   3.062  15.128  0.00  0.00    +0.000 HD
BRANCH  13  15
ATOM     15  C   UNL     1       6.447   3.664  13.276  0.00  0.00    +0.000 C 
BRANCH  15  16
ATOM     16  C   UNL     1       5.033   3.704  12.705  0.00  0.00    +0.000 C 
BRANCH  16  17
ATOM     17  C   UNL     1       4.874   2.860  11.450  0.00  0.00    +0.000 C 
BRANCH  17  18
ATOM     18  O   UNL     1       3.596   3.107  10.872  0.00  0.00    +0.000 OA
ATOM     19  H   UNL     1       3.115   2.261  10.850  0.00  0.00    +0.000 HD
ENDBRANCH  17  18
ENDBRANCH  16  17
ENDBRANCH  15  16
ENDBRANCH  13  15
ENDBRANCH   1  13
TORSDOF 8
ENDMDL
MODEL 9
REMARK VINA RESULT:      -5.6      2.260      3.074
REMARK  Name = 
REMARK  9 active torsions:
REMARK  status: ('A' for Active; 'I' for Inactive)
REMARK    1  A    between atoms: C_1  and  S_2
REMARK    2  A    between atoms: S_2  and  C_3
REMARK    3  A    between atoms: C_3  and  C_4
REMARK    4  A    between atoms: C_8  and  S_9
REMARK    5  A    between atoms: S_9  and  N_12
REMARK    6  A    between atoms: N_12  and  C_13
REMARK    7  A    between atoms: C_13  and  C_14
REMARK    8  A    between atoms: C_14  and  C_15
REMARK    9  A    between atoms: C_15  and  O_16
REMARK                            x       y       z     vdW  Elec       q    Type
REMARK                         _______ _______ _______ _____ _____    ______ ____
ROOT
ATOM      1  S   UNL     1       6.812   5.566  16.342  0.00  0.00    +0.000 S 
ATOM      2  O   UNL     1       7.248   6.936  16.493  0.00  0.00    +0.000 OA
ATOM      3  O   UNL     1       7.567   4.464  16.895  0.00  0.00    +0.000 OA
ENDROOT
BRANCH   1   8
ATOM      4  C   UNL     1       3.191   6.585  17.868  0.00  0.00    +0.000 A 
ATOM      5  C   UNL     1       2.600   5.325  18.058  0.00  0.00    +0.000 A 
ATOM      6  C   UNL     1       3.269   4.157  17.688  0.00  0.00    +0.000 A 
ATOM      7  C   UNL     1       4.542   4.228  17.125  0.00  0.00    +0.000 A 
ATOM      8  C   UNL     1       5.142   5.475  16.934  0.00  0.00    +0.000 A 
ATOM      9  C   UNL     1       4.476   6.650  17.302  0.00  0.00    +0.000 A 
BRANCH   4  10
ATOM     10  C   UNL     1       2.474   7.835  18.320  0.00  0.00    +0.000 C 
BRANCH  10  12
ATOM     11  C   UNL     1       0.943   9.316  20.093  0.00  0.00    +0.000 C 
ATOM     12  S   UNL     1       1.866   7.760  20.033  0.00  0.00    +0.000 S 
ENDBRANCH  10  12
ENDBRANCH   4  10
ENDBRANCH   1   8
BRANCH   1  13
ATOM     13  N   UNL     1       6.660   5.311  14.681  0.00  0.00    +0.000 NA
ATOM     14  H   UNL     1       7.400   5.813  14.188  0.00  0.00    +0.000 HD
BRANCH  13  15
ATOM     15  C   UNL     1       6.330   3.957  14.223  0.00  0.00    +0.000 C 
BRANCH  15  16
ATOM     16  C   UNL     1       6.550   3.842  12.718  0.00  0.00    +0.000 C 
BRANCH  16  17
ATOM     17  C   UNL     1       5.448   3.066  12.012  0.00  0.00    +0.000 C 
BRANCH  17  18
ATOM     18  O   UNL     1       5.929   1.772  11.663  0.00  0.00    +0.000 OA
ATOM     19  H   UNL     1       6.474   1.866  10.863  0.00  0.00    +0.000 HD
ENDBRANCH  17  18
ENDBRANCH  16  17
ENDBRANCH  15  16
ENDBRANCH  13  15
ENDBRANCH   1  13
TORSDOF 8
ENDMDL
