MODEL 1
REMARK VINA RESULT:      -7.3      0.000      0.000
REMARK  Name = 
REMARK  7 active torsions:
REMARK  status: ('A' for Active; 'I' for Inactive)
REMARK    1  A    between atoms: C_1  and  N_2
REMARK    2  A    between atoms: N_5  and  C_6
REMARK    3  A    between atoms: C_13  and  N_14
REMARK    4  A    between atoms: C_15  and  C_17
REMARK    5  A    between atoms: C_20  and  O_21
REMARK    6  A    between atoms: O_21  and  C_22
REMARK    7  A    between atoms: C_22  and  C_23
REMARK                            x       y       z     vdW  Elec       q    Type
REMARK                         _______ _______ _______ _____ _____    ______ ____
ROOT
ATOM      1  C   UNL     1      -2.985  12.548  20.836  0.00  0.00    +0.000 A 
ATOM      2  C   UNL     1      -3.181  12.644  22.229  0.00  0.00    +0.000 A 
ATOM      3  C   UNL     1      -2.120  12.843  23.117  0.00  0.00    +0.000 A 
ATOM      4  C   UNL     1      -0.834  12.977  22.634  0.00  0.00    +0.000 A 
ATOM      5  C   UNL     1      -0.602  12.905  21.263  0.00  0.00    +0.000 A 
ATOM      6  C   UNL     1      -1.654  12.647  20.355  0.00  0.00    +0.000 A 
ATOM      7  C   UNL     1      -1.324  12.603  18.877  0.00  0.00    +0.000 C 
ATOM      8  C   UNL     1       0.162  12.357  18.635  0.00  0.00    +0.000 C 
ATOM      9  C   UNL     1       0.927  13.343  19.506  0.00  0.00    +0.000 C 
ATOM     10  O   UNL     1       0.710  13.085  20.899  0.00  0.00    +0.000 OA
ENDROOT
BRANCH   1  15
ATOM     11  C   UNL     1      -6.655  13.234  16.734  0.00  0.00    +0.000 C 
ATOM     12  N   UNL     1      -6.121  12.619  17.944  0.00  0.00    +0.000 NA
ATOM     13  C   UNL     1      -6.036  13.614  19.044  0.00  0.00    +0.000 C 
ATOM     14  C   UNL     1      -5.374  13.058  20.335  0.00  0.00    +0.000 C 
ATOM     15  N   UNL     1      -4.072  12.460  19.987  0.00  0.00    +0.000 N 
ATOM     16  C   UNL     1      -4.217  11.393  18.986  0.00  0.00    +0.000 C 
ATOM     17  C   UNL     1      -4.780  12.035  17.697  0.00  0.00    +0.000 C 
ENDBRANCH   1  15
BRANCH   8  18
ATOM     18  N   UNL     1       0.504  10.961  18.941  0.00  0.00    +0.000 N 
ATOM     19  C   UNL     1       1.581  10.326  18.367  0.00  0.00    +0.000 C 
ATOM     20  O   UNL     1       2.318  10.856  17.550  0.00  0.00    +0.000 OA
ATOM     21  H   UNL     1       0.153  10.602  19.823  0.00  0.00    +0.000 HD
BRANCH  19  22
ATOM     22  C   UNL     1       1.822   8.933  18.805  0.00  0.00    +0.000 A 
ATOM     23  C   UNL     1       2.442   7.975  18.000  0.00  0.00    +0.000 A 
ATOM     24  C   UNL     1       2.648   6.690  18.502  0.00  0.00    +0.000 A 
ATOM     25  C   UNL     1       2.203   6.407  19.784  0.00  0.00    +0.000 A 
ATOM     26  N   UNL     1       1.614   7.309  20.593  0.00  0.00    +0.000 NA
ATOM     27  C   UNL     1       1.453   8.560  20.090  0.00  0.00    +0.000 A 
BRANCH  25  28
ATOM     28  O   UNL     1       2.400   5.125  20.248  0.00  0.00    +0.000 OA
BRANCH  28  29
ATOM     29  C   UNL     1       1.223   4.314  20.112  0.00  0.00    +0.000 C 
BRANCH  29  30
ATOM     30  C   UNL     1       1.252   3.318  18.955  0.00  0.00    +0.000 C 
ATOM     31  F   UNL     1       2.430   2.675  18.819  0.00  0.00    +0.000 F 
ATOM     32  F   UNL     1       0.273   2.391  19.072  0.00  0.00    +0.000 F 
ATOM     33  F   UNL     1       1.026   3.971  17.784  0.00  0.00    +0.000 F 
ENDBRANCH  29  30
ENDBRANCH  28  29
ENDBRANCH  25  28
ENDBRANCH  19  22
ENDBRANCH   8  18
TORSDOF 6
ENDMDL
MODEL 2
REMARK VINA RESULT:      -7.2      0.873      1.283
REMARK  Name = 
REMARK  7 active torsions:
REMARK  status: ('A' for Active; 'I' for Inactive)
REMARK    1  A    between atoms: C_1  and  N_2
REMARK    2  A    between atoms: N_5  and  C_6
REMARK    3  A    between atoms: C_13  and  N_14
REMARK    4  A    between atoms: C_15  and  C_17
REMARK    5  A    between atoms: C_20  and  O_21
REMARK    6  A    between atoms: O_21  and  C_22
REMARK    7  A    between atoms: C_22  and  C_23
REMARK                            x       y       z     vdW  Elec       q    Type
REMARK                         _______ _______ _______ _____ _____    ______ ____
ROOT
ATOM      1  C   UNL     1      -2.966  12.499  20.865  0.00  0.00    +0.000 A 
ATOM      2  C   UNL     1      -3.157  12.599  22.258  0.00  0.00    +0.000 A 
ATOM      3  C   UNL     1      -2.096  12.822  23.140  0.00  0.00    +0.000 A 
ATOM      4  C   UNL     1      -0.815  12.974  22.650  0.00  0.00    +0.000 A 
ATOM      5  C   UNL     1      -0.587  12.898  21.279  0.00  0.00    +0.000 A 
ATOM      6  C   UNL     1      -1.639  12.617  20.377  0.00  0.00    +0.000 A 
ATOM      7  C   UNL     1      -1.314  12.571  18.898  0.00  0.00    +0.000 C 
ATOM      8  C   UNL     1       0.174  12.349  18.651  0.00  0.00    +0.000 C 
ATOM      9  C   UNL     1       0.926  13.353  19.513  0.00  0.00    +0.000 C 
ATOM     10  O   UNL     1       0.720  13.098  20.908  0.00  0.00    +0.000 OA
ENDROOT
BRANCH   1  15
ATOM     11  C   UNL     1      -6.707  13.155  16.822  0.00  0.00    +0.000 C 
ATOM     12  N   UNL     1      -6.129  12.520  18.002  0.00  0.00    +0.000 NA
ATOM     13  C   UNL     1      -6.087  13.472  19.142  0.00  0.00    +0.000 C 
ATOM     14  C   UNL     1      -5.384  12.900  20.403  0.00  0.00    +0.000 C 
ATOM     15  N   UNL     1      -4.054  12.387  20.021  0.00  0.00    +0.000 N 
ATOM     16  C   UNL     1      -4.152  11.357  18.977  0.00  0.00    +0.000 C 
ATOM     17  C   UNL     1      -4.761  12.021  17.720  0.00  0.00    +0.000 C 
ENDBRANCH   1  15
BRANCH   8  18
ATOM     18  N   UNL     1       0.541  10.960  18.963  0.00  0.00    +0.000 N 
ATOM     19  C   UNL     1       1.608  10.331  18.365  0.00  0.00    +0.000 C 
ATOM     20  O   UNL     1       2.315  10.859  17.520  0.00  0.00    +0.000 OA
ATOM     21  H   UNL     1       0.221  10.608  19.859  0.00  0.00    +0.000 HD
BRANCH  19  22
ATOM     22  C   UNL     1       1.878   8.945  18.812  0.00  0.00    +0.000 A 
ATOM     23  C   UNL     1       1.461   8.445  20.048  0.00  0.00    +0.000 A 
ATOM     24  C   UNL     1       1.742   7.119  20.379  0.00  0.00    +0.000 A 
ATOM     25  C   UNL     1       2.452   6.352  19.468  0.00  0.00    +0.000 A 
ATOM     26  N   UNL     1       2.859   6.797  18.263  0.00  0.00    +0.000 NA
ATOM     27  C   UNL     1       2.546   8.082  17.954  0.00  0.00    +0.000 A 
BRANCH  25  28
ATOM     28  O   UNL     1       2.734   5.053  19.827  0.00  0.00    +0.000 OA
BRANCH  28  29
ATOM     29  C   UNL     1       1.930   4.610  20.931  0.00  0.00    +0.000 C 
BRANCH  29  30
ATOM     30  C   UNL     1       1.362   3.199  20.794  0.00  0.00    +0.000 C 
ATOM     31  F   UNL     1       0.896   2.683  21.950  0.00  0.00    +0.000 F 
ATOM     32  F   UNL     1       0.368   3.149  19.877  0.00  0.00    +0.000 F 
ATOM     33  F   UNL     1       2.334   2.355  20.354  0.00  0.00    +0.000 F 
ENDBRANCH  29  30
ENDBRANCH  28  29
ENDBRANCH  25  28
ENDBRANCH  19  22
ENDBRANCH   8  18
TORSDOF 6
ENDMDL
MODEL 3
REMARK VINA RESULT:      -7.1      0.532      1.110
REMARK  Name = 
REMARK  7 active torsions:
REMARK  status: ('A' for Active; 'I' for Inactive)
REMARK    1  A    between atoms: C_1  and  N_2
REMARK    2  A    between atoms: N_5  and  C_6
REMARK    3  A    between atoms: C_13  and  N_14
REMARK    4  A    between atoms: C_15  and  C_17
REMARK    5  A    between atoms: C_20  and  O_21
REMARK    6  A    between atoms: O_21  and  C_22
REMARK    7  A    between atoms: C_22  and  C_23
REMARK                            x       y       z     vdW  Elec       q    Type
REMARK                         _______ _______ _______ _____ _____    ______ ____
ROOT
ATOM      1  C   UNL     1      -2.952  12.528  20.884  0.00  0.00    +0.000 A 
ATOM      2  C   UNL     1      -3.144  12.700  22.270  0.00  0.00    +0.000 A 
ATOM      3  C   UNL     1      -2.082  12.959  23.141  0.00  0.00    +0.000 A 
ATOM      4  C   UNL     1      -0.799  13.078  22.647  0.00  0.00    +0.000 A 
ATOM      5  C   UNL     1      -0.571  12.931  21.281  0.00  0.00    +0.000 A 
ATOM      6  C   UNL     1      -1.624  12.613  20.393  0.00  0.00    +0.000 A 
ATOM      7  C   UNL     1      -1.297  12.489  18.919  0.00  0.00    +0.000 C 
ATOM      8  C   UNL     1       0.190  12.245  18.685  0.00  0.00    +0.000 C 
ATOM      9  C   UNL     1       0.948  13.286  19.497  0.00  0.00    +0.000 C 
ATOM     10  O   UNL     1       0.738  13.103  20.903  0.00  0.00    +0.000 OA
ENDROOT
BRANCH   1  15
ATOM     11  C   UNL     1      -6.742  13.077  16.871  0.00  0.00    +0.000 C 
ATOM     12  N   UNL     1      -6.131  12.453  18.040  0.00  0.00    +0.000 NA
ATOM     13  C   UNL     1      -6.120  13.393  19.190  0.00  0.00    +0.000 C 
ATOM     14  C   UNL     1      -5.387  12.836  20.441  0.00  0.00    +0.000 C 
ATOM     15  N   UNL     1      -4.040  12.382  20.045  0.00  0.00    +0.000 N 
ATOM     16  C   UNL     1      -4.102  11.360  18.991  0.00  0.00    +0.000 C 
ATOM     17  C   UNL     1      -4.746  12.013  17.745  0.00  0.00    +0.000 C 
ENDBRANCH   1  15
BRANCH   8  18
ATOM     18  N   UNL     1       0.547  10.871  19.068  0.00  0.00    +0.000 N 
ATOM     19  C   UNL     1       1.517  10.154  18.408  0.00  0.00    +0.000 C 
ATOM     20  O   UNL     1       2.139  10.586  17.449  0.00  0.00    +0.000 OA
ATOM     21  H   UNL     1       0.320  10.604  20.020  0.00  0.00    +0.000 HD
BRANCH  19  22
ATOM     22  C   UNL     1       1.794   8.798  18.935  0.00  0.00    +0.000 A 
ATOM     23  C   UNL     1       1.382   8.370  20.199  0.00  0.00    +0.000 A 
ATOM     24  C   UNL     1       1.668   7.067  20.606  0.00  0.00    +0.000 A 
ATOM     25  C   UNL     1       2.378   6.250  19.739  0.00  0.00    +0.000 A 
ATOM     26  N   UNL     1       2.779   6.625  18.509  0.00  0.00    +0.000 NA
ATOM     27  C   UNL     1       2.461   7.888  18.126  0.00  0.00    +0.000 A 
BRANCH  25  28
ATOM     28  O   UNL     1       2.666   4.975  20.173  0.00  0.00    +0.000 OA
BRANCH  28  29
ATOM     29  C   UNL     1       1.524   4.107  20.096  0.00  0.00    +0.000 C 
BRANCH  29  30
ATOM     30  C   UNL     1       1.358   3.370  18.769  0.00  0.00    +0.000 C 
ATOM     31  F   UNL     1       0.919   4.154  17.761  0.00  0.00    +0.000 F 
ATOM     32  F   UNL     1       2.513   2.783  18.376  0.00  0.00    +0.000 F 
ATOM     33  F   UNL     1       0.447   2.371  18.910  0.00  0.00    +0.000 F 
ENDBRANCH  29  30
ENDBRANCH  28  29
ENDBRANCH  25  28
ENDBRANCH  19  22
ENDBRANCH   8  18
TORSDOF 6
ENDMDL
MODEL 4
REMARK VINA RESULT:      -7.0      5.610      8.961
REMARK  Name = 
REMARK  7 active torsions:
REMARK  status: ('A' for Active; 'I' for Inactive)
REMARK    1  A    between atoms: C_1  and  N_2
REMARK    2  A    between atoms: N_5  and  C_6
REMARK    3  A    between atoms: C_13  and  N_14
REMARK    4  A    between atoms: C_15  and  C_17
REMARK    5  A    between atoms: C_20  and  O_21
REMARK    6  A    between atoms: O_21  and  C_22
REMARK    7  A    between atoms: C_22  and  C_23
REMARK                            x       y       z     vdW  Elec       q    Type
REMARK                         _______ _______ _______ _____ _____    ______ ____
ROOT
ATOM      1  C   UNL     1       2.359   5.733  19.494  0.00  0.00    +0.000 A 
ATOM      2  C   UNL     1       1.335   4.787  19.709  0.00  0.00    +0.000 A 
ATOM      3  C   UNL     1       1.602   3.421  19.841  0.00  0.00    +0.000 A 
ATOM      4  C   UNL     1       2.903   2.965  19.786  0.00  0.00    +0.000 A 
ATOM      5  C   UNL     1       3.943   3.870  19.591  0.00  0.00    +0.000 A 
ATOM      6  C   UNL     1       3.688   5.248  19.399  0.00  0.00    +0.000 A 
ATOM      7  C   UNL     1       4.874   6.171  19.213  0.00  0.00    +0.000 C 
ATOM      8  C   UNL     1       6.122   5.411  18.774  0.00  0.00    +0.000 C 
ATOM      9  C   UNL     1       6.282   4.229  19.720  0.00  0.00    +0.000 C 
ATOM     10  O   UNL     1       5.195   3.305  19.587  0.00  0.00    +0.000 OA
ENDROOT
BRANCH   1  15
ATOM     11  C   UNL     1      -0.130  10.674  19.096  0.00  0.00    +0.000 C 
ATOM     12  N   UNL     1       0.987   9.770  19.346  0.00  0.00    +0.000 NA
ATOM     13  C   UNL     1       1.327   9.004  18.119  0.00  0.00    +0.000 C 
ATOM     14  C   UNL     1       2.438   7.941  18.338  0.00  0.00    +0.000 C 
ATOM     15  N   UNL     1       2.063   7.083  19.478  0.00  0.00    +0.000 N 
ATOM     16  C   UNL     1       1.859   7.869  20.703  0.00  0.00    +0.000 C 
ATOM     17  C   UNL     1       0.673   8.829  20.448  0.00  0.00    +0.000 C 
ENDBRANCH   1  15
BRANCH   8  18
ATOM     18  N   UNL     1       5.996   4.990  17.372  0.00  0.00    +0.000 N 
ATOM     19  C   UNL     1       6.739   5.560  16.365  0.00  0.00    +0.000 C 
ATOM     20  O   UNL     1       7.538   6.466  16.547  0.00  0.00    +0.000 OA
ATOM     21  H   UNL     1       5.623   4.058  17.221  0.00  0.00    +0.000 HD
BRANCH  19  22
ATOM     22  C   UNL     1       6.531   5.002  15.009  0.00  0.00    +0.000 A 
ATOM     23  C   UNL     1       7.490   5.076  13.996  0.00  0.00    +0.000 A 
ATOM     24  C   UNL     1       7.217   4.504  12.754  0.00  0.00    +0.000 A 
ATOM     25  C   UNL     1       5.983   3.901  12.566  0.00  0.00    +0.000 A 
ATOM     26  N   UNL     1       5.040   3.800  13.523  0.00  0.00    +0.000 NA
ATOM     27  C   UNL     1       5.344   4.338  14.731  0.00  0.00    +0.000 A 
BRANCH  25  28
ATOM     28  O   UNL     1       5.730   3.363  11.323  0.00  0.00    +0.000 OA
BRANCH  28  29
ATOM     29  C   UNL     1       5.438   1.959  11.392  0.00  0.00    +0.000 C 
BRANCH  29  30
ATOM     30  C   UNL     1       6.562   1.039  10.921  0.00  0.00    +0.000 C 
ATOM     31  F   UNL     1       6.269  -0.275  11.018  0.00  0.00    +0.000 F 
ATOM     32  F   UNL     1       6.917   1.300   9.642  0.00  0.00    +0.000 F 
ATOM     33  F   UNL     1       7.672   1.247  11.679  0.00  0.00    +0.000 F 
ENDBRANCH  29  30
ENDBRANCH  28  29
ENDBRANCH  25  28
ENDBRANCH  19  22
ENDBRANCH   8  18
TORSDOF 6
ENDMDL
MODEL 5
REMARK VINA RESULT:      -7.0      3.698      5.674
REMARK  Name = 
REMARK  7 active torsions:
REMARK  status: ('A' for Active; 'I' for Inactive)
REMARK    1  A    between atoms: C_1  and  N_2
REMARK    2  A    between atoms: N_5  and  C_6
REMARK    3  A    between atoms: C_13  and  N_14
REMARK    4  A    between atoms: C_15  and  C_17
REMARK    5  A    between atoms: C_20  and  O_21
REMARK    6  A    between atoms: O_21  and  C_22
REMARK    7  A    between atoms: C_22  and  C_23
REMARK                            x       y       z     vdW  Elec       q    Type
REMARK                         _______ _______ _______ _____ _____    ______ ____
ROOT
ATOM      1  C   UNL     1       0.234  12.667  19.281  0.00  0.00    +0.000 A 
ATOM      2  C   UNL     1      -0.625  12.933  18.195  0.00  0.00    +0.000 A 
ATOM      3  C   UNL     1      -1.566  12.002  17.746  0.00  0.00    +0.000 A 
ATOM      4  C   UNL     1      -1.692  10.786  18.386  0.00  0.00    +0.000 A 
ATOM      5  C   UNL     1      -0.873  10.492  19.473  0.00  0.00    +0.000 A 
ATOM      6  C   UNL     1       0.123  11.398  19.906  0.00  0.00    +0.000 A 
ATOM      7  C   UNL     1       0.960  11.013  21.108  0.00  0.00    +0.000 C 
ATOM      8  C   UNL     1       0.933   9.510  21.362  0.00  0.00    +0.000 C 
ATOM      9  C   UNL     1      -0.528   9.080  21.345  0.00  0.00    +0.000 C 
ATOM     10  O   UNL     1      -1.111   9.268  20.049  0.00  0.00    +0.000 OA
ENDROOT
BRANCH   1  15
ATOM     11  C   UNL     1       4.218  15.527  21.872  0.00  0.00    +0.000 C 
ATOM     12  N   UNL     1       3.069  15.359  20.989  0.00  0.00    +0.000 NA
ATOM     13  C   UNL     1       1.893  14.861  21.748  0.00  0.00    +0.000 C 
ATOM     14  C   UNL     1       0.660  14.555  20.853  0.00  0.00    +0.000 C 
ATOM     15  N   UNL     1       1.073  13.654  19.760  0.00  0.00    +0.000 N 
ATOM     16  C   UNL     1       2.155  14.240  18.957  0.00  0.00    +0.000 C 
ATOM     17  C   UNL     1       3.380  14.420  19.884  0.00  0.00    +0.000 C 
ENDBRANCH   1  15
BRANCH   8  18
ATOM     18  N   UNL     1       1.732   8.807  20.349  0.00  0.00    +0.000 N 
ATOM     19  C   UNL     1       1.848   7.437  20.325  0.00  0.00    +0.000 C 
ATOM     20  O   UNL     1       1.321   6.702  21.147  0.00  0.00    +0.000 OA
ATOM     21  H   UNL     1       1.900   9.314  19.486  0.00  0.00    +0.000 HD
BRANCH  19  22
ATOM     22  C   UNL     1       2.655   6.872  19.220  0.00  0.00    +0.000 A 
ATOM     23  C   UNL     1       3.155   7.641  18.167  0.00  0.00    +0.000 A 
ATOM     24  C   UNL     1       3.924   7.028  17.178  0.00  0.00    +0.000 A 
ATOM     25  C   UNL     1       4.143   5.662  17.269  0.00  0.00    +0.000 A 
ATOM     26  N   UNL     1       3.686   4.892  18.276  0.00  0.00    +0.000 NA
ATOM     27  C   UNL     1       2.967   5.519  19.241  0.00  0.00    +0.000 A 
BRANCH  25  28
ATOM     28  O   UNL     1       4.887   5.078  16.269  0.00  0.00    +0.000 OA
BRANCH  28  29
ATOM     29  C   UNL     1       5.912   4.217  16.790  0.00  0.00    +0.000 C 
BRANCH  29  30
ATOM     30  C   UNL     1       7.146   4.934  17.332  0.00  0.00    +0.000 C 
ATOM     31  F   UNL     1       8.243   4.152  17.405  0.00  0.00    +0.000 F 
ATOM     32  F   UNL     1       7.453   6.026  16.594  0.00  0.00    +0.000 F 
ATOM     33  F   UNL     1       6.901   5.378  18.594  0.00  0.00    +0.000 F 
ENDBRANCH  29  30
ENDBRANCH  28  29
ENDBRANCH  25  28
ENDBRANCH  19  22
ENDBRANCH   8  18
TORSDOF 6
ENDMDL
MODEL 6
REMARK VINA RESULT:      -6.9      0.805      1.312
REMARK  Name = 
REMARK  7 active torsions:
REMARK  status: ('A' for Active; 'I' for Inactive)
REMARK    1  A    between atoms: C_1  and  N_2
REMARK    2  A    between atoms: N_5  and  C_6
REMARK    3  A    between atoms: C_13  and  N_14
REMARK    4  A    between atoms: C_15  and  C_17
REMARK    5  A    between atoms: C_20  and  O_21
REMARK    6  A    between atoms: O_21  and  C_22
REMARK    7  A    between atoms: C_22  and  C_23
REMARK                            x       y       z     vdW  Elec       q    Type
REMARK                         _______ _______ _______ _____ _____    ______ ____
ROOT
ATOM      1  C   UNL     1      -2.673  12.563  20.988  0.00  0.00    +0.000 A 
ATOM      2  C   UNL     1      -3.039  12.574  22.349  0.00  0.00    +0.000 A 
ATOM      3  C   UNL     1      -2.091  12.660  23.373  0.00  0.00    +0.000 A 
ATOM      4  C   UNL     1      -0.750  12.762  23.063  0.00  0.00    +0.000 A 
ATOM      5  C   UNL     1      -0.350  12.772  21.729  0.00  0.00    +0.000 A 
ATOM      6  C   UNL     1      -1.289  12.628  20.682  0.00  0.00    +0.000 A 
ATOM      7  C   UNL     1      -0.777  12.668  19.257  0.00  0.00    +0.000 C 
ATOM      8  C   UNL     1       0.716  12.366  19.182  0.00  0.00    +0.000 C 
ATOM      9  C   UNL     1       1.404  13.252  20.210  0.00  0.00    +0.000 C 
ATOM     10  O   UNL     1       1.003  12.911  21.543  0.00  0.00    +0.000 OA
ENDROOT
BRANCH   1  15
ATOM     11  C   UNL     1      -7.238  11.753  17.942  0.00  0.00    +0.000 C 
ATOM     12  N   UNL     1      -5.937  12.339  18.250  0.00  0.00    +0.000 NA
ATOM     13  C   UNL     1      -4.892  11.286  18.323  0.00  0.00    +0.000 C 
ATOM     14  C   UNL     1      -3.500  11.822  18.755  0.00  0.00    +0.000 C 
ATOM     15  N   UNL     1      -3.647  12.586  20.007  0.00  0.00    +0.000 N 
ATOM     16  C   UNL     1      -4.597  13.697  19.854  0.00  0.00    +0.000 C 
ATOM     17  C   UNL     1      -5.981  13.086  19.530  0.00  0.00    +0.000 C 
ENDBRANCH   1  15
BRANCH   8  18
ATOM     18  N   UNL     1       0.960  10.937  19.424  0.00  0.00    +0.000 N 
ATOM     19  C   UNL     1       1.642  10.147  18.530  0.00  0.00    +0.000 C 
ATOM     20  O   UNL     1       2.077  10.556  17.464  0.00  0.00    +0.000 OA
ATOM     21  H   UNL     1       0.926  10.640  20.394  0.00  0.00    +0.000 HD
BRANCH  19  22
ATOM     22  C   UNL     1       1.845   8.736  18.932  0.00  0.00    +0.000 A 
ATOM     23  C   UNL     1       2.391   7.770  18.084  0.00  0.00    +0.000 A 
ATOM     24  C   UNL     1       2.565   6.468  18.553  0.00  0.00    +0.000 A 
ATOM     25  C   UNL     1       2.162   6.178  19.848  0.00  0.00    +0.000 A 
ATOM     26  N   UNL     1       1.643   7.087  20.697  0.00  0.00    +0.000 NA
ATOM     27  C   UNL     1       1.513   8.353  20.224  0.00  0.00    +0.000 A 
BRANCH  25  28
ATOM     28  O   UNL     1       2.325   4.881  20.280  0.00  0.00    +0.000 OA
BRANCH  28  29
ATOM     29  C   UNL     1       2.037   3.926  19.247  0.00  0.00    +0.000 C 
BRANCH  29  30
ATOM     30  C   UNL     1       1.232   2.709  19.695  0.00  0.00    +0.000 C 
ATOM     31  F   UNL     1       0.870   2.742  20.994  0.00  0.00    +0.000 F 
ATOM     32  F   UNL     1       0.116   2.547  18.947  0.00  0.00    +0.000 F 
ATOM     33  F   UNL     1       1.975   1.581  19.526  0.00  0.00    +0.000 F 
ENDBRANCH  29  30
ENDBRANCH  28  29
ENDBRANCH  25  28
ENDBRANCH  19  22
ENDBRANCH   8  18
TORSDOF 6
ENDMDL
MODEL 7
REMARK VINA RESULT:      -6.9      3.697      5.584
REMARK  Name = 
REMARK  7 active torsions:
REMARK  status: ('A' for Active; 'I' for Inactive)
REMARK    1  A    between atoms: C_1  and  N_2
REMARK    2  A    between atoms: N_5  and  C_6
REMARK    3  A    between atoms: C_13  and  N_14
REMARK    4  A    between atoms: C_15  and  C_17
REMARK    5  A    between atoms: C_20  and  O_21
REMARK    6  A    between atoms: O_21  and  C_22
REMARK    7  A    between atoms: C_22  and  C_23
REMARK                            x       y       z     vdW  Elec       q    Type
REMARK                         _______ _______ _______ _____ _____    ______ ____
ROOT
ATOM      1  C   UNL     1       0.072  12.580  18.802  0.00  0.00    +0.000 A 
ATOM      2  C   UNL     1      -0.891  12.672  17.776  0.00  0.00    +0.000 A 
ATOM      3  C   UNL     1      -1.851  11.678  17.567  0.00  0.00    +0.000 A 
ATOM      4  C   UNL     1      -1.891  10.574  18.394  0.00  0.00    +0.000 A 
ATOM      5  C   UNL     1      -0.967  10.454  19.429  0.00  0.00    +0.000 A 
ATOM      6  C   UNL     1       0.047  11.421  19.620  0.00  0.00    +0.000 A 
ATOM      7  C   UNL     1       1.001  11.230  20.780  0.00  0.00    +0.000 C 
ATOM      8  C   UNL     1       1.028   9.782  21.261  0.00  0.00    +0.000 C 
ATOM      9  C   UNL     1      -0.418   9.347  21.451  0.00  0.00    +0.000 C 
ATOM     10  O   UNL     1      -1.125   9.332  20.204  0.00  0.00    +0.000 OA
ENDROOT
BRANCH   1  15
ATOM     11  C   UNL     1       3.806  16.069  20.957  0.00  0.00    +0.000 C 
ATOM     12  N   UNL     1       2.860  15.597  19.952  0.00  0.00    +0.000 NA
ATOM     13  C   UNL     1       1.487  15.533  20.514  0.00  0.00    +0.000 C 
ATOM     14  C   UNL     1       0.441  14.935  19.533  0.00  0.00    +0.000 C 
ATOM     15  N   UNL     1       0.932  13.634  19.043  0.00  0.00    +0.000 N 
ATOM     16  C   UNL     1       2.239  13.763  18.382  0.00  0.00    +0.000 C 
ATOM     17  C   UNL     1       3.250  14.260  19.441  0.00  0.00    +0.000 C 
ENDBRANCH   1  15
BRANCH   8  18
ATOM     18  N   UNL     1       1.742   8.937  20.294  0.00  0.00    +0.000 N 
ATOM     19  C   UNL     1       1.813   7.570  20.426  0.00  0.00    +0.000 C 
ATOM     20  O   UNL     1       1.314   6.956  21.356  0.00  0.00    +0.000 OA
ATOM     21  H   UNL     1       1.873   9.335  19.370  0.00  0.00    +0.000 HD
BRANCH  19  22
ATOM     22  C   UNL     1       2.534   6.851  19.351  0.00  0.00    +0.000 A 
ATOM     23  C   UNL     1       3.071   7.488  18.230  0.00  0.00    +0.000 A 
ATOM     24  C   UNL     1       3.753   6.734  17.276  0.00  0.00    +0.000 A 
ATOM     25  C   UNL     1       3.849   5.365  17.468  0.00  0.00    +0.000 A 
ATOM     26  N   UNL     1       3.354   4.718  18.542  0.00  0.00    +0.000 NA
ATOM     27  C   UNL     1       2.723   5.481  19.470  0.00  0.00    +0.000 A 
BRANCH  25  28
ATOM     28  O   UNL     1       4.509   4.640  16.501  0.00  0.00    +0.000 OA
BRANCH  28  29
ATOM     29  C   UNL     1       5.358   5.466  15.690  0.00  0.00    +0.000 C 
BRANCH  29  30
ATOM     30  C   UNL     1       6.856   5.272  15.911  0.00  0.00    +0.000 C 
ATOM     31  F   UNL     1       7.447   6.289  16.572  0.00  0.00    +0.000 F 
ATOM     32  F   UNL     1       7.116   4.124  16.579  0.00  0.00    +0.000 F 
ATOM     33  F   UNL     1       7.486   5.169  14.710  0.00  0.00    +0.000 F 
ENDBRANCH  29  30
ENDBRANCH  28  29
ENDBRANCH  25  28
ENDBRANCH  19  22
ENDBRANCH   8  18
TORSDOF 6
ENDMDL
MODEL 8
REMARK VINA RESULT:      -6.9      1.180      1.266
REMARK  Name = 
REMARK  7 active torsions:
REMARK  status: ('A' for Active; 'I' for Inactive)
REMARK    1  A    between atoms: C_1  and  N_2
REMARK    2  A    between atoms: N_5  and  C_6
REMARK    3  A    between atoms: C_13  and  N_14
REMARK    4  A    between atoms: C_15  and  C_17
REMARK    5  A    between atoms: C_20  and  O_21
REMARK    6  A    between atoms: O_21  and  C_22
REMARK    7  A    between atoms: C_22  and  C_23
REMARK                            x       y       z     vdW  Elec       q    Type
REMARK                         _______ _______ _______ _____ _____    ______ ____
ROOT
ATOM      1  C   UNL     1      -2.463  12.763  20.770  0.00  0.00    +0.000 A 
ATOM      2  C   UNL     1      -2.553  12.918  22.168  0.00  0.00    +0.000 A 
ATOM      3  C   UNL     1      -1.465  13.334  22.941  0.00  0.00    +0.000 A 
ATOM      4  C   UNL     1      -0.262  13.629  22.334  0.00  0.00    +0.000 A 
ATOM      5  C   UNL     1      -0.138  13.504  20.953  0.00  0.00    +0.000 A 
ATOM      6  C   UNL     1      -1.210  13.031  20.161  0.00  0.00    +0.000 A 
ATOM      7  C   UNL     1      -1.003  12.942  18.664  0.00  0.00    +0.000 C 
ATOM      8  C   UNL     1       0.477  12.909  18.296  0.00  0.00    +0.000 C 
ATOM      9  C   UNL     1       1.149  14.055  19.040  0.00  0.00    +0.000 C 
ATOM     10  O   UNL     1       1.094  13.857  20.458  0.00  0.00    +0.000 OA
ENDROOT
BRANCH   1  15
ATOM     11  C   UNL     1      -6.620  12.714  17.097  0.00  0.00    +0.000 C 
ATOM     12  N   UNL     1      -5.835  12.204  18.216  0.00  0.00    +0.000 NA
ATOM     13  C   UNL     1      -5.850  13.166  19.348  0.00  0.00    +0.000 C 
ATOM     14  C   UNL     1      -4.946  12.741  20.537  0.00  0.00    +0.000 C 
ATOM     15  N   UNL     1      -3.590  12.456  20.031  0.00  0.00    +0.000 N 
ATOM     16  C   UNL     1      -3.607  11.408  19.001  0.00  0.00    +0.000 C 
ATOM     17  C   UNL     1      -4.434  11.940  17.807  0.00  0.00    +0.000 C 
ENDBRANCH   1  15
BRANCH   8  18
ATOM     18  N   UNL     1       1.059  11.604  18.640  0.00  0.00    +0.000 N 
ATOM     19  C   UNL     1       0.478  10.418  18.256  0.00  0.00    +0.000 C 
ATOM     20  O   UNL     1      -0.566  10.351  17.627  0.00  0.00    +0.000 OA
ATOM     21  H   UNL     1       2.051  11.603  18.850  0.00  0.00    +0.000 HD
BRANCH  19  22
ATOM     22  C   UNL     1       1.203   9.185  18.642  0.00  0.00    +0.000 A 
ATOM     23  C   UNL     1       1.909   8.396  17.731  0.00  0.00    +0.000 A 
ATOM     24  C   UNL     1       2.581   7.262  18.186  0.00  0.00    +0.000 A 
ATOM     25  C   UNL     1       2.499   6.948  19.534  0.00  0.00    +0.000 A 
ATOM     26  N   UNL     1       1.838   7.692  20.442  0.00  0.00    +0.000 NA
ATOM     27  C   UNL     1       1.219   8.807  19.978  0.00  0.00    +0.000 A 
BRANCH  25  28
ATOM     28  O   UNL     1       3.154   5.811  19.954  0.00  0.00    +0.000 OA
BRANCH  28  29
ATOM     29  C   UNL     1       2.514   4.614  19.485  0.00  0.00    +0.000 C 
BRANCH  29  30
ATOM     30  C   UNL     1       1.614   3.919  20.503  0.00  0.00    +0.000 C 
ATOM     31  F   UNL     1       1.467   2.595  20.287  0.00  0.00    +0.000 F 
ATOM     32  F   UNL     1       2.063   4.094  21.768  0.00  0.00    +0.000 F 
ATOM     33  F   UNL     1       0.368   4.461  20.459  0.00  0.00    +0.000 F 
ENDBRANCH  29  30
ENDBRANCH  28  29
ENDBRANCH  25  28
ENDBRANCH  19  22
ENDBRANCH   8  18
TORSDOF 6
ENDMDL
MODEL 9
REMARK VINA RESULT:      -6.8      1.179      1.344
REMARK  Name = 
REMARK  7 active torsions:
REMARK  status: ('A' for Active; 'I' for Inactive)
REMARK    1  A    between atoms: C_1  and  N_2
REMARK    2  A    between atoms: N_5  and  C_6
REMARK    3  A    between atoms: C_13  and  N_14
REMARK    4  A    between atoms: C_15  and  C_17
REMARK    5  A    between atoms: C_20  and  O_21
REMARK    6  A    between atoms: O_21  and  C_22
REMARK    7  A    between atoms: C_22  and  C_23
REMARK                            x       y       z     vdW  Elec       q    Type
REMARK                         _______ _______ _______ _____ _____    ______ ____
ROOT
ATOM      1  C   UNL     1      -3.349  12.627  21.076  0.00  0.00    +0.000 A 
ATOM      2  C   UNL     1      -3.594  12.508  22.460  0.00  0.00    +0.000 A 
ATOM      3  C   UNL     1      -2.572  12.611  23.407  0.00  0.00    +0.000 A 
ATOM      4  C   UNL     1      -1.277  12.860  22.999  0.00  0.00    +0.000 A 
ATOM      5  C   UNL     1      -0.997  13.000  21.642  0.00  0.00    +0.000 A 
ATOM      6  C   UNL     1      -2.008  12.843  20.666  0.00  0.00    +0.000 A 
ATOM      7  C   UNL     1      -1.628  13.030  19.212  0.00  0.00    +0.000 C 
ATOM      8  C   UNL     1      -0.127  12.875  18.993  0.00  0.00    +0.000 C 
ATOM      9  C   UNL     1       0.569  13.748  20.028  0.00  0.00    +0.000 C 
ATOM     10  O   UNL     1       0.317  13.279  21.359  0.00  0.00    +0.000 OA
ENDROOT
BRANCH   1  15
ATOM     11  C   UNL     1      -6.747  13.558  16.792  0.00  0.00    +0.000 C 
ATOM     12  N   UNL     1      -6.335  12.934  18.045  0.00  0.00    +0.000 NA
ATOM     13  C   UNL     1      -6.185  13.954  19.114  0.00  0.00    +0.000 C 
ATOM     14  C   UNL     1      -5.643  13.378  20.451  0.00  0.00    +0.000 C 
ATOM     15  N   UNL     1      -4.403  12.627  20.182  0.00  0.00    +0.000 N 
ATOM     16  C   UNL     1      -4.625  11.546  19.212  0.00  0.00    +0.000 C 
ATOM     17  C   UNL     1      -5.059  12.197  17.878  0.00  0.00    +0.000 C 
ENDBRANCH   1  15
BRANCH   8  18
ATOM     18  N   UNL     1       0.262  11.462  19.104  0.00  0.00    +0.000 N 
ATOM     19  C   UNL     1       1.449  10.986  18.601  0.00  0.00    +0.000 C 
ATOM     20  O   UNL     1       2.258  11.684  18.008  0.00  0.00    +0.000 OA
ATOM     21  H   UNL     1      -0.186  10.937  19.847  0.00  0.00    +0.000 HD
BRANCH  19  22
ATOM     22  C   UNL     1       1.720   9.547  18.825  0.00  0.00    +0.000 A 
ATOM     23  C   UNL     1       2.267   8.711  17.849  0.00  0.00    +0.000 A 
ATOM     24  C   UNL     1       2.508   7.371  18.154  0.00  0.00    +0.000 A 
ATOM     25  C   UNL     1       2.168   6.915  19.418  0.00  0.00    +0.000 A 
ATOM     26  N   UNL     1       1.650   7.695  20.387  0.00  0.00    +0.000 NA
ATOM     27  C   UNL     1       1.454   9.001  20.073  0.00  0.00    +0.000 A 
BRANCH  25  28
ATOM     28  O   UNL     1       2.396   5.584  19.688  0.00  0.00    +0.000 OA
BRANCH  28  29
ATOM     29  C   UNL     1       3.787   5.243  19.591  0.00  0.00    +0.000 C 
BRANCH  29  30
ATOM     30  C   UNL     1       4.109   4.095  18.638  0.00  0.00    +0.000 C 
ATOM     31  F   UNL     1       5.193   4.316  17.864  0.00  0.00    +0.000 F 
ATOM     32  F   UNL     1       4.294   2.931  19.303  0.00  0.00    +0.000 F 
ATOM     33  F   UNL     1       3.062   3.894  17.793  0.00  0.00    +0.000 F 
ENDBRANCH  29  30
ENDBRANCH  28  29
ENDBRANCH  25  28
ENDBRANCH  19  22
ENDBRANCH   8  18
TORSDOF 6
ENDMDL
