MODEL 1
REMARK VINA RESULT:      -7.8      0.000      0.000
REMARK  Name = 
REMARK  12 active torsions:
REMARK  status: ('A' for Active; 'I' for Inactive)
REMARK    1  A    between atoms: C_1  and  O_2
REMARK    2  A    between atoms: O_2  and  C_3
REMARK    3  A    between atoms: C_8  and  O_9
REMARK    4  A    between atoms: O_9  and  C_10
REMARK    5  A    between atoms: C_11  and  C_12
REMARK    6  A    between atoms: C_11  and  C_13
REMARK    7  A    between atoms: C_13  and  C_14
REMARK    8  A    between atoms: C_14  and  C_15
REMARK    9  A    between atoms: C_15  and  N_16
REMARK   10  A    between atoms: N_19  and  C_20
REMARK   11  A    between atoms: C_25  and  O_26
REMARK   12  A    between atoms: O_26  and  C_27
REMARK                            x       y       z     vdW  Elec       q    Type
REMARK                         _______ _______ _______ _____ _____    ______ ____
ROOT
ATOM      1  C   UNL     1       6.806   7.498  17.418  0.00  0.00    +0.000 C 
ENDROOT
BRANCH   1   8
ATOM      2  C   UNL     1       2.767   4.407  18.025  0.00  0.00    +0.000 A 
ATOM      3  C   UNL     1       3.629   4.064  16.971  0.00  0.00    +0.000 A 
ATOM      4  C   UNL     1       4.938   4.563  16.898  0.00  0.00    +0.000 A 
ATOM      5  C   UNL     1       5.407   5.433  17.888  0.00  0.00    +0.000 A 
ATOM      6  C   UNL     1       4.535   5.781  18.933  0.00  0.00    +0.000 A 
ATOM      7  C   UNL     1       3.228   5.276  19.020  0.00  0.00    +0.000 A 
ATOM      8  C   UNL     1       6.829   5.992  17.823  0.00  0.00    +0.000 C 
ATOM      9  C   UNL     1       7.525   5.798  19.185  0.00  0.00    +0.000 C 
ATOM     10  O   UNL     1       7.655   5.247  16.897  0.00  0.00    +0.000 OA
ATOM     11  C   UNL     1       7.042   5.011  15.634  0.00  0.00    +0.000 C 
ATOM     12  C   UNL     1       5.848   4.089  15.797  0.00  0.00    +0.000 C 
BRANCH   2  14
ATOM     13  C   UNL     1       1.303   2.615  18.543  0.00  0.00    +0.000 C 
ATOM     14  O   UNL     1       1.476   3.947  18.074  0.00  0.00    +0.000 OA
ENDBRANCH   2  14
BRANCH   7  15
ATOM     15  O   UNL     1       2.584   5.727  20.144  0.00  0.00    +0.000 OA
ATOM     16  C   UNL     1       2.085   7.053  20.162  0.00  0.00    +0.000 C 
ENDBRANCH   7  15
ENDBRANCH   1   8
BRANCH   1  17
ATOM     17  C   UNL     1       8.140   8.204  17.714  0.00  0.00    +0.000 C 
BRANCH  17  18
ATOM     18  C   UNL     1       8.039   9.698  18.059  0.00  0.00    +0.000 C 
BRANCH  18  19
ATOM     19  N   UNL     1       9.331  10.378  18.193  0.00  0.00    +0.000 NA
ATOM     20  C   UNL     1       9.291  11.824  17.867  0.00  0.00    +0.000 C 
ATOM     21  C   UNL     1       8.601  12.766  18.897  0.00  0.00    +0.000 C 
ATOM     22  N   UNL     1       9.164  12.548  20.237  0.00  0.00    +0.000 N 
ATOM     23  C   UNL     1       9.246  11.128  20.657  0.00  0.00    +0.000 C 
ATOM     24  C   UNL     1       9.883  10.240  19.558  0.00  0.00    +0.000 C 
BRANCH  22  25
ATOM     25  C   UNL     1       9.390  13.593  21.156  0.00  0.00    +0.000 A 
ATOM     26  C   UNL     1       8.533  13.652  22.267  0.00  0.00    +0.000 A 
ATOM     27  C   UNL     1       8.622  14.620  23.278  0.00  0.00    +0.000 A 
ATOM     28  C   UNL     1       9.598  15.594  23.201  0.00  0.00    +0.000 A 
ATOM     29  C   UNL     1      10.476  15.571  22.121  0.00  0.00    +0.000 A 
ATOM     30  C   UNL     1      10.428  14.565  21.131  0.00  0.00    +0.000 A 
BRANCH  30  31
ATOM     31  O   UNL     1      11.378  14.565  20.122  0.00  0.00    +0.000 OA
ATOM     32  C   UNL     1      11.811  15.868  19.704  0.00  0.00    +0.000 C 
ENDBRANCH  30  31
ENDBRANCH  22  25
ENDBRANCH  18  19
ENDBRANCH  17  18
ENDBRANCH   1  17
TORSDOF 8
ENDMDL
MODEL 2
REMARK VINA RESULT:      -7.7      1.406      1.845
REMARK  Name = 
REMARK  12 active torsions:
REMARK  status: ('A' for Active; 'I' for Inactive)
REMARK    1  A    between atoms: C_1  and  O_2
REMARK    2  A    between atoms: O_2  and  C_3
REMARK    3  A    between atoms: C_8  and  O_9
REMARK    4  A    between atoms: O_9  and  C_10
REMARK    5  A    between atoms: C_11  and  C_12
REMARK    6  A    between atoms: C_11  and  C_13
REMARK    7  A    between atoms: C_13  and  C_14
REMARK    8  A    between atoms: C_14  and  C_15
REMARK    9  A    between atoms: C_15  and  N_16
REMARK   10  A    between atoms: N_19  and  C_20
REMARK   11  A    between atoms: C_25  and  O_26
REMARK   12  A    between atoms: O_26  and  C_27
REMARK                            x       y       z     vdW  Elec       q    Type
REMARK                         _______ _______ _______ _____ _____    ______ ____
ROOT
ATOM      1  C   UNL     1       7.212   7.357  17.443  0.00  0.00    +0.000 C 
ENDROOT
BRANCH   1   8
ATOM      2  C   UNL     1       2.891   4.640  17.867  0.00  0.00    +0.000 A 
ATOM      3  C   UNL     1       3.726   4.272  16.799  0.00  0.00    +0.000 A 
ATOM      4  C   UNL     1       5.077   4.646  16.759  0.00  0.00    +0.000 A 
ATOM      5  C   UNL     1       5.618   5.414  17.796  0.00  0.00    +0.000 A 
ATOM      6  C   UNL     1       4.773   5.788  18.855  0.00  0.00    +0.000 A 
ATOM      7  C   UNL     1       3.423   5.407  18.909  0.00  0.00    +0.000 A 
ATOM      8  C   UNL     1       7.087   5.837  17.767  0.00  0.00    +0.000 C 
ATOM      9  C   UNL     1       7.748   5.505  19.120  0.00  0.00    +0.000 C 
ATOM     10  O   UNL     1       7.847   5.065  16.806  0.00  0.00    +0.000 OA
ATOM     11  C   UNL     1       7.226   4.957  15.529  0.00  0.00    +0.000 C 
ATOM     12  C   UNL     1       5.948   4.146  15.638  0.00  0.00    +0.000 C 
BRANCH   2  14
ATOM     13  C   UNL     1       1.232   3.084  18.540  0.00  0.00    +0.000 C 
ATOM     14  O   UNL     1       1.561   4.304  17.885  0.00  0.00    +0.000 OA
ENDBRANCH   2  14
BRANCH   7  15
ATOM     15  O   UNL     1       2.815   5.857  20.053  0.00  0.00    +0.000 OA
ATOM     16  C   UNL     1       2.128   7.097  20.021  0.00  0.00    +0.000 C 
ENDBRANCH   7  15
ENDBRANCH   1   8
BRANCH   1  17
ATOM     17  C   UNL     1       8.204   8.074  18.375  0.00  0.00    +0.000 C 
BRANCH  17  18
ATOM     18  C   UNL     1       8.398   9.575  18.109  0.00  0.00    +0.000 C 
BRANCH  18  19
ATOM     19  N   UNL     1       9.644  10.130  18.648  0.00  0.00    +0.000 NA
ATOM     20  C   UNL     1      10.254  11.182  17.800  0.00  0.00    +0.000 C 
ATOM     21  C   UNL     1       9.555  12.573  17.777  0.00  0.00    +0.000 C 
ATOM     22  N   UNL     1       9.354  13.059  19.150  0.00  0.00    +0.000 N 
ATOM     23  C   UNL     1       8.746  12.076  20.079  0.00  0.00    +0.000 C 
ATOM     24  C   UNL     1       9.451  10.698  19.999  0.00  0.00    +0.000 C 
BRANCH  22  25
ATOM     25  C   UNL     1       9.497  14.413  19.514  0.00  0.00    +0.000 A 
ATOM     26  C   UNL     1      10.468  14.707  20.487  0.00  0.00    +0.000 A 
ATOM     27  C   UNL     1      10.745  15.998  20.956  0.00  0.00    +0.000 A 
ATOM     28  C   UNL     1      10.030  17.070  20.457  0.00  0.00    +0.000 A 
ATOM     29  C   UNL     1       9.063  16.829  19.485  0.00  0.00    +0.000 A 
ATOM     30  C   UNL     1       8.820  15.538  18.966  0.00  0.00    +0.000 A 
BRANCH  30  31
ATOM     31  O   UNL     1       7.891  15.383  17.950  0.00  0.00    +0.000 OA
ATOM     32  C   UNL     1       6.530  15.270  18.392  0.00  0.00    +0.000 C 
ENDBRANCH  30  31
ENDBRANCH  22  25
ENDBRANCH  18  19
ENDBRANCH  17  18
ENDBRANCH   1  17
TORSDOF 8
ENDMDL
MODEL 3
REMARK VINA RESULT:      -7.7      0.995      1.701
REMARK  Name = 
REMARK  12 active torsions:
REMARK  status: ('A' for Active; 'I' for Inactive)
REMARK    1  A    between atoms: C_1  and  O_2
REMARK    2  A    between atoms: O_2  and  C_3
REMARK    3  A    between atoms: C_8  and  O_9
REMARK    4  A    between atoms: O_9  and  C_10
REMARK    5  A    between atoms: C_11  and  C_12
REMARK    6  A    between atoms: C_11  and  C_13
REMARK    7  A    between atoms: C_13  and  C_14
REMARK    8  A    between atoms: C_14  and  C_15
REMARK    9  A    between atoms: C_15  and  N_16
REMARK   10  A    between atoms: N_19  and  C_20
REMARK   11  A    between atoms: C_25  and  O_26
REMARK   12  A    between atoms: O_26  and  C_27
REMARK                            x       y       z     vdW  Elec       q    Type
REMARK                         _______ _______ _______ _____ _____    ______ ____
ROOT
ATOM      1  C   UNL     1       6.858   7.445  17.395  0.00  0.00    +0.000 C 
ENDROOT
BRANCH   1   8
ATOM      2  C   UNL     1       2.775   4.379  17.807  0.00  0.00    +0.000 A 
ATOM      3  C   UNL     1       3.691   4.023  16.803  0.00  0.00    +0.000 A 
ATOM      4  C   UNL     1       5.004   4.515  16.797  0.00  0.00    +0.000 A 
ATOM      5  C   UNL     1       5.424   5.390  17.805  0.00  0.00    +0.000 A 
ATOM      6  C   UNL     1       4.499   5.751  18.799  0.00  0.00    +0.000 A 
ATOM      7  C   UNL     1       3.186   5.253  18.818  0.00  0.00    +0.000 A 
ATOM      8  C   UNL     1       6.851   5.942  17.812  0.00  0.00    +0.000 C 
ATOM      9  C   UNL     1       7.471   5.755  19.211  0.00  0.00    +0.000 C 
ATOM     10  O   UNL     1       7.722   5.185  16.938  0.00  0.00    +0.000 OA
ATOM     11  C   UNL     1       7.176   4.943  15.645  0.00  0.00    +0.000 C 
ATOM     12  C   UNL     1       5.970   4.028  15.751  0.00  0.00    +0.000 C 
BRANCH   2  14
ATOM     13  C   UNL     1       1.229   2.721  18.502  0.00  0.00    +0.000 C 
ATOM     14  O   UNL     1       1.481   3.926  17.789  0.00  0.00    +0.000 OA
ENDBRANCH   2  14
BRANCH   7  15
ATOM     15  O   UNL     1       2.485   5.716  19.903  0.00  0.00    +0.000 OA
ATOM     16  C   UNL     1       2.130   7.088  19.955  0.00  0.00    +0.000 C 
ENDBRANCH   7  15
ENDBRANCH   1   8
BRANCH   1  17
ATOM     17  C   UNL     1       8.147   8.165  17.825  0.00  0.00    +0.000 C 
BRANCH  17  18
ATOM     18  C   UNL     1       8.030   9.686  18.006  0.00  0.00    +0.000 C 
BRANCH  18  19
ATOM     19  N   UNL     1       9.313  10.380  18.157  0.00  0.00    +0.000 NA
ATOM     20  C   UNL     1       9.267  11.820  17.807  0.00  0.00    +0.000 C 
ATOM     21  C   UNL     1       8.548  12.772  18.807  0.00  0.00    +0.000 C 
ATOM     22  N   UNL     1       9.085  12.579  20.163  0.00  0.00    +0.000 N 
ATOM     23  C   UNL     1       9.170  11.168  20.606  0.00  0.00    +0.000 C 
ATOM     24  C   UNL     1       9.837  10.268  19.534  0.00  0.00    +0.000 C 
BRANCH  22  25
ATOM     25  C   UNL     1       9.281  13.641  21.069  0.00  0.00    +0.000 A 
ATOM     26  C   UNL     1      10.412  14.448  20.860  0.00  0.00    +0.000 A 
ATOM     27  C   UNL     1      10.752  15.547  21.660  0.00  0.00    +0.000 A 
ATOM     28  C   UNL     1       9.949  15.880  22.735  0.00  0.00    +0.000 A 
ATOM     29  C   UNL     1       8.812  15.112  22.977  0.00  0.00    +0.000 A 
ATOM     30  C   UNL     1       8.434  14.040  22.139  0.00  0.00    +0.000 A 
BRANCH  30  31
ATOM     31  O   UNL     1       7.253  13.365  22.401  0.00  0.00    +0.000 OA
ATOM     32  C   UNL     1       6.198  14.181  22.934  0.00  0.00    +0.000 C 
ENDBRANCH  30  31
ENDBRANCH  22  25
ENDBRANCH  18  19
ENDBRANCH  17  18
ENDBRANCH   1  17
TORSDOF 8
ENDMDL
MODEL 4
REMARK VINA RESULT:      -7.3      5.125      8.005
REMARK  Name = 
REMARK  12 active torsions:
REMARK  status: ('A' for Active; 'I' for Inactive)
REMARK    1  A    between atoms: C_1  and  O_2
REMARK    2  A    between atoms: O_2  and  C_3
REMARK    3  A    between atoms: C_8  and  O_9
REMARK    4  A    between atoms: O_9  and  C_10
REMARK    5  A    between atoms: C_11  and  C_12
REMARK    6  A    between atoms: C_11  and  C_13
REMARK    7  A    between atoms: C_13  and  C_14
REMARK    8  A    between atoms: C_14  and  C_15
REMARK    9  A    between atoms: C_15  and  N_16
REMARK   10  A    between atoms: N_19  and  C_20
REMARK   11  A    between atoms: C_25  and  O_26
REMARK   12  A    between atoms: O_26  and  C_27
REMARK                            x       y       z     vdW  Elec       q    Type
REMARK                         _______ _______ _______ _____ _____    ______ ____
ROOT
ATOM      1  C   UNL     1       2.977   6.379  19.821  0.00  0.00    +0.000 C 
ENDROOT
BRANCH   1   8
ATOM      2  C   UNL     1       6.228   4.898  16.151  0.00  0.00    +0.000 A 
ATOM      3  C   UNL     1       5.104   4.073  16.322  0.00  0.00    +0.000 A 
ATOM      4  C   UNL     1       3.961   4.519  17.002  0.00  0.00    +0.000 A 
ATOM      5  C   UNL     1       3.929   5.811  17.538  0.00  0.00    +0.000 A 
ATOM      6  C   UNL     1       5.063   6.625  17.374  0.00  0.00    +0.000 A 
ATOM      7  C   UNL     1       6.205   6.191  16.683  0.00  0.00    +0.000 A 
ATOM      8  C   UNL     1       2.695   6.312  18.288  0.00  0.00    +0.000 C 
ATOM      9  C   UNL     1       2.284   7.694  17.743  0.00  0.00    +0.000 C 
ATOM     10  O   UNL     1       1.540   5.477  18.037  0.00  0.00    +0.000 OA
ATOM     11  C   UNL     1       1.795   4.081  18.162  0.00  0.00    +0.000 C 
ATOM     12  C   UNL     1       2.751   3.627  17.075  0.00  0.00    +0.000 C 
BRANCH   2  14
ATOM     13  C   UNL     1       7.434   4.696  14.119  0.00  0.00    +0.000 C 
ATOM     14  O   UNL     1       7.358   4.447  15.518  0.00  0.00    +0.000 OA
ENDBRANCH   2  14
BRANCH   7  15
ATOM     15  O   UNL     1       7.162   7.172  16.620  0.00  0.00    +0.000 OA
ATOM     16  C   UNL     1       7.137   8.216  17.579  0.00  0.00    +0.000 C 
ENDBRANCH   7  15
ENDBRANCH   1   8
BRANCH   1  17
ATOM     17  C   UNL     1       1.719   6.093  20.660  0.00  0.00    +0.000 C 
BRANCH  17  18
ATOM     18  C   UNL     1       0.787   7.292  20.889  0.00  0.00    +0.000 C 
BRANCH  18  19
ATOM     19  N   UNL     1       1.480   8.571  21.077  0.00  0.00    +0.000 NA
ATOM     20  C   UNL     1       0.962   9.671  20.228  0.00  0.00    +0.000 C 
ATOM     21  C   UNL     1      -0.420  10.276  20.613  0.00  0.00    +0.000 C 
ATOM     22  N   UNL     1      -0.425  10.663  22.031  0.00  0.00    +0.000 N 
ATOM     23  C   UNL     1       0.076   9.626  22.964  0.00  0.00    +0.000 C 
ATOM     24  C   UNL     1       1.421   9.023  22.484  0.00  0.00    +0.000 C 
BRANCH  22  25
ATOM     25  C   UNL     1      -1.069  11.822  22.509  0.00  0.00    +0.000 A 
ATOM     26  C   UNL     1      -2.311  11.639  23.141  0.00  0.00    +0.000 A 
ATOM     27  C   UNL     1      -3.080  12.680  23.679  0.00  0.00    +0.000 A 
ATOM     28  C   UNL     1      -2.619  13.980  23.592  0.00  0.00    +0.000 A 
ATOM     29  C   UNL     1      -1.389  14.210  22.981  0.00  0.00    +0.000 A 
ATOM     30  C   UNL     1      -0.584  13.159  22.489  0.00  0.00    +0.000 A 
BRANCH  30  31
ATOM     31  O   UNL     1       0.660  13.456  21.957  0.00  0.00    +0.000 OA
ATOM     32  C   UNL     1       0.681  14.583  21.068  0.00  0.00    +0.000 C 
ENDBRANCH  30  31
ENDBRANCH  22  25
ENDBRANCH  18  19
ENDBRANCH  17  18
ENDBRANCH   1  17
TORSDOF 8
ENDMDL
MODEL 5
REMARK VINA RESULT:      -7.3      1.206      1.918
REMARK  Name = 
REMARK  12 active torsions:
REMARK  status: ('A' for Active; 'I' for Inactive)
REMARK    1  A    between atoms: C_1  and  O_2
REMARK    2  A    between atoms: O_2  and  C_3
REMARK    3  A    between atoms: C_8  and  O_9
REMARK    4  A    between atoms: O_9  and  C_10
REMARK    5  A    between atoms: C_11  and  C_12
REMARK    6  A    between atoms: C_11  and  C_13
REMARK    7  A    between atoms: C_13  and  C_14
REMARK    8  A    between atoms: C_14  and  C_15
REMARK    9  A    between atoms: C_15  and  N_16
REMARK   10  A    between atoms: N_19  and  C_20
REMARK   11  A    between atoms: C_25  and  O_26
REMARK   12  A    between atoms: O_26  and  C_27
REMARK                            x       y       z     vdW  Elec       q    Type
REMARK                         _______ _______ _______ _____ _____    ______ ____
ROOT
ATOM      1  C   UNL     1       6.993   7.589  17.591  0.00  0.00    +0.000 C 
ENDROOT
BRANCH   1   8
ATOM      2  C   UNL     1       2.849   4.603  17.981  0.00  0.00    +0.000 A 
ATOM      3  C   UNL     1       3.694   4.314  16.897  0.00  0.00    +0.000 A 
ATOM      4  C   UNL     1       5.020   4.771  16.856  0.00  0.00    +0.000 A 
ATOM      5  C   UNL     1       5.523   5.543  17.908  0.00  0.00    +0.000 A 
ATOM      6  C   UNL     1       4.668   5.839  18.982  0.00  0.00    +0.000 A 
ATOM      7  C   UNL     1       3.344   5.374  19.038  0.00  0.00    +0.000 A 
ATOM      8  C   UNL     1       6.964   6.056  17.877  0.00  0.00    +0.000 C 
ATOM      9  C   UNL     1       7.657   5.732  19.215  0.00  0.00    +0.000 C 
ATOM     10  O   UNL     1       7.760   5.357  16.890  0.00  0.00    +0.000 OA
ATOM     11  C   UNL     1       7.134   5.243  15.616  0.00  0.00    +0.000 C 
ATOM     12  C   UNL     1       5.908   4.353  15.715  0.00  0.00    +0.000 C 
BRANCH   2  14
ATOM     13  C   UNL     1       1.309   2.883  18.525  0.00  0.00    +0.000 C 
ATOM     14  O   UNL     1       1.543   4.186  18.002  0.00  0.00    +0.000 OA
ENDBRANCH   2  14
BRANCH   7  15
ATOM     15  O   UNL     1       2.721   5.758  20.198  0.00  0.00    +0.000 OA
ATOM     16  C   UNL     1       1.970   6.961  20.207  0.00  0.00    +0.000 C 
ENDBRANCH   7  15
ENDBRANCH   1   8
BRANCH   1  17
ATOM     17  C   UNL     1       8.343   8.227  17.958  0.00  0.00    +0.000 C 
BRANCH  17  18
ATOM     18  C   UNL     1       8.334   9.755  18.116  0.00  0.00    +0.000 C 
BRANCH  18  19
ATOM     19  N   UNL     1       9.539  10.307  18.745  0.00  0.00    +0.000 NA
ATOM     20  C   UNL     1      10.342  11.178  17.854  0.00  0.00    +0.000 C 
ATOM     21  C   UNL     1       9.769  12.590  17.535  0.00  0.00    +0.000 C 
ATOM     22  N   UNL     1       9.428  13.290  18.782  0.00  0.00    +0.000 N 
ATOM     23  C   UNL     1       8.622  12.499  19.742  0.00  0.00    +0.000 C 
ATOM     24  C   UNL     1       9.215  11.084  19.961  0.00  0.00    +0.000 C 
BRANCH  22  25
ATOM     25  C   UNL     1       9.632  14.672  18.968  0.00  0.00    +0.000 A 
ATOM     26  C   UNL     1       9.149  15.523  17.960  0.00  0.00    +0.000 A 
ATOM     27  C   UNL     1       9.261  16.920  17.990  0.00  0.00    +0.000 A 
ATOM     28  C   UNL     1       9.887  17.529  19.060  0.00  0.00    +0.000 A 
ATOM     29  C   UNL     1      10.376  16.726  20.088  0.00  0.00    +0.000 A 
ATOM     30  C   UNL     1      10.215  15.323  20.091  0.00  0.00    +0.000 A 
BRANCH  30  31
ATOM     31  O   UNL     1      10.665  14.595  21.180  0.00  0.00    +0.000 OA
ATOM     32  C   UNL     1       9.751  14.540  22.286  0.00  0.00    +0.000 C 
ENDBRANCH  30  31
ENDBRANCH  22  25
ENDBRANCH  18  19
ENDBRANCH  17  18
ENDBRANCH   1  17
TORSDOF 8
ENDMDL
MODEL 6
REMARK VINA RESULT:      -7.2      5.264      8.180
REMARK  Name = 
REMARK  12 active torsions:
REMARK  status: ('A' for Active; 'I' for Inactive)
REMARK    1  A    between atoms: C_1  and  O_2
REMARK    2  A    between atoms: O_2  and  C_3
REMARK    3  A    between atoms: C_8  and  O_9
REMARK    4  A    between atoms: O_9  and  C_10
REMARK    5  A    between atoms: C_11  and  C_12
REMARK    6  A    between atoms: C_11  and  C_13
REMARK    7  A    between atoms: C_13  and  C_14
REMARK    8  A    between atoms: C_14  and  C_15
REMARK    9  A    between atoms: C_15  and  N_16
REMARK   10  A    between atoms: N_19  and  C_20
REMARK   11  A    between atoms: C_25  and  O_26
REMARK   12  A    between atoms: O_26  and  C_27
REMARK                            x       y       z     vdW  Elec       q    Type
REMARK                         _______ _______ _______ _____ _____    ______ ____
ROOT
ATOM      1  C   UNL     1       2.915   6.446  19.971  0.00  0.00    +0.000 C 
ENDROOT
BRANCH   1   8
ATOM      2  C   UNL     1       6.154   5.100  16.238  0.00  0.00    +0.000 A 
ATOM      3  C   UNL     1       5.057   4.241  16.416  0.00  0.00    +0.000 A 
ATOM      4  C   UNL     1       3.912   4.646  17.118  0.00  0.00    +0.000 A 
ATOM      5  C   UNL     1       3.850   5.930  17.668  0.00  0.00    +0.000 A 
ATOM      6  C   UNL     1       4.957   6.780  17.496  0.00  0.00    +0.000 A 
ATOM      7  C   UNL     1       6.101   6.387  16.784  0.00  0.00    +0.000 A 
ATOM      8  C   UNL     1       2.613   6.387  18.442  0.00  0.00    +0.000 C 
ATOM      9  C   UNL     1       2.153   7.762  17.918  0.00  0.00    +0.000 C 
ATOM     10  O   UNL     1       1.479   5.521  18.198  0.00  0.00    +0.000 OA
ATOM     11  C   UNL     1       1.778   4.132  18.305  0.00  0.00    +0.000 C 
ATOM     12  C   UNL     1       2.730   3.717  17.199  0.00  0.00    +0.000 C 
BRANCH   2  14
ATOM     13  C   UNL     1       7.302   4.885  14.174  0.00  0.00    +0.000 C 
ATOM     14  O   UNL     1       7.287   4.690  15.583  0.00  0.00    +0.000 OA
ENDBRANCH   2  14
BRANCH   7  15
ATOM     15  O   UNL     1       7.028   7.396  16.718  0.00  0.00    +0.000 OA
ATOM     16  C   UNL     1       7.832   7.663  17.854  0.00  0.00    +0.000 C 
ENDBRANCH   7  15
ENDBRANCH   1   8
BRANCH   1  17
ATOM     17  C   UNL     1       1.696   6.902  20.791  0.00  0.00    +0.000 C 
BRANCH  17  18
ATOM     18  C   UNL     1       1.344   8.393  20.685  0.00  0.00    +0.000 C 
BRANCH  18  19
ATOM     19  N   UNL     1      -0.094   8.679  20.695  0.00  0.00    +0.000 NA
ATOM     20  C   UNL     1      -0.684   8.771  22.052  0.00  0.00    +0.000 C 
ATOM     21  C   UNL     1      -0.348  10.041  22.888  0.00  0.00    +0.000 C 
ATOM     22  N   UNL     1      -0.641  11.252  22.108  0.00  0.00    +0.000 N 
ATOM     23  C   UNL     1      -0.091  11.256  20.731  0.00  0.00    +0.000 C 
ATOM     24  C   UNL     1      -0.408   9.936  19.982  0.00  0.00    +0.000 C 
BRANCH  22  25
ATOM     25  C   UNL     1      -1.187  12.419  22.677  0.00  0.00    +0.000 A 
ATOM     26  C   UNL     1      -2.470  12.307  23.239  0.00  0.00    +0.000 A 
ATOM     27  C   UNL     1      -3.155  13.366  23.851  0.00  0.00    +0.000 A 
ATOM     28  C   UNL     1      -2.562  14.612  23.917  0.00  0.00    +0.000 A 
ATOM     29  C   UNL     1      -1.287  14.770  23.380  0.00  0.00    +0.000 A 
ATOM     30  C   UNL     1      -0.569  13.693  22.814  0.00  0.00    +0.000 A 
BRANCH  30  31
ATOM     31  O   UNL     1       0.723  13.908  22.362  0.00  0.00    +0.000 OA
ATOM     32  C   UNL     1       0.870  15.018  21.463  0.00  0.00    +0.000 C 
ENDBRANCH  30  31
ENDBRANCH  22  25
ENDBRANCH  18  19
ENDBRANCH  17  18
ENDBRANCH   1  17
TORSDOF 8
ENDMDL
MODEL 7
REMARK VINA RESULT:      -7.2      2.224     10.240
REMARK  Name = 
REMARK  12 active torsions:
REMARK  status: ('A' for Active; 'I' for Inactive)
REMARK    1  A    between atoms: C_1  and  O_2
REMARK    2  A    between atoms: O_2  and  C_3
REMARK    3  A    between atoms: C_8  and  O_9
REMARK    4  A    between atoms: O_9  and  C_10
REMARK    5  A    between atoms: C_11  and  C_12
REMARK    6  A    between atoms: C_11  and  C_13
REMARK    7  A    between atoms: C_13  and  C_14
REMARK    8  A    between atoms: C_14  and  C_15
REMARK    9  A    between atoms: C_15  and  N_16
REMARK   10  A    between atoms: N_19  and  C_20
REMARK   11  A    between atoms: C_25  and  O_26
REMARK   12  A    between atoms: O_26  and  C_27
REMARK                            x       y       z     vdW  Elec       q    Type
REMARK                         _______ _______ _______ _____ _____    ______ ____
ROOT
ATOM      1  C   UNL     1       9.303  10.100  18.931  0.00  0.00    +0.000 C 
ENDROOT
BRANCH   1   8
ATOM      2  C   UNL     1       9.604  14.382  21.725  0.00  0.00    +0.000 A 
ATOM      3  C   UNL     1      10.721  14.117  20.915  0.00  0.00    +0.000 A 
ATOM      4  C   UNL     1      10.653  13.218  19.840  0.00  0.00    +0.000 A 
ATOM      5  C   UNL     1       9.454  12.554  19.562  0.00  0.00    +0.000 A 
ATOM      6  C   UNL     1       8.345  12.815  20.385  0.00  0.00    +0.000 A 
ATOM      7  C   UNL     1       8.401  13.723  21.455  0.00  0.00    +0.000 A 
ATOM      8  C   UNL     1       9.363  11.565  18.399  0.00  0.00    +0.000 C 
ATOM      9  C   UNL     1       8.126  11.891  17.539  0.00  0.00    +0.000 C 
ATOM     10  O   UNL     1      10.476  11.711  17.485  0.00  0.00    +0.000 OA
ATOM     11  C   UNL     1      11.747  11.774  18.124  0.00  0.00    +0.000 C 
ATOM     12  C   UNL     1      11.853  13.043  18.949  0.00  0.00    +0.000 C 
BRANCH   2  14
ATOM     13  C   UNL     1      10.753  16.171  22.776  0.00  0.00    +0.000 C 
ATOM     14  O   UNL     1       9.683  15.233  22.797  0.00  0.00    +0.000 OA
ENDBRANCH   2  14
BRANCH   7  15
ATOM     15  O   UNL     1       7.188  13.838  22.085  0.00  0.00    +0.000 OA
ATOM     16  C   UNL     1       6.315  14.888  21.704  0.00  0.00    +0.000 C 
ENDBRANCH   7  15
ENDBRANCH   1   8
BRANCH   1  17
ATOM     17  C   UNL     1       8.373   9.210  18.087  0.00  0.00    +0.000 C 
BRANCH  17  18
ATOM     18  C   UNL     1       8.169   7.780  18.610  0.00  0.00    +0.000 C 
BRANCH  18  19
ATOM     19  N   UNL     1       7.789   6.807  17.582  0.00  0.00    +0.000 NA
ATOM     20  C   UNL     1       7.591   5.430  18.095  0.00  0.00    +0.000 C 
ATOM     21  C   UNL     1       6.307   5.161  18.933  0.00  0.00    +0.000 C 
ATOM     22  N   UNL     1       5.119   5.621  18.198  0.00  0.00    +0.000 N 
ATOM     23  C   UNL     1       5.219   6.992  17.645  0.00  0.00    +0.000 C 
ATOM     24  C   UNL     1       6.551   7.207  16.880  0.00  0.00    +0.000 C 
BRANCH  22  25
ATOM     25  C   UNL     1       3.891   4.930  18.213  0.00  0.00    +0.000 A 
ATOM     26  C   UNL     1       3.760   3.856  17.316  0.00  0.00    +0.000 A 
ATOM     27  C   UNL     1       2.612   3.059  17.206  0.00  0.00    +0.000 A 
ATOM     28  C   UNL     1       1.521   3.325  18.011  0.00  0.00    +0.000 A 
ATOM     29  C   UNL     1       1.607   4.375  18.921  0.00  0.00    +0.000 A 
ATOM     30  C   UNL     1       2.781   5.143  19.077  0.00  0.00    +0.000 A 
BRANCH  30  31
ATOM     31  O   UNL     1       2.819   6.127  20.052  0.00  0.00    +0.000 OA
ATOM     32  C   UNL     1       2.171   7.356  19.692  0.00  0.00    +0.000 C 
ENDBRANCH  30  31
ENDBRANCH  22  25
ENDBRANCH  18  19
ENDBRANCH  17  18
ENDBRANCH   1  17
TORSDOF 8
ENDMDL
MODEL 8
REMARK VINA RESULT:      -7.2      5.921      7.017
REMARK  Name = 
REMARK  12 active torsions:
REMARK  status: ('A' for Active; 'I' for Inactive)
REMARK    1  A    between atoms: C_1  and  O_2
REMARK    2  A    between atoms: O_2  and  C_3
REMARK    3  A    between atoms: C_8  and  O_9
REMARK    4  A    between atoms: O_9  and  C_10
REMARK    5  A    between atoms: C_11  and  C_12
REMARK    6  A    between atoms: C_11  and  C_13
REMARK    7  A    between atoms: C_13  and  C_14
REMARK    8  A    between atoms: C_14  and  C_15
REMARK    9  A    between atoms: C_15  and  N_16
REMARK   10  A    between atoms: N_19  and  C_20
REMARK   11  A    between atoms: C_25  and  O_26
REMARK   12  A    between atoms: O_26  and  C_27
REMARK                            x       y       z     vdW  Elec       q    Type
REMARK                         _______ _______ _______ _____ _____    ______ ____
ROOT
ATOM      1  C   UNL     1       5.974   7.004  17.425  0.00  0.00    +0.000 C 
ENDROOT
BRANCH   1   8
ATOM      2  C   UNL     1       3.382   2.722  18.513  0.00  0.00    +0.000 A 
ATOM      3  C   UNL     1       3.948   2.769  17.228  0.00  0.00    +0.000 A 
ATOM      4  C   UNL     1       4.970   3.673  16.906  0.00  0.00    +0.000 A 
ATOM      5  C   UNL     1       5.443   4.563  17.876  0.00  0.00    +0.000 A 
ATOM      6  C   UNL     1       4.864   4.519  19.156  0.00  0.00    +0.000 A 
ATOM      7  C   UNL     1       3.849   3.608  19.489  0.00  0.00    +0.000 A 
ATOM      8  C   UNL     1       6.553   5.561  17.542  0.00  0.00    +0.000 C 
ATOM      9  C   UNL     1       7.651   5.494  18.622  0.00  0.00    +0.000 C 
ATOM     10  O   UNL     1       7.241   5.206  16.319  0.00  0.00    +0.000 OA
ATOM     11  C   UNL     1       6.371   4.889  15.237  0.00  0.00    +0.000 C 
ATOM     12  C   UNL     1       5.603   3.616  15.542  0.00  0.00    +0.000 C 
BRANCH   2  14
ATOM     13  C   UNL     1       1.041   2.347  18.568  0.00  0.00    +0.000 C 
ATOM     14  O   UNL     1       2.357   1.863  18.814  0.00  0.00    +0.000 OA
ENDBRANCH   2  14
BRANCH   7  15
ATOM     15  O   UNL     1       3.471   3.729  20.803  0.00  0.00    +0.000 OA
ATOM     16  C   UNL     1       2.268   4.412  21.110  0.00  0.00    +0.000 C 
ENDBRANCH   7  15
ENDBRANCH   1   8
BRANCH   1  17
ATOM     17  C   UNL     1       4.473   7.007  17.087  0.00  0.00    +0.000 C 
BRANCH  17  18
ATOM     18  C   UNL     1       3.648   8.128  17.736  0.00  0.00    +0.000 C 
BRANCH  18  19
ATOM     19  N   UNL     1       2.214   7.839  17.847  0.00  0.00    +0.000 NA
ATOM     20  C   UNL     1       1.808   7.283  19.160  0.00  0.00    +0.000 C 
ATOM     21  C   UNL     1       1.783   8.263  20.370  0.00  0.00    +0.000 C 
ATOM     22  N   UNL     1       0.988   9.455  20.038  0.00  0.00    +0.000 N 
ATOM     23  C   UNL     1       1.321  10.086  18.739  0.00  0.00    +0.000 C 
ATOM     24  C   UNL     1       1.393   9.043  17.595  0.00  0.00    +0.000 C 
BRANCH  22  25
ATOM     25  C   UNL     1       0.145  10.099  20.966  0.00  0.00    +0.000 A 
ATOM     26  C   UNL     1       0.107   9.561  22.263  0.00  0.00    +0.000 A 
ATOM     27  C   UNL     1      -0.670  10.082  23.308  0.00  0.00    +0.000 A 
ATOM     28  C   UNL     1      -1.464  11.189  23.077  0.00  0.00    +0.000 A 
ATOM     29  C   UNL     1      -1.453  11.761  21.807  0.00  0.00    +0.000 A 
ATOM     30  C   UNL     1      -0.629  11.276  20.768  0.00  0.00    +0.000 A 
BRANCH  30  31
ATOM     31  O   UNL     1      -0.618  11.939  19.552  0.00  0.00    +0.000 OA
ATOM     32  C   UNL     1      -1.839  11.843  18.803  0.00  0.00    +0.000 C 
ENDBRANCH  30  31
ENDBRANCH  22  25
ENDBRANCH  18  19
ENDBRANCH  17  18
ENDBRANCH   1  17
TORSDOF 8
ENDMDL
MODEL 9
REMARK VINA RESULT:      -7.2      2.373     10.638
REMARK  Name = 
REMARK  12 active torsions:
REMARK  status: ('A' for Active; 'I' for Inactive)
REMARK    1  A    between atoms: C_1  and  O_2
REMARK    2  A    between atoms: O_2  and  C_3
REMARK    3  A    between atoms: C_8  and  O_9
REMARK    4  A    between atoms: O_9  and  C_10
REMARK    5  A    between atoms: C_11  and  C_12
REMARK    6  A    between atoms: C_11  and  C_13
REMARK    7  A    between atoms: C_13  and  C_14
REMARK    8  A    between atoms: C_14  and  C_15
REMARK    9  A    between atoms: C_15  and  N_16
REMARK   10  A    between atoms: N_19  and  C_20
REMARK   11  A    between atoms: C_25  and  O_26
REMARK   12  A    between atoms: O_26  and  C_27
REMARK                            x       y       z     vdW  Elec       q    Type
REMARK                         _______ _______ _______ _____ _____    ______ ____
ROOT
ATOM      1  C   UNL     1       8.320  10.733  18.165  0.00  0.00    +0.000 C 
ENDROOT
BRANCH   1   8
ATOM      2  C   UNL     1       8.990  15.562  19.737  0.00  0.00    +0.000 A 
ATOM      3  C   UNL     1       9.021  14.593  20.753  0.00  0.00    +0.000 A 
ATOM      4  C   UNL     1       9.222  13.234  20.469  0.00  0.00    +0.000 A 
ATOM      5  C   UNL     1       9.388  12.818  19.143  0.00  0.00    +0.000 A 
ATOM      6  C   UNL     1       9.344  13.792  18.131  0.00  0.00    +0.000 A 
ATOM      7  C   UNL     1       9.156  15.155  18.409  0.00  0.00    +0.000 A 
ATOM      8  C   UNL     1       9.603  11.340  18.813  0.00  0.00    +0.000 C 
ATOM      9  C   UNL     1      10.817  11.191  17.875  0.00  0.00    +0.000 C 
ATOM     10  O   UNL     1       9.969  10.576  19.987  0.00  0.00    +0.000 OA
ATOM     11  C   UNL     1       9.144  10.827  21.121  0.00  0.00    +0.000 C 
ATOM     12  C   UNL     1       9.339  12.252  21.603  0.00  0.00    +0.000 C 
BRANCH   2  14
ATOM     13  C   UNL     1       9.741  17.542  20.804  0.00  0.00    +0.000 C 
ATOM     14  O   UNL     1       8.756  16.884  20.015  0.00  0.00    +0.000 OA
ENDBRANCH   2  14
BRANCH   7  15
ATOM     15  O   UNL     1       9.187  15.914  17.267  0.00  0.00    +0.000 OA
ATOM     16  C   UNL     1      10.404  16.537  16.892  0.00  0.00    +0.000 C 
ENDBRANCH   7  15
ENDBRANCH   1   8
BRANCH   1  17
ATOM     17  C   UNL     1       8.420   9.208  17.987  0.00  0.00    +0.000 C 
BRANCH  17  18
ATOM     18  C   UNL     1       7.112   8.498  17.607  0.00  0.00    +0.000 C 
BRANCH  18  19
ATOM     19  N   UNL     1       7.288   7.126  17.119  0.00  0.00    +0.000 NA
ATOM     20  C   UNL     1       7.461   6.118  18.193  0.00  0.00    +0.000 C 
ATOM     21  C   UNL     1       6.200   5.742  19.025  0.00  0.00    +0.000 C 
ATOM     22  N   UNL     1       5.097   5.367  18.129  0.00  0.00    +0.000 N 
ATOM     23  C   UNL     1       4.844   6.315  17.019  0.00  0.00    +0.000 C 
ATOM     24  C   UNL     1       6.151   6.695  16.278  0.00  0.00    +0.000 C 
BRANCH  22  25
ATOM     25  C   UNL     1       4.191   4.327  18.420  0.00  0.00    +0.000 A 
ATOM     26  C   UNL     1       4.290   3.165  17.636  0.00  0.00    +0.000 A 
ATOM     27  C   UNL     1       3.474   2.037  17.797  0.00  0.00    +0.000 A 
ATOM     28  C   UNL     1       2.497   2.038  18.773  0.00  0.00    +0.000 A 
ATOM     29  C   UNL     1       2.366   3.165  19.581  0.00  0.00    +0.000 A 
ATOM     30  C   UNL     1       3.223   4.281  19.462  0.00  0.00    +0.000 A 
BRANCH  30  31
ATOM     31  O   UNL     1       3.080   5.338  20.346  0.00  0.00    +0.000 OA
ATOM     32  C   UNL     1       2.239   6.404  19.878  0.00  0.00    +0.000 C 
ENDBRANCH  30  31
ENDBRANCH  22  25
ENDBRANCH  18  19
ENDBRANCH  17  18
ENDBRANCH   1  17
TORSDOF 8
ENDMDL
