MODEL 1
REMARK VINA RESULT:      -7.5      0.000      0.000
REMARK  Name = 
REMARK  10 active torsions:
REMARK  status: ('A' for Active; 'I' for Inactive)
REMARK    1  A    between atoms: C_1  and  C_2
REMARK    2  A    between atoms: C_2  and  C_3
REMARK    3  A    between atoms: C_3  and  C_4
REMARK    4  A    between atoms: C_3  and  C_5
REMARK    5  A    between atoms: C_5  and  C_6
REMARK    6  A    between atoms: N_7  and  N_8
REMARK    7  A    between atoms: C_9  and  C_11
REMARK    8  A    between atoms: C_14  and  C_15
REMARK    9  A    between atoms: C_15  and  S_16
REMARK   10  A    between atoms: S_16  and  C_17
REMARK                            x       y       z     vdW  Elec       q    Type
REMARK                         _______ _______ _______ _____ _____    ______ ____
ROOT
ATOM      1  C   UNL     1       2.056   8.271  18.980  0.00  0.00    +0.000 A 
ATOM      2  C   UNL     1       2.123   7.311  20.000  0.00  0.00    +0.000 A 
ATOM      3  C   UNL     1       2.986   6.214  19.881  0.00  0.00    +0.000 A 
ATOM      4  C   UNL     1       3.777   6.029  18.736  0.00  0.00    +0.000 A 
ATOM      5  C   UNL     1       3.700   6.993  17.718  0.00  0.00    +0.000 A 
ATOM      6  C   UNL     1       2.845   8.100  17.838  0.00  0.00    +0.000 A 
ENDROOT
BRANCH   1   8
ATOM      7  N   UNL     1       0.656   9.733  20.343  0.00  0.00    +0.000 N 
ATOM      8  C   UNL     1       1.140   9.457  19.069  0.00  0.00    +0.000 C 
ATOM      9  O   UNL     1       0.900  10.102  18.058  0.00  0.00    +0.000 OA
ATOM     10  H   UNL     1       1.022   9.233  21.138  0.00  0.00    +0.000 HD
BRANCH   7  13
ATOM     11  C   UNL     1      -0.771  10.906  21.717  0.00  0.00    +0.000 C 
ATOM     12  C   UNL     1      -0.540   9.962  22.877  0.00  0.00    +0.000 C 
ATOM     13  N   UNL     1      -0.204  10.776  20.550  0.00  0.00    +0.000 NA
BRANCH  11  14
ATOM     14  C   UNL     1      -1.711  12.102  21.919  0.00  0.00    +0.000 C 
ATOM     15  C   UNL     1      -2.489  11.931  23.225  0.00  0.00    +0.000 C 
BRANCH  14  17
ATOM     16  C   UNL     1      -3.391  13.669  20.792  0.00  0.00    +0.000 C 
ATOM     17  C   UNL     1      -2.679  12.325  20.747  0.00  0.00    +0.000 C 
ENDBRANCH  14  17
ENDBRANCH  11  14
ENDBRANCH   7  13
ENDBRANCH   1   8
BRANCH   4  18
ATOM     18  C   UNL     1       4.689   4.821  18.608  0.00  0.00    +0.000 C 
BRANCH  18  19
ATOM     19  S   UNL     1       6.393   5.298  18.178  0.00  0.00    +0.000 S 
BRANCH  19  20
ATOM     20  C   UNL     1       6.493   4.840  16.491  0.00  0.00    +0.000 A 
ATOM     21  N   UNL     1       7.392   5.332  15.670  0.00  0.00    +0.000 NA
ATOM     22  C   UNL     1       7.143   4.874  14.383  0.00  0.00    +0.000 A 
ATOM     23  C   UNL     1       7.856   5.234  13.219  0.00  0.00    +0.000 A 
ATOM     24  C   UNL     1       7.448   4.749  11.971  0.00  0.00    +0.000 A 
ATOM     25  C   UNL     1       6.356   3.893  11.867  0.00  0.00    +0.000 A 
ATOM     26  C   UNL     1       5.657   3.488  13.007  0.00  0.00    +0.000 A 
ATOM     27  C   UNL     1       6.061   3.999  14.254  0.00  0.00    +0.000 A 
ATOM     28  S   UNL     1       5.382   3.725  15.811  0.00  0.00    +0.000 S 
ENDBRANCH  19  20
ENDBRANCH  18  19
ENDBRANCH   4  18
TORSDOF 7
ENDMDL
MODEL 2
REMARK VINA RESULT:      -7.4      4.086     11.079
REMARK  Name = 
REMARK  10 active torsions:
REMARK  status: ('A' for Active; 'I' for Inactive)
REMARK    1  A    between atoms: C_1  and  C_2
REMARK    2  A    between atoms: C_2  and  C_3
REMARK    3  A    between atoms: C_3  and  C_4
REMARK    4  A    between atoms: C_3  and  C_5
REMARK    5  A    between atoms: C_5  and  C_6
REMARK    6  A    between atoms: N_7  and  N_8
REMARK    7  A    between atoms: C_9  and  C_11
REMARK    8  A    between atoms: C_14  and  C_15
REMARK    9  A    between atoms: C_15  and  S_16
REMARK   10  A    between atoms: S_16  and  C_17
REMARK                            x       y       z     vdW  Elec       q    Type
REMARK                         _______ _______ _______ _____ _____    ______ ____
ROOT
ATOM      1  C   UNL     1       2.012   7.752  19.561  0.00  0.00    +0.000 A 
ATOM      2  C   UNL     1       1.748   8.798  18.665  0.00  0.00    +0.000 A 
ATOM      3  C   UNL     1       1.008   9.913  19.079  0.00  0.00    +0.000 A 
ATOM      4  C   UNL     1       0.489  10.001  20.380  0.00  0.00    +0.000 A 
ATOM      5  C   UNL     1       0.754   8.947  21.270  0.00  0.00    +0.000 A 
ATOM      6  C   UNL     1       1.504   7.833  20.862  0.00  0.00    +0.000 A 
ENDROOT
BRANCH   1   8
ATOM      7  N   UNL     1       3.178   6.507  17.817  0.00  0.00    +0.000 N 
ATOM      8  C   UNL     1       2.796   6.539  19.153  0.00  0.00    +0.000 C 
ATOM      9  O   UNL     1       3.062   5.691  19.993  0.00  0.00    +0.000 OA
ATOM     10  H   UNL     1       3.035   7.318  17.235  0.00  0.00    +0.000 HD
BRANCH   7  13
ATOM     11  C   UNL     1       5.134   5.605  17.002  0.00  0.00    +0.000 C 
ATOM     12  C   UNL     1       5.880   6.913  17.149  0.00  0.00    +0.000 C 
ATOM     13  N   UNL     1       3.879   5.443  17.318  0.00  0.00    +0.000 NA
BRANCH  11  14
ATOM     14  C   UNL     1       5.893   4.382  16.469  0.00  0.00    +0.000 C 
ATOM     15  C   UNL     1       7.377   4.502  16.824  0.00  0.00    +0.000 C 
BRANCH  14  17
ATOM     16  C   UNL     1       6.864   4.734  14.128  0.00  0.00    +0.000 C 
ATOM     17  C   UNL     1       5.722   4.166  14.958  0.00  0.00    +0.000 C 
ENDBRANCH  14  17
ENDBRANCH  11  14
ENDBRANCH   7  13
ENDBRANCH   1   8
BRANCH   4  18
ATOM     18  C   UNL     1      -0.333  11.204  20.809  0.00  0.00    +0.000 C 
BRANCH  18  19
ATOM     19  S   UNL     1      -0.781  12.262  19.396  0.00  0.00    +0.000 S 
BRANCH  19  20
ATOM     20  C   UNL     1      -2.528  12.149  19.385  0.00  0.00    +0.000 A 
ATOM     21  N   UNL     1      -3.196  11.511  18.452  0.00  0.00    +0.000 NA
ATOM     22  C   UNL     1      -4.558  11.699  18.647  0.00  0.00    +0.000 A 
ATOM     23  C   UNL     1      -5.591  11.221  17.814  0.00  0.00    +0.000 A 
ATOM     24  C   UNL     1      -6.924  11.549  18.094  0.00  0.00    +0.000 A 
ATOM     25  C   UNL     1      -7.243  12.323  19.205  0.00  0.00    +0.000 A 
ATOM     26  C   UNL     1      -6.243  12.775  20.070  0.00  0.00    +0.000 A 
ATOM     27  C   UNL     1      -4.906  12.460  19.766  0.00  0.00    +0.000 A 
ATOM     28  S   UNL     1      -3.470  12.903  20.603  0.00  0.00    +0.000 S 
ENDBRANCH  19  20
ENDBRANCH  18  19
ENDBRANCH   4  18
TORSDOF 7
ENDMDL
MODEL 3
REMARK VINA RESULT:      -7.4      3.948     11.077
REMARK  Name = 
REMARK  10 active torsions:
REMARK  status: ('A' for Active; 'I' for Inactive)
REMARK    1  A    between atoms: C_1  and  C_2
REMARK    2  A    between atoms: C_2  and  C_3
REMARK    3  A    between atoms: C_3  and  C_4
REMARK    4  A    between atoms: C_3  and  C_5
REMARK    5  A    between atoms: C_5  and  C_6
REMARK    6  A    between atoms: N_7  and  N_8
REMARK    7  A    between atoms: C_9  and  C_11
REMARK    8  A    between atoms: C_14  and  C_15
REMARK    9  A    between atoms: C_15  and  S_16
REMARK   10  A    between atoms: S_16  and  C_17
REMARK                            x       y       z     vdW  Elec       q    Type
REMARK                         _______ _______ _______ _____ _____    ______ ____
ROOT
ATOM      1  C   UNL     1       2.004   7.884  19.310  0.00  0.00    +0.000 A 
ATOM      2  C   UNL     1       1.475   8.146  20.582  0.00  0.00    +0.000 A 
ATOM      3  C   UNL     1       0.730   9.310  20.811  0.00  0.00    +0.000 A 
ATOM      4  C   UNL     1       0.521  10.253  19.792  0.00  0.00    +0.000 A 
ATOM      5  C   UNL     1       1.058   9.985  18.523  0.00  0.00    +0.000 A 
ATOM      6  C   UNL     1       1.795   8.814  18.286  0.00  0.00    +0.000 A 
ENDROOT
BRANCH   1   8
ATOM      7  N   UNL     1       3.302   6.552  17.730  0.00  0.00    +0.000 N 
ATOM      8  C   UNL     1       2.811   6.650  19.028  0.00  0.00    +0.000 C 
ATOM      9  O   UNL     1       3.003   5.844  19.927  0.00  0.00    +0.000 OA
ATOM     10  H   UNL     1       3.213   7.333  17.100  0.00  0.00    +0.000 HD
BRANCH   7  13
ATOM     11  C   UNL     1       5.311   5.609  17.115  0.00  0.00    +0.000 C 
ATOM     12  C   UNL     1       6.047   6.923  17.248  0.00  0.00    +0.000 C 
ATOM     13  N   UNL     1       4.035   5.463  17.343  0.00  0.00    +0.000 NA
BRANCH  11  14
ATOM     14  C   UNL     1       6.103   4.359  16.707  0.00  0.00    +0.000 C 
ATOM     15  C   UNL     1       7.593   4.586  16.971  0.00  0.00    +0.000 C 
BRANCH  14  17
ATOM     16  C   UNL     1       6.835   4.609  14.268  0.00  0.00    +0.000 C 
ATOM     17  C   UNL     1       5.879   3.942  15.245  0.00  0.00    +0.000 C 
ENDBRANCH  14  17
ENDBRANCH  11  14
ENDBRANCH   7  13
ENDBRANCH   1   8
BRANCH   4  18
ATOM     18  C   UNL     1      -0.267  11.524  20.060  0.00  0.00    +0.000 C 
BRANCH  18  19
ATOM     19  S   UNL     1      -0.932  12.249  18.528  0.00  0.00    +0.000 S 
BRANCH  19  20
ATOM     20  C   UNL     1      -2.660  12.116  18.772  0.00  0.00    +0.000 A 
ATOM     21  N   UNL     1      -3.267  12.574  19.842  0.00  0.00    +0.000 NA
ATOM     22  C   UNL     1      -4.608  12.214  19.803  0.00  0.00    +0.000 A 
ATOM     23  C   UNL     1      -5.568  12.471  20.805  0.00  0.00    +0.000 A 
ATOM     24  C   UNL     1      -6.874  11.986  20.664  0.00  0.00    +0.000 A 
ATOM     25  C   UNL     1      -7.244  11.271  19.529  0.00  0.00    +0.000 A 
ATOM     26  C   UNL     1      -6.325  11.038  18.502  0.00  0.00    +0.000 A 
ATOM     27  C   UNL     1      -5.009  11.509  18.665  0.00  0.00    +0.000 A 
ATOM     28  S   UNL     1      -3.659  11.343  17.612  0.00  0.00    +0.000 S 
ENDBRANCH  19  20
ENDBRANCH  18  19
ENDBRANCH   4  18
TORSDOF 7
ENDMDL
MODEL 4
REMARK VINA RESULT:      -7.3      4.533     10.266
REMARK  Name = 
REMARK  10 active torsions:
REMARK  status: ('A' for Active; 'I' for Inactive)
REMARK    1  A    between atoms: C_1  and  C_2
REMARK    2  A    between atoms: C_2  and  C_3
REMARK    3  A    between atoms: C_3  and  C_4
REMARK    4  A    between atoms: C_3  and  C_5
REMARK    5  A    between atoms: C_5  and  C_6
REMARK    6  A    between atoms: N_7  and  N_8
REMARK    7  A    between atoms: C_9  and  C_11
REMARK    8  A    between atoms: C_14  and  C_15
REMARK    9  A    between atoms: C_15  and  S_16
REMARK   10  A    between atoms: S_16  and  C_17
REMARK                            x       y       z     vdW  Elec       q    Type
REMARK                         _______ _______ _______ _____ _____    ______ ____
ROOT
ATOM      1  C   UNL     1       2.089   7.854  19.106  0.00  0.00    +0.000 A 
ATOM      2  C   UNL     1       1.527   8.130  20.361  0.00  0.00    +0.000 A 
ATOM      3  C   UNL     1       0.739   9.273  20.546  0.00  0.00    +0.000 A 
ATOM      4  C   UNL     1       0.516  10.182  19.499  0.00  0.00    +0.000 A 
ATOM      5  C   UNL     1       1.086   9.900  18.247  0.00  0.00    +0.000 A 
ATOM      6  C   UNL     1       1.868   8.749  18.055  0.00  0.00    +0.000 A 
ENDROOT
BRANCH   1   8
ATOM      7  N   UNL     1       3.628   6.631  17.661  0.00  0.00    +0.000 N 
ATOM      8  C   UNL     1       2.944   6.642  18.871  0.00  0.00    +0.000 C 
ATOM      9  O   UNL     1       3.004   5.779  19.735  0.00  0.00    +0.000 OA
ATOM     10  H   UNL     1       3.628   7.452  17.076  0.00  0.00    +0.000 HD
BRANCH   7  13
ATOM     11  C   UNL     1       5.691   5.779  17.093  0.00  0.00    +0.000 C 
ATOM     12  C   UNL     1       6.352   7.137  17.177  0.00  0.00    +0.000 C 
ATOM     13  N   UNL     1       4.423   5.571  17.320  0.00  0.00    +0.000 NA
BRANCH  11  14
ATOM     14  C   UNL     1       6.555   4.561  16.737  0.00  0.00    +0.000 C 
ATOM     15  C   UNL     1       7.760   4.493  17.677  0.00  0.00    +0.000 C 
BRANCH  14  17
ATOM     16  C   UNL     1       5.951   4.068  14.300  0.00  0.00    +0.000 C 
ATOM     17  C   UNL     1       7.019   4.545  15.273  0.00  0.00    +0.000 C 
ENDBRANCH  14  17
ENDBRANCH  11  14
ENDBRANCH   7  13
ENDBRANCH   1   8
BRANCH   4  18
ATOM     18  C   UNL     1      -0.320  11.430  19.719  0.00  0.00    +0.000 C 
BRANCH  18  19
ATOM     19  S   UNL     1       0.396  12.514  20.995  0.00  0.00    +0.000 S 
BRANCH  19  20
ATOM     20  C   UNL     1       1.070  13.818  20.042  0.00  0.00    +0.000 A 
ATOM     21  N   UNL     1       0.435  14.948  19.829  0.00  0.00    +0.000 NA
ATOM     22  C   UNL     1       1.167  15.729  18.944  0.00  0.00    +0.000 A 
ATOM     23  C   UNL     1       0.780  16.984  18.427  0.00  0.00    +0.000 A 
ATOM     24  C   UNL     1       1.587  17.630  17.482  0.00  0.00    +0.000 A 
ATOM     25  C   UNL     1       2.784  17.058  17.066  0.00  0.00    +0.000 A 
ATOM     26  C   UNL     1       3.212  15.836  17.592  0.00  0.00    +0.000 A 
ATOM     27  C   UNL     1       2.382  15.184  18.523  0.00  0.00    +0.000 A 
ATOM     28  S   UNL     1       2.610  13.669  19.305  0.00  0.00    +0.000 S 
ENDBRANCH  19  20
ENDBRANCH  18  19
ENDBRANCH   4  18
TORSDOF 7
ENDMDL
MODEL 5
REMARK VINA RESULT:      -7.2      1.446      2.079
REMARK  Name = 
REMARK  10 active torsions:
REMARK  status: ('A' for Active; 'I' for Inactive)
REMARK    1  A    between atoms: C_1  and  C_2
REMARK    2  A    between atoms: C_2  and  C_3
REMARK    3  A    between atoms: C_3  and  C_4
REMARK    4  A    between atoms: C_3  and  C_5
REMARK    5  A    between atoms: C_5  and  C_6
REMARK    6  A    between atoms: N_7  and  N_8
REMARK    7  A    between atoms: C_9  and  C_11
REMARK    8  A    between atoms: C_14  and  C_15
REMARK    9  A    between atoms: C_15  and  S_16
REMARK   10  A    between atoms: S_16  and  C_17
REMARK                            x       y       z     vdW  Elec       q    Type
REMARK                         _______ _______ _______ _____ _____    ______ ____
ROOT
ATOM      1  C   UNL     1       2.360   8.374  18.354  0.00  0.00    +0.000 A 
ATOM      2  C   UNL     1       3.407   8.163  17.447  0.00  0.00    +0.000 A 
ATOM      3  C   UNL     1       4.177   6.994  17.515  0.00  0.00    +0.000 A 
ATOM      4  C   UNL     1       3.942   6.024  18.502  0.00  0.00    +0.000 A 
ATOM      5  C   UNL     1       2.893   6.245  19.409  0.00  0.00    +0.000 A 
ATOM      6  C   UNL     1       2.113   7.409  19.338  0.00  0.00    +0.000 A 
ENDROOT
BRANCH   1   8
ATOM      7  N   UNL     1       0.406   9.598  19.152  0.00  0.00    +0.000 N 
ATOM      8  C   UNL     1       1.518   9.616  18.317  0.00  0.00    +0.000 C 
ATOM      9  O   UNL     1       1.858  10.545  17.598  0.00  0.00    +0.000 OA
ATOM     10  H   UNL     1       0.286   8.847  19.812  0.00  0.00    +0.000 HD
BRANCH   7  13
ATOM     11  C   UNL     1      -1.428  10.721  18.328  0.00  0.00    +0.000 C 
ATOM     12  C   UNL     1      -1.678   9.674  17.266  0.00  0.00    +0.000 C 
ATOM     13  N   UNL     1      -0.452  10.664  19.191  0.00  0.00    +0.000 NA
BRANCH  11  14
ATOM     14  C   UNL     1      -2.384  11.919  18.419  0.00  0.00    +0.000 C 
ATOM     15  C   UNL     1      -2.344  12.502  19.833  0.00  0.00    +0.000 C 
BRANCH  14  17
ATOM     16  C   UNL     1      -4.869  12.125  18.989  0.00  0.00    +0.000 C 
ATOM     17  C   UNL     1      -3.829  11.581  18.022  0.00  0.00    +0.000 C 
ENDBRANCH  14  17
ENDBRANCH  11  14
ENDBRANCH   7  13
ENDBRANCH   1   8
BRANCH   4  18
ATOM     18  C   UNL     1       4.799   4.772  18.580  0.00  0.00    +0.000 C 
BRANCH  18  19
ATOM     19  S   UNL     1       6.544   5.116  18.193  0.00  0.00    +0.000 S 
BRANCH  19  20
ATOM     20  C   UNL     1       6.633   4.723  16.489  0.00  0.00    +0.000 A 
ATOM     21  N   UNL     1       7.457   5.322  15.661  0.00  0.00    +0.000 NA
ATOM     22  C   UNL     1       7.210   4.884  14.366  0.00  0.00    +0.000 A 
ATOM     23  C   UNL     1       7.850   5.345  13.196  0.00  0.00    +0.000 A 
ATOM     24  C   UNL     1       7.449   4.864  11.943  0.00  0.00    +0.000 A 
ATOM     25  C   UNL     1       6.439   3.913  11.842  0.00  0.00    +0.000 A 
ATOM     26  C   UNL     1       5.817   3.409  12.987  0.00  0.00    +0.000 A 
ATOM     27  C   UNL     1       6.210   3.916  14.238  0.00  0.00    +0.000 A 
ATOM     28  S   UNL     1       5.609   3.531  15.803  0.00  0.00    +0.000 S 
ENDBRANCH  19  20
ENDBRANCH  18  19
ENDBRANCH   4  18
TORSDOF 7
ENDMDL
MODEL 6
REMARK VINA RESULT:      -7.2      4.681     10.116
REMARK  Name = 
REMARK  10 active torsions:
REMARK  status: ('A' for Active; 'I' for Inactive)
REMARK    1  A    between atoms: C_1  and  C_2
REMARK    2  A    between atoms: C_2  and  C_3
REMARK    3  A    between atoms: C_3  and  C_4
REMARK    4  A    between atoms: C_3  and  C_5
REMARK    5  A    between atoms: C_5  and  C_6
REMARK    6  A    between atoms: N_7  and  N_8
REMARK    7  A    between atoms: C_9  and  C_11
REMARK    8  A    between atoms: C_14  and  C_15
REMARK    9  A    between atoms: C_15  and  S_16
REMARK   10  A    between atoms: S_16  and  C_17
REMARK                            x       y       z     vdW  Elec       q    Type
REMARK                         _______ _______ _______ _____ _____    ______ ____
ROOT
ATOM      1  C   UNL     1       2.105   7.819  19.104  0.00  0.00    +0.000 A 
ATOM      2  C   UNL     1       1.740   8.740  18.113  0.00  0.00    +0.000 A 
ATOM      3  C   UNL     1       0.946   9.848  18.436  0.00  0.00    +0.000 A 
ATOM      4  C   UNL     1       0.472  10.049  19.742  0.00  0.00    +0.000 A 
ATOM      5  C   UNL     1       0.839   9.119  20.728  0.00  0.00    +0.000 A 
ATOM      6  C   UNL     1       1.644   8.013  20.410  0.00  0.00    +0.000 A 
ENDROOT
BRANCH   1   8
ATOM      7  N   UNL     1       3.619   6.665  17.578  0.00  0.00    +0.000 N 
ATOM      8  C   UNL     1       2.950   6.617  18.795  0.00  0.00    +0.000 C 
ATOM      9  O   UNL     1       3.015   5.709  19.612  0.00  0.00    +0.000 OA
ATOM     10  H   UNL     1       3.616   7.516  17.037  0.00  0.00    +0.000 HD
BRANCH   7  13
ATOM     11  C   UNL     1       5.682   5.819  17.000  0.00  0.00    +0.000 C 
ATOM     12  C   UNL     1       6.365   7.151  17.217  0.00  0.00    +0.000 C 
ATOM     13  N   UNL     1       4.404   5.620  17.173  0.00  0.00    +0.000 NA
BRANCH  11  14
ATOM     14  C   UNL     1       6.533   4.617  16.569  0.00  0.00    +0.000 C 
ATOM     15  C   UNL     1       7.714   4.453  17.527  0.00  0.00    +0.000 C 
BRANCH  14  17
ATOM     16  C   UNL     1       6.136   3.990  14.120  0.00  0.00    +0.000 C 
ATOM     17  C   UNL     1       7.032   4.708  15.118  0.00  0.00    +0.000 C 
ENDBRANCH  14  17
ENDBRANCH  11  14
ENDBRANCH   7  13
ENDBRANCH   1   8
BRANCH   4  18
ATOM     18  C   UNL     1      -0.409  11.241  20.074  0.00  0.00    +0.000 C 
BRANCH  18  19
ATOM     19  S   UNL     1      -0.871  12.183  18.586  0.00  0.00    +0.000 S 
BRANCH  19  20
ATOM     20  C   UNL     1       0.326  13.460  18.567  0.00  0.00    +0.000 A 
ATOM     21  N   UNL     1       1.571  13.266  18.199  0.00  0.00    +0.000 NA
ATOM     22  C   UNL     1       2.301  14.429  18.404  0.00  0.00    +0.000 A 
ATOM     23  C   UNL     1       3.686  14.591  18.187  0.00  0.00    +0.000 A 
ATOM     24  C   UNL     1       4.307  15.805  18.507  0.00  0.00    +0.000 A 
ATOM     25  C   UNL     1       3.565  16.866  19.015  0.00  0.00    +0.000 A 
ATOM     26  C   UNL     1       2.186  16.747  19.202  0.00  0.00    +0.000 A 
ATOM     27  C   UNL     1       1.575  15.515  18.900  0.00  0.00    +0.000 A 
ATOM     28  S   UNL     1      -0.073  15.052  19.063  0.00  0.00    +0.000 S 
ENDBRANCH  19  20
ENDBRANCH  18  19
ENDBRANCH   4  18
TORSDOF 7
ENDMDL
MODEL 7
REMARK VINA RESULT:      -7.1      1.151      1.846
REMARK  Name = 
REMARK  10 active torsions:
REMARK  status: ('A' for Active; 'I' for Inactive)
REMARK    1  A    between atoms: C_1  and  C_2
REMARK    2  A    between atoms: C_2  and  C_3
REMARK    3  A    between atoms: C_3  and  C_4
REMARK    4  A    between atoms: C_3  and  C_5
REMARK    5  A    between atoms: C_5  and  C_6
REMARK    6  A    between atoms: N_7  and  N_8
REMARK    7  A    between atoms: C_9  and  C_11
REMARK    8  A    between atoms: C_14  and  C_15
REMARK    9  A    between atoms: C_15  and  S_16
REMARK   10  A    between atoms: S_16  and  C_17
REMARK                            x       y       z     vdW  Elec       q    Type
REMARK                         _______ _______ _______ _____ _____    ______ ____
ROOT
ATOM      1  C   UNL     1       1.656   8.553  19.221  0.00  0.00    +0.000 A 
ATOM      2  C   UNL     1       2.353   8.180  18.064  0.00  0.00    +0.000 A 
ATOM      3  C   UNL     1       3.004   6.941  17.999  0.00  0.00    +0.000 A 
ATOM      4  C   UNL     1       3.001   6.059  19.091  0.00  0.00    +0.000 A 
ATOM      5  C   UNL     1       2.303   6.442  20.248  0.00  0.00    +0.000 A 
ATOM      6  C   UNL     1       1.641   7.678  20.312  0.00  0.00    +0.000 A 
ENDROOT
BRANCH   1   8
ATOM      7  N   UNL     1       0.346  10.119  20.557  0.00  0.00    +0.000 N 
ATOM      8  C   UNL     1       0.952   9.874  19.330  0.00  0.00    +0.000 C 
ATOM      9  O   UNL     1       0.970  10.639  18.376  0.00  0.00    +0.000 OA
ATOM     10  H   UNL     1       0.505   9.491  21.329  0.00  0.00    +0.000 HD
BRANCH   7  13
ATOM     11  C   UNL     1      -0.943  11.455  21.919  0.00  0.00    +0.000 C 
ATOM     12  C   UNL     1      -0.925  10.444  23.044  0.00  0.00    +0.000 C 
ATOM     13  N   UNL     1      -0.346  11.280  20.773  0.00  0.00    +0.000 NA
BRANCH  11  14
ATOM     14  C   UNL     1      -1.688  12.780  22.133  0.00  0.00    +0.000 C 
ATOM     15  C   UNL     1      -1.108  13.507  23.348  0.00  0.00    +0.000 C 
BRANCH  14  17
ATOM     16  C   UNL     1      -3.681  12.670  23.733  0.00  0.00    +0.000 C 
ATOM     17  C   UNL     1      -3.207  12.611  22.289  0.00  0.00    +0.000 C 
ENDBRANCH  14  17
ENDBRANCH  11  14
ENDBRANCH   7  13
ENDBRANCH   1   8
BRANCH   4  18
ATOM     18  C   UNL     1       3.731   4.729  19.017  0.00  0.00    +0.000 C 
BRANCH  18  19
ATOM     19  S   UNL     1       5.538   4.945  18.959  0.00  0.00    +0.000 S 
BRANCH  19  20
ATOM     20  C   UNL     1       5.865   4.887  17.241  0.00  0.00    +0.000 A 
ATOM     21  N   UNL     1       5.162   4.159  16.404  0.00  0.00    +0.000 NA
ATOM     22  C   UNL     1       5.733   4.225  15.140  0.00  0.00    +0.000 A 
ATOM     23  C   UNL     1       5.298   3.527  13.994  0.00  0.00    +0.000 A 
ATOM     24  C   UNL     1       6.016   3.633  12.796  0.00  0.00    +0.000 A 
ATOM     25  C   UNL     1       7.144   4.443  12.717  0.00  0.00    +0.000 A 
ATOM     26  C   UNL     1       7.573   5.177  13.826  0.00  0.00    +0.000 A 
ATOM     27  C   UNL     1       6.859   5.046  15.031  0.00  0.00    +0.000 A 
ATOM     28  S   UNL     1       7.162   5.776  16.558  0.00  0.00    +0.000 S 
ENDBRANCH  19  20
ENDBRANCH  18  19
ENDBRANCH   4  18
TORSDOF 7
ENDMDL
MODEL 8
REMARK VINA RESULT:      -7.1      4.553     12.342
REMARK  Name = 
REMARK  10 active torsions:
REMARK  status: ('A' for Active; 'I' for Inactive)
REMARK    1  A    between atoms: C_1  and  C_2
REMARK    2  A    between atoms: C_2  and  C_3
REMARK    3  A    between atoms: C_3  and  C_4
REMARK    4  A    between atoms: C_3  and  C_5
REMARK    5  A    between atoms: C_5  and  C_6
REMARK    6  A    between atoms: N_7  and  N_8
REMARK    7  A    between atoms: C_9  and  C_11
REMARK    8  A    between atoms: C_14  and  C_15
REMARK    9  A    between atoms: C_15  and  S_16
REMARK   10  A    between atoms: S_16  and  C_17
REMARK                            x       y       z     vdW  Elec       q    Type
REMARK                         _______ _______ _______ _____ _____    ______ ____
ROOT
ATOM      1  C   UNL     1       1.211   9.121  19.373  0.00  0.00    +0.000 A 
ATOM      2  C   UNL     1       0.629  10.114  18.574  0.00  0.00    +0.000 A 
ATOM      3  C   UNL     1      -0.278  11.027  19.128  0.00  0.00    +0.000 A 
ATOM      4  C   UNL     1      -0.649  10.954  20.480  0.00  0.00    +0.000 A 
ATOM      5  C   UNL     1      -0.065   9.953  21.273  0.00  0.00    +0.000 A 
ATOM      6  C   UNL     1       0.853   9.044  20.723  0.00  0.00    +0.000 A 
ENDROOT
BRANCH   1   8
ATOM      7  N   UNL     1       2.585   7.132  19.702  0.00  0.00    +0.000 N 
ATOM      8  C   UNL     1       2.183   8.122  18.814  0.00  0.00    +0.000 C 
ATOM      9  O   UNL     1       2.533   8.222  17.646  0.00  0.00    +0.000 OA
ATOM     10  H   UNL     1       2.134   7.049  20.600  0.00  0.00    +0.000 HD
BRANCH   7  13
ATOM     11  C   UNL     1       3.128   4.922  19.350  0.00  0.00    +0.000 C 
ATOM     12  C   UNL     1       1.763   4.444  19.795  0.00  0.00    +0.000 C 
ATOM     13  N   UNL     1       3.485   6.175  19.318  0.00  0.00    +0.000 NA
BRANCH  11  14
ATOM     14  C   UNL     1       4.156   3.880  18.888  0.00  0.00    +0.000 C 
ATOM     15  C   UNL     1       4.212   3.854  17.359  0.00  0.00    +0.000 C 
BRANCH  14  17
ATOM     16  C   UNL     1       3.376   1.496  18.386  0.00  0.00    +0.000 C 
ATOM     17  C   UNL     1       3.889   2.470  19.436  0.00  0.00    +0.000 C 
ENDBRANCH  14  17
ENDBRANCH  11  14
ENDBRANCH   7  13
ENDBRANCH   1   8
BRANCH   4  18
ATOM     18  C   UNL     1      -1.653  11.934  21.064  0.00  0.00    +0.000 C 
BRANCH  18  19
ATOM     19  S   UNL     1      -1.628  11.931  22.884  0.00  0.00    +0.000 S 
BRANCH  19  20
ATOM     20  C   UNL     1      -3.127  12.745  23.279  0.00  0.00    +0.000 A 
ATOM     21  N   UNL     1      -4.197  12.107  23.695  0.00  0.00    +0.000 NA
ATOM     22  C   UNL     1      -5.253  13.001  23.808  0.00  0.00    +0.000 A 
ATOM     23  C   UNL     1      -6.580  12.680  24.167  0.00  0.00    +0.000 A 
ATOM     24  C   UNL     1      -7.564  13.676  24.171  0.00  0.00    +0.000 A 
ATOM     25  C   UNL     1      -7.241  14.991  23.849  0.00  0.00    +0.000 A 
ATOM     26  C   UNL     1      -5.927  15.344  23.530  0.00  0.00    +0.000 A 
ATOM     27  C   UNL     1      -4.951  14.331  23.505  0.00  0.00    +0.000 A 
ATOM     28  S   UNL     1      -3.280  14.444  23.112  0.00  0.00    +0.000 S 
ENDBRANCH  19  20
ENDBRANCH  18  19
ENDBRANCH   4  18
TORSDOF 7
ENDMDL
MODEL 9
REMARK VINA RESULT:      -7.1      4.317     11.967
REMARK  Name = 
REMARK  10 active torsions:
REMARK  status: ('A' for Active; 'I' for Inactive)
REMARK    1  A    between atoms: C_1  and  C_2
REMARK    2  A    between atoms: C_2  and  C_3
REMARK    3  A    between atoms: C_3  and  C_4
REMARK    4  A    between atoms: C_3  and  C_5
REMARK    5  A    between atoms: C_5  and  C_6
REMARK    6  A    between atoms: N_7  and  N_8
REMARK    7  A    between atoms: C_9  and  C_11
REMARK    8  A    between atoms: C_14  and  C_15
REMARK    9  A    between atoms: C_15  and  S_16
REMARK   10  A    between atoms: S_16  and  C_17
REMARK                            x       y       z     vdW  Elec       q    Type
REMARK                         _______ _______ _______ _____ _____    ______ ____
ROOT
ATOM      1  C   UNL     1       1.049   9.363  19.770  0.00  0.00    +0.000 A 
ATOM      2  C   UNL     1       0.233  10.488  19.588  0.00  0.00    +0.000 A 
ATOM      3  C   UNL     1      -0.504  11.008  20.660  0.00  0.00    +0.000 A 
ATOM      4  C   UNL     1      -0.470  10.405  21.927  0.00  0.00    +0.000 A 
ATOM      5  C   UNL     1       0.347   9.275  22.100  0.00  0.00    +0.000 A 
ATOM      6  C   UNL     1       1.095   8.759  21.031  0.00  0.00    +0.000 A 
ENDROOT
BRANCH   1   8
ATOM      7  N   UNL     1       2.395   7.522  18.902  0.00  0.00    +0.000 N 
ATOM      8  C   UNL     1       1.849   8.775  18.644  0.00  0.00    +0.000 C 
ATOM      9  O   UNL     1       1.951   9.397  17.596  0.00  0.00    +0.000 OA
ATOM     10  H   UNL     1       2.139   7.026  19.741  0.00  0.00    +0.000 HD
BRANCH   7  13
ATOM     11  C   UNL     1       3.832   5.825  18.305  0.00  0.00    +0.000 C 
ATOM     12  C   UNL     1       3.820   5.232  19.696  0.00  0.00    +0.000 C 
ATOM     13  N   UNL     1       3.163   6.891  17.962  0.00  0.00    +0.000 NA
BRANCH  11  14
ATOM     14  C   UNL     1       4.663   5.130  17.217  0.00  0.00    +0.000 C 
ATOM     15  C   UNL     1       5.911   4.505  17.842  0.00  0.00    +0.000 C 
BRANCH  14  17
ATOM     16  C   UNL     1       5.719   5.337  14.896  0.00  0.00    +0.000 C 
ATOM     17  C   UNL     1       5.055   6.060  16.058  0.00  0.00    +0.000 C 
ENDBRANCH  14  17
ENDBRANCH  11  14
ENDBRANCH   7  13
ENDBRANCH   1   8
BRANCH   4  18
ATOM     18  C   UNL     1      -1.293  10.963  23.076  0.00  0.00    +0.000 C 
BRANCH  18  19
ATOM     19  S   UNL     1      -1.493  12.768  22.956  0.00  0.00    +0.000 S 
BRANCH  19  20
ATOM     20  C   UNL     1      -3.227  12.940  22.785  0.00  0.00    +0.000 A 
ATOM     21  N   UNL     1      -4.062  12.779  23.786  0.00  0.00    +0.000 NA
ATOM     22  C   UNL     1      -5.367  12.859  23.317  0.00  0.00    +0.000 A 
ATOM     23  C   UNL     1      -6.538  12.674  24.082  0.00  0.00    +0.000 A 
ATOM     24  C   UNL     1      -7.793  12.713  23.461  0.00  0.00    +0.000 A 
ATOM     25  C   UNL     1      -7.898  12.959  22.096  0.00  0.00    +0.000 A 
ATOM     26  C   UNL     1      -6.757  13.186  21.322  0.00  0.00    +0.000 A 
ATOM     27  C   UNL     1      -5.500  13.121  21.951  0.00  0.00    +0.000 A 
ATOM     28  S   UNL     1      -3.933  13.310  21.268  0.00  0.00    +0.000 S 
ENDBRANCH  19  20
ENDBRANCH  18  19
ENDBRANCH   4  18
TORSDOF 7
ENDMDL
