MODEL 1
REMARK VINA RESULT:      -7.5      0.000      0.000
REMARK  Name = 
REMARK  5 active torsions:
REMARK  status: ('A' for Active; 'I' for Inactive)
REMARK    1  A    between atoms: C_1  and  C_2
REMARK    2  A    between atoms: N_8  and  C_9
REMARK    3  A    between atoms: C_12  and  O_13
REMARK    4  A    between atoms: O_13  and  C_14
REMARK    5  A    between atoms: C_14  and  C_15
REMARK                            x       y       z     vdW  Elec       q    Type
REMARK                         _______ _______ _______ _____ _____    ______ ____
ROOT
ATOM      1  C   UNL     1       0.089  10.200  20.356  0.00  0.00    +0.000 A 
ATOM      2  C   UNL     1       0.305  10.296  18.985  0.00  0.00    +0.000 A 
ATOM      3  C   UNL     1       1.129   9.371  18.337  0.00  0.00    +0.000 A 
ATOM      4  C   UNL     1       1.717   8.375  19.091  0.00  0.00    +0.000 A 
ATOM      5  N   UNL     1       1.594   8.285  20.433  0.00  0.00    +0.000 NA
ATOM      6  C   UNL     1       0.794   9.205  21.029  0.00  0.00    +0.000 A 
ENDROOT
BRANCH   1  14
ATOM      7  C   UNL     1      -5.054  14.494  22.893  0.00  0.00    +0.000 C 
ATOM      8  C   UNL     1      -4.069  14.122  23.999  0.00  0.00    +0.000 C 
ATOM      9  C   UNL     1      -3.529  12.692  23.916  0.00  0.00    +0.000 C 
ATOM     10  C   UNL     1      -2.825  12.323  22.612  0.00  0.00    +0.000 C 
ATOM     11  N   UNL     1      -1.457  12.822  22.464  0.00  0.00    +0.000 N 
ATOM     12  C   UNL     1      -0.440  12.180  21.758  0.00  0.00    +0.000 C 
ATOM     13  O   UNL     1       0.702  12.638  21.751  0.00  0.00    +0.000 OA
ATOM     14  N   UNL     1      -0.798  11.035  21.080  0.00  0.00    +0.000 N 
ATOM     15  C   UNL     1      -1.067  14.049  23.181  0.00  0.00    +0.000 C 
ATOM     16  C   UNL     1      -2.076  15.191  23.118  0.00  0.00    +0.000 C 
ATOM     17  O   UNL     1      -3.055  15.107  24.149  0.00  0.00    +0.000 OA
ATOM     18  H   UNL     1      -1.779  10.900  20.899  0.00  0.00    +0.000 HD
ENDBRANCH   1  14
BRANCH   4  19
ATOM     19  O   UNL     1       2.488   7.454  18.415  0.00  0.00    +0.000 OA
BRANCH  19  20
ATOM     20  C   UNL     1       3.095   6.518  19.305  0.00  0.00    +0.000 C 
BRANCH  20  21
ATOM     21  C   UNL     1       2.299   5.234  19.268  0.00  0.00    +0.000 A 
ATOM     22  C   UNL     1       1.773   4.699  20.452  0.00  0.00    +0.000 A 
ATOM     23  C   UNL     1       1.044   3.510  20.431  0.00  0.00    +0.000 A 
ATOM     24  C   UNL     1       0.840   2.840  19.225  0.00  0.00    +0.000 A 
ATOM     25  C   UNL     1       1.365   3.358  18.042  0.00  0.00    +0.000 A 
ATOM     26  C   UNL     1       2.095   4.549  18.062  0.00  0.00    +0.000 A 
ENDBRANCH  20  21
ENDBRANCH  19  20
ENDBRANCH   4  19
TORSDOF 4
ENDMDL
MODEL 2
REMARK VINA RESULT:      -7.4      8.054      9.290
REMARK  Name = 
REMARK  5 active torsions:
REMARK  status: ('A' for Active; 'I' for Inactive)
REMARK    1  A    between atoms: C_1  and  C_2
REMARK    2  A    between atoms: N_8  and  C_9
REMARK    3  A    between atoms: C_12  and  O_13
REMARK    4  A    between atoms: O_13  and  C_14
REMARK    5  A    between atoms: C_14  and  C_15
REMARK                            x       y       z     vdW  Elec       q    Type
REMARK                         _______ _______ _______ _____ _____    ______ ____
ROOT
ATOM      1  C   UNL     1       8.043   7.370  18.425  0.00  0.00    +0.000 A 
ATOM      2  C   UNL     1       7.482   7.183  17.165  0.00  0.00    +0.000 A 
ATOM      3  C   UNL     1       6.902   5.957  16.828  0.00  0.00    +0.000 A 
ATOM      4  C   UNL     1       6.907   4.948  17.772  0.00  0.00    +0.000 A 
ATOM      5  N   UNL     1       7.502   5.059  18.978  0.00  0.00    +0.000 NA
ATOM      6  C   UNL     1       8.062   6.260  19.267  0.00  0.00    +0.000 A 
ENDROOT
BRANCH   1  14
ATOM      7  C   UNL     1       9.971  13.383  21.807  0.00  0.00    +0.000 C 
ATOM      8  C   UNL     1      10.716  13.249  20.480  0.00  0.00    +0.000 C 
ATOM      9  C   UNL     1      11.104  11.816  20.109  0.00  0.00    +0.000 C 
ATOM     10  C   UNL     1       9.951  10.817  20.024  0.00  0.00    +0.000 C 
ATOM     11  N   UNL     1       9.138  10.886  18.810  0.00  0.00    +0.000 N 
ATOM     12  C   UNL     1       8.494   9.801  18.211  0.00  0.00    +0.000 C 
ATOM     13  O   UNL     1       7.893   9.941  17.147  0.00  0.00    +0.000 OA
ATOM     14  N   UNL     1       8.570   8.602  18.885  0.00  0.00    +0.000 N 
ATOM     15  C   UNL     1       9.047  12.166  18.086  0.00  0.00    +0.000 C 
ATOM     16  C   UNL     1       8.828  13.396  18.961  0.00  0.00    +0.000 C 
ATOM     17  O   UNL     1      10.051  13.950  19.435  0.00  0.00    +0.000 OA
ATOM     18  H   UNL     1       8.816   8.640  19.860  0.00  0.00    +0.000 HD
ENDBRANCH   1  14
BRANCH   4  19
ATOM     19  O   UNL     1       6.290   3.766  17.423  0.00  0.00    +0.000 OA
BRANCH  19  20
ATOM     20  C   UNL     1       5.228   3.979  16.494  0.00  0.00    +0.000 C 
BRANCH  20  21
ATOM     21  C   UNL     1       3.914   3.758  17.205  0.00  0.00    +0.000 A 
ATOM     22  C   UNL     1       3.098   4.850  17.530  0.00  0.00    +0.000 A 
ATOM     23  C   UNL     1       1.887   4.659  18.195  0.00  0.00    +0.000 A 
ATOM     24  C   UNL     1       1.483   3.372  18.548  0.00  0.00    +0.000 A 
ATOM     25  C   UNL     1       2.290   2.278  18.238  0.00  0.00    +0.000 A 
ATOM     26  C   UNL     1       3.502   2.469  17.572  0.00  0.00    +0.000 A 
ENDBRANCH  20  21
ENDBRANCH  19  20
ENDBRANCH   4  19
TORSDOF 4
ENDMDL
MODEL 3
REMARK VINA RESULT:      -7.3      4.083      5.992
REMARK  Name = 
REMARK  5 active torsions:
REMARK  status: ('A' for Active; 'I' for Inactive)
REMARK    1  A    between atoms: C_1  and  C_2
REMARK    2  A    between atoms: N_8  and  C_9
REMARK    3  A    between atoms: C_12  and  O_13
REMARK    4  A    between atoms: O_13  and  C_14
REMARK    5  A    between atoms: C_14  and  C_15
REMARK                            x       y       z     vdW  Elec       q    Type
REMARK                         _______ _______ _______ _____ _____    ______ ____
ROOT
ATOM      1  C   UNL     1       2.998   7.168  17.913  0.00  0.00    +0.000 A 
ATOM      2  C   UNL     1       4.331   7.398  17.585  0.00  0.00    +0.000 A 
ATOM      3  C   UNL     1       5.146   6.341  17.174  0.00  0.00    +0.000 A 
ATOM      4  C   UNL     1       4.596   5.076  17.108  0.00  0.00    +0.000 A 
ATOM      5  N   UNL     1       3.331   4.792  17.484  0.00  0.00    +0.000 NA
ATOM      6  C   UNL     1       2.572   5.841  17.886  0.00  0.00    +0.000 A 
ENDROOT
BRANCH   1  14
ATOM      7  C   UNL     1      -0.816  13.126  19.043  0.00  0.00    +0.000 C 
ATOM      8  C   UNL     1      -1.559  11.902  19.574  0.00  0.00    +0.000 C 
ATOM      9  C   UNL     1      -1.392  10.638  18.727  0.00  0.00    +0.000 C 
ATOM     10  C   UNL     1       0.046  10.170  18.510  0.00  0.00    +0.000 C 
ATOM     11  N   UNL     1       0.664   9.468  19.636  0.00  0.00    +0.000 N 
ATOM     12  C   UNL     1       1.624   8.462  19.526  0.00  0.00    +0.000 C 
ATOM     13  O   UNL     1       2.032   7.875  20.528  0.00  0.00    +0.000 OA
ATOM     14  N   UNL     1       2.075   8.188  18.253  0.00  0.00    +0.000 N 
ATOM     15  C   UNL     1       0.190   9.758  21.000  0.00  0.00    +0.000 C 
ATOM     16  C   UNL     1      -0.012  11.236  21.321  0.00  0.00    +0.000 C 
ATOM     17  O   UNL     1      -1.309  11.698  20.959  0.00  0.00    +0.000 OA
ATOM     18  H   UNL     1       1.917   8.892  17.551  0.00  0.00    +0.000 HD
ENDBRANCH   1  14
BRANCH   4  19
ATOM     19  O   UNL     1       5.416   4.063  16.657  0.00  0.00    +0.000 OA
BRANCH  19  20
ATOM     20  C   UNL     1       6.685   4.560  16.232  0.00  0.00    +0.000 C 
BRANCH  20  21
ATOM     21  C   UNL     1       6.761   4.461  14.727  0.00  0.00    +0.000 A 
ATOM     22  C   UNL     1       5.924   3.573  14.037  0.00  0.00    +0.000 A 
ATOM     23  C   UNL     1       5.992   3.467  12.648  0.00  0.00    +0.000 A 
ATOM     24  C   UNL     1       6.905   4.244  11.935  0.00  0.00    +0.000 A 
ATOM     25  C   UNL     1       7.748   5.124  12.611  0.00  0.00    +0.000 A 
ATOM     26  C   UNL     1       7.681   5.231  14.001  0.00  0.00    +0.000 A 
ENDBRANCH  20  21
ENDBRANCH  19  20
ENDBRANCH   4  19
TORSDOF 4
ENDMDL
MODEL 4
REMARK VINA RESULT:      -7.3      1.893      2.398
REMARK  Name = 
REMARK  5 active torsions:
REMARK  status: ('A' for Active; 'I' for Inactive)
REMARK    1  A    between atoms: C_1  and  C_2
REMARK    2  A    between atoms: N_8  and  C_9
REMARK    3  A    between atoms: C_12  and  O_13
REMARK    4  A    between atoms: O_13  and  C_14
REMARK    5  A    between atoms: C_14  and  C_15
REMARK                            x       y       z     vdW  Elec       q    Type
REMARK                         _______ _______ _______ _____ _____    ______ ____
ROOT
ATOM      1  C   UNL     1       0.956   9.770  19.409  0.00  0.00    +0.000 A 
ATOM      2  C   UNL     1       1.499   9.687  18.130  0.00  0.00    +0.000 A 
ATOM      3  C   UNL     1       2.268   8.580  17.763  0.00  0.00    +0.000 A 
ATOM      4  C   UNL     1       2.473   7.585  18.699  0.00  0.00    +0.000 A 
ATOM      5  N   UNL     1       2.028   7.656  19.971  0.00  0.00    +0.000 NA
ATOM      6  C   UNL     1       1.293   8.749  20.294  0.00  0.00    +0.000 A 
ENDROOT
BRANCH   1  14
ATOM      7  C   UNL     1      -3.156  14.565  22.787  0.00  0.00    +0.000 C 
ATOM      8  C   UNL     1      -3.157  14.821  21.282  0.00  0.00    +0.000 C 
ATOM      9  C   UNL     1      -1.818  14.554  20.590  0.00  0.00    +0.000 C 
ATOM     10  C   UNL     1      -1.255  13.144  20.756  0.00  0.00    +0.000 C 
ATOM     11  N   UNL     1      -1.866  12.111  19.918  0.00  0.00    +0.000 N 
ATOM     12  C   UNL     1      -1.208  10.986  19.421  0.00  0.00    +0.000 C 
ATOM     13  O   UNL     1      -1.785  10.209  18.660  0.00  0.00    +0.000 OA
ATOM     14  N   UNL     1       0.092  10.807  19.840  0.00  0.00    +0.000 N 
ATOM     15  C   UNL     1      -3.258  12.292  19.470  0.00  0.00    +0.000 C 
ATOM     16  C   UNL     1      -4.232  12.775  20.541  0.00  0.00    +0.000 C 
ATOM     17  O   UNL     1      -4.264  14.195  20.646  0.00  0.00    +0.000 OA
ATOM     18  H   UNL     1       0.379  11.306  20.666  0.00  0.00    +0.000 HD
ENDBRANCH   1  14
BRANCH   4  19
ATOM     19  O   UNL     1       3.201   6.487  18.291  0.00  0.00    +0.000 OA
BRANCH  19  20
ATOM     20  C   UNL     1       3.572   5.661  19.393  0.00  0.00    +0.000 C 
BRANCH  20  21
ATOM     21  C   UNL     1       2.580   4.528  19.502  0.00  0.00    +0.000 A 
ATOM     22  C   UNL     1       2.140   4.096  20.761  0.00  0.00    +0.000 A 
ATOM     23  C   UNL     1       1.230   3.045  20.874  0.00  0.00    +0.000 A 
ATOM     24  C   UNL     1       0.755   2.410  19.727  0.00  0.00    +0.000 A 
ATOM     25  C   UNL     1       1.191   2.824  18.469  0.00  0.00    +0.000 A 
ATOM     26  C   UNL     1       2.103   3.877  18.356  0.00  0.00    +0.000 A 
ENDBRANCH  20  21
ENDBRANCH  19  20
ENDBRANCH   4  19
TORSDOF 4
ENDMDL
MODEL 5
REMARK VINA RESULT:      -7.3      2.007      2.631
REMARK  Name = 
REMARK  5 active torsions:
REMARK  status: ('A' for Active; 'I' for Inactive)
REMARK    1  A    between atoms: C_1  and  C_2
REMARK    2  A    between atoms: N_8  and  C_9
REMARK    3  A    between atoms: C_12  and  O_13
REMARK    4  A    between atoms: O_13  and  C_14
REMARK    5  A    between atoms: C_14  and  C_15
REMARK                            x       y       z     vdW  Elec       q    Type
REMARK                         _______ _______ _______ _____ _____    ______ ____
ROOT
ATOM      1  C   UNL     1       0.995   9.642  19.393  0.00  0.00    +0.000 A 
ATOM      2  C   UNL     1       1.465   9.492  18.092  0.00  0.00    +0.000 A 
ATOM      3  C   UNL     1       2.197   8.357  17.735  0.00  0.00    +0.000 A 
ATOM      4  C   UNL     1       2.439   7.402  18.703  0.00  0.00    +0.000 A 
ATOM      5  N   UNL     1       2.066   7.537  19.993  0.00  0.00    +0.000 NA
ATOM      6  C   UNL     1       1.365   8.655  20.305  0.00  0.00    +0.000 A 
ENDROOT
BRANCH   1  14
ATOM      7  C   UNL     1      -2.903  14.617  22.766  0.00  0.00    +0.000 C 
ATOM      8  C   UNL     1      -2.929  14.845  21.257  0.00  0.00    +0.000 C 
ATOM      9  C   UNL     1      -1.613  14.526  20.542  0.00  0.00    +0.000 C 
ATOM     10  C   UNL     1      -1.088  13.103  20.723  0.00  0.00    +0.000 C 
ATOM     11  N   UNL     1      -1.747  12.074  19.918  0.00  0.00    +0.000 N 
ATOM     12  C   UNL     1      -1.133  10.920  19.428  0.00  0.00    +0.000 C 
ATOM     13  O   UNL     1      -1.748  10.147  18.695  0.00  0.00    +0.000 OA
ATOM     14  N   UNL     1       0.171  10.712  19.822  0.00  0.00    +0.000 N 
ATOM     15  C   UNL     1      -3.143  12.287  19.496  0.00  0.00    +0.000 C 
ATOM     16  C   UNL     1      -4.078  12.818  20.578  0.00  0.00    +0.000 C 
ATOM     17  O   UNL     1      -4.067  14.239  20.656  0.00  0.00    +0.000 OA
ATOM     18  H   UNL     1       0.489  11.216  20.633  0.00  0.00    +0.000 HD
ENDBRANCH   1  14
BRANCH   4  19
ATOM     19  O   UNL     1       3.127   6.274  18.307  0.00  0.00    +0.000 OA
BRANCH  19  20
ATOM     20  C   UNL     1       2.245   5.187  18.030  0.00  0.00    +0.000 C 
BRANCH  20  21
ATOM     21  C   UNL     1       2.278   4.231  19.199  0.00  0.00    +0.000 A 
ATOM     22  C   UNL     1       1.117   3.998  19.950  0.00  0.00    +0.000 A 
ATOM     23  C   UNL     1       1.139   3.125  21.037  0.00  0.00    +0.000 A 
ATOM     24  C   UNL     1       2.324   2.479  21.388  0.00  0.00    +0.000 A 
ATOM     25  C   UNL     1       3.486   2.709  20.653  0.00  0.00    +0.000 A 
ATOM     26  C   UNL     1       3.466   3.584  19.565  0.00  0.00    +0.000 A 
ENDBRANCH  20  21
ENDBRANCH  19  20
ENDBRANCH   4  19
TORSDOF 4
ENDMDL
MODEL 6
REMARK VINA RESULT:      -7.3      4.016      5.977
REMARK  Name = 
REMARK  5 active torsions:
REMARK  status: ('A' for Active; 'I' for Inactive)
REMARK    1  A    between atoms: C_1  and  C_2
REMARK    2  A    between atoms: N_8  and  C_9
REMARK    3  A    between atoms: C_12  and  O_13
REMARK    4  A    between atoms: O_13  and  C_14
REMARK    5  A    between atoms: C_14  and  C_15
REMARK                            x       y       z     vdW  Elec       q    Type
REMARK                         _______ _______ _______ _____ _____    ______ ____
ROOT
ATOM      1  C   UNL     1       2.836   7.032  18.287  0.00  0.00    +0.000 A 
ATOM      2  C   UNL     1       2.535   5.674  18.336  0.00  0.00    +0.000 A 
ATOM      3  C   UNL     1       3.385   4.743  17.732  0.00  0.00    +0.000 A 
ATOM      4  C   UNL     1       4.515   5.208  17.089  0.00  0.00    +0.000 A 
ATOM      5  N   UNL     1       4.810   6.518  16.954  0.00  0.00    +0.000 NA
ATOM      6  C   UNL     1       3.959   7.393  17.545  0.00  0.00    +0.000 A 
ENDROOT
BRANCH   1  14
ATOM      7  C   UNL     1       0.127  12.822  21.521  0.00  0.00    +0.000 C 
ATOM      8  C   UNL     1      -0.935  11.732  21.389  0.00  0.00    +0.000 C 
ATOM      9  C   UNL     1      -0.853  10.916  20.097  0.00  0.00    +0.000 C 
ATOM     10  C   UNL     1       0.477  10.211  19.840  0.00  0.00    +0.000 C 
ATOM     11  N   UNL     1       0.704   8.982  20.602  0.00  0.00    +0.000 N 
ATOM     12  C   UNL     1       1.448   7.888  20.159  0.00  0.00    +0.000 C 
ATOM     13  O   UNL     1       1.522   6.865  20.839  0.00  0.00    +0.000 OA
ATOM     14  N   UNL     1       2.084   8.036  18.945  0.00  0.00    +0.000 N 
ATOM     15  C   UNL     1       0.032   8.818  21.902  0.00  0.00    +0.000 C 
ATOM     16  C   UNL     1       0.066  10.041  22.814  0.00  0.00    +0.000 C 
ATOM     17  O   UNL     1      -1.014  10.935  22.564  0.00  0.00    +0.000 OA
ATOM     18  H   UNL     1       2.213   8.976  18.609  0.00  0.00    +0.000 HD
ENDBRANCH   1  14
BRANCH   4  19
ATOM     19  O   UNL     1       5.354   4.261  16.541  0.00  0.00    +0.000 OA
BRANCH  19  20
ATOM     20  C   UNL     1       6.587   4.834  16.109  0.00  0.00    +0.000 C 
BRANCH  20  21
ATOM     21  C   UNL     1       6.723   4.617  14.620  0.00  0.00    +0.000 A 
ATOM     22  C   UNL     1       5.920   3.668  13.972  0.00  0.00    +0.000 A 
ATOM     23  C   UNL     1       6.043   3.453  12.599  0.00  0.00    +0.000 A 
ATOM     24  C   UNL     1       6.975   4.181  11.861  0.00  0.00    +0.000 A 
ATOM     25  C   UNL     1       7.785   5.122  12.496  0.00  0.00    +0.000 A 
ATOM     26  C   UNL     1       7.663   5.338  13.870  0.00  0.00    +0.000 A 
ENDBRANCH  20  21
ENDBRANCH  19  20
ENDBRANCH   4  19
TORSDOF 4
ENDMDL
MODEL 7
REMARK VINA RESULT:      -7.2      4.019      5.949
REMARK  Name = 
REMARK  5 active torsions:
REMARK  status: ('A' for Active; 'I' for Inactive)
REMARK    1  A    between atoms: C_1  and  C_2
REMARK    2  A    between atoms: N_8  and  C_9
REMARK    3  A    between atoms: C_12  and  O_13
REMARK    4  A    between atoms: O_13  and  C_14
REMARK    5  A    between atoms: C_14  and  C_15
REMARK                            x       y       z     vdW  Elec       q    Type
REMARK                         _______ _______ _______ _____ _____    ______ ____
ROOT
ATOM      1  C   UNL     1       2.927   7.085  18.319  0.00  0.00    +0.000 A 
ATOM      2  C   UNL     1       4.051   7.370  17.549  0.00  0.00    +0.000 A 
ATOM      3  C   UNL     1       4.710   6.348  16.862  0.00  0.00    +0.000 A 
ATOM      4  C   UNL     1       4.220   5.061  16.973  0.00  0.00    +0.000 A 
ATOM      5  N   UNL     1       3.179   4.726  17.764  0.00  0.00    +0.000 NA
ATOM      6  C   UNL     1       2.569   5.742  18.423  0.00  0.00    +0.000 A 
ENDROOT
BRANCH   1  14
ATOM      7  C   UNL     1       0.051  12.776  21.584  0.00  0.00    +0.000 C 
ATOM      8  C   UNL     1      -0.990  11.673  21.407  0.00  0.00    +0.000 C 
ATOM      9  C   UNL     1      -0.864  10.881  20.104  0.00  0.00    +0.000 C 
ATOM     10  C   UNL     1       0.483  10.201  19.868  0.00  0.00    +0.000 C 
ATOM     11  N   UNL     1       0.710   8.963  20.613  0.00  0.00    +0.000 N 
ATOM     12  C   UNL     1       1.481   7.888  20.170  0.00  0.00    +0.000 C 
ATOM     13  O   UNL     1       1.554   6.854  20.834  0.00  0.00    +0.000 OA
ATOM     14  N   UNL     1       2.144   8.066  18.976  0.00  0.00    +0.000 N 
ATOM     15  C   UNL     1       0.009   8.766  21.894  0.00  0.00    +0.000 C 
ATOM     16  C   UNL     1       0.001   9.973  22.827  0.00  0.00    +0.000 C 
ATOM     17  O   UNL     1      -1.086  10.854  22.566  0.00  0.00    +0.000 OA
ATOM     18  H   UNL     1       2.267   9.014  18.659  0.00  0.00    +0.000 HD
ENDBRANCH   1  14
BRANCH   4  19
ATOM     19  O   UNL     1       4.868   4.083  16.248  0.00  0.00    +0.000 OA
BRANCH  19  20
ATOM     20  C   UNL     1       6.245   4.398  16.049  0.00  0.00    +0.000 C 
BRANCH  20  21
ATOM     21  C   UNL     1       6.543   4.342  14.569  0.00  0.00    +0.000 A 
ATOM     22  C   UNL     1       7.519   5.183  14.016  0.00  0.00    +0.000 A 
ATOM     23  C   UNL     1       7.795   5.146  12.649  0.00  0.00    +0.000 A 
ATOM     24  C   UNL     1       7.094   4.272  11.820  0.00  0.00    +0.000 A 
ATOM     25  C   UNL     1       6.115   3.437  12.358  0.00  0.00    +0.000 A 
ATOM     26  C   UNL     1       5.837   3.473  13.726  0.00  0.00    +0.000 A 
ENDBRANCH  20  21
ENDBRANCH  19  20
ENDBRANCH   4  19
TORSDOF 4
ENDMDL
MODEL 8
REMARK VINA RESULT:      -7.2      3.983      5.926
REMARK  Name = 
REMARK  5 active torsions:
REMARK  status: ('A' for Active; 'I' for Inactive)
REMARK    1  A    between atoms: C_1  and  C_2
REMARK    2  A    between atoms: N_8  and  C_9
REMARK    3  A    between atoms: C_12  and  O_13
REMARK    4  A    between atoms: O_13  and  C_14
REMARK    5  A    between atoms: C_14  and  C_15
REMARK                            x       y       z     vdW  Elec       q    Type
REMARK                         _______ _______ _______ _____ _____    ______ ____
ROOT
ATOM      1  C   UNL     1       2.798   7.051  18.333  0.00  0.00    +0.000 A 
ATOM      2  C   UNL     1       2.361   5.734  18.222  0.00  0.00    +0.000 A 
ATOM      3  C   UNL     1       3.159   4.779  17.586  0.00  0.00    +0.000 A 
ATOM      4  C   UNL     1       4.378   5.180  17.074  0.00  0.00    +0.000 A 
ATOM      5  N   UNL     1       4.811   6.458  17.094  0.00  0.00    +0.000 NA
ATOM      6  C   UNL     1       4.006   7.359  17.711  0.00  0.00    +0.000 A 
ENDROOT
BRANCH   1  14
ATOM      7  C   UNL     1      -1.267  11.175  22.551  0.00  0.00    +0.000 C 
ATOM      8  C   UNL     1      -0.408  12.033  21.625  0.00  0.00    +0.000 C 
ATOM      9  C   UNL     1       0.992  11.475  21.355  0.00  0.00    +0.000 C 
ATOM     10  C   UNL     1       1.043  10.070  20.760  0.00  0.00    +0.000 C 
ATOM     11  N   UNL     1       0.755   9.974  19.328  0.00  0.00    +0.000 N 
ATOM     12  C   UNL     1       1.301   9.027  18.460  0.00  0.00    +0.000 C 
ATOM     13  O   UNL     1       1.059   9.071  17.254  0.00  0.00    +0.000 OA
ATOM     14  N   UNL     1       2.099   8.063  19.036  0.00  0.00    +0.000 N 
ATOM     15  C   UNL     1      -0.101  10.999  18.705  0.00  0.00    +0.000 C 
ATOM     16  C   UNL     1      -1.355  11.368  19.491  0.00  0.00    +0.000 C 
ATOM     17  O   UNL     1      -1.115  12.397  20.445  0.00  0.00    +0.000 OA
ATOM     18  H   UNL     1       2.006   7.926  20.029  0.00  0.00    +0.000 HD
ENDBRANCH   1  14
BRANCH   4  19
ATOM     19  O   UNL     1       5.160   4.205  16.491  0.00  0.00    +0.000 OA
BRANCH  19  20
ATOM     20  C   UNL     1       6.449   4.703  16.137  0.00  0.00    +0.000 C 
BRANCH  20  21
ATOM     21  C   UNL     1       6.638   4.532  14.648  0.00  0.00    +0.000 A 
ATOM     22  C   UNL     1       5.860   3.604  13.942  0.00  0.00    +0.000 A 
ATOM     23  C   UNL     1       6.033   3.432  12.569  0.00  0.00    +0.000 A 
ATOM     24  C   UNL     1       6.991   4.182  11.888  0.00  0.00    +0.000 A 
ATOM     25  C   UNL     1       7.777   5.102  12.581  0.00  0.00    +0.000 A 
ATOM     26  C   UNL     1       7.605   5.275  13.956  0.00  0.00    +0.000 A 
ENDBRANCH  20  21
ENDBRANCH  19  20
ENDBRANCH   4  19
TORSDOF 4
ENDMDL
MODEL 9
REMARK VINA RESULT:      -7.2      1.024      1.321
REMARK  Name = 
REMARK  5 active torsions:
REMARK  status: ('A' for Active; 'I' for Inactive)
REMARK    1  A    between atoms: C_1  and  C_2
REMARK    2  A    between atoms: N_8  and  C_9
REMARK    3  A    between atoms: C_12  and  O_13
REMARK    4  A    between atoms: O_13  and  C_14
REMARK    5  A    between atoms: C_14  and  C_15
REMARK                            x       y       z     vdW  Elec       q    Type
REMARK                         _______ _______ _______ _____ _____    ______ ____
ROOT
ATOM      1  C   UNL     1       0.641   9.816  19.978  0.00  0.00    +0.000 A 
ATOM      2  C   UNL     1       0.990   9.931  18.636  0.00  0.00    +0.000 A 
ATOM      3  C   UNL     1       1.782   8.951  18.029  0.00  0.00    +0.000 A 
ATOM      4  C   UNL     1       2.204   7.882  18.795  0.00  0.00    +0.000 A 
ATOM      5  N   UNL     1       1.950   7.766  20.116  0.00  0.00    +0.000 NA
ATOM      6  C   UNL     1       1.187   8.739  20.673  0.00  0.00    +0.000 A 
ENDROOT
BRANCH   1  14
ATOM      7  C   UNL     1      -4.425  14.337  22.263  0.00  0.00    +0.000 C 
ATOM      8  C   UNL     1      -3.432  14.030  23.382  0.00  0.00    +0.000 C 
ATOM      9  C   UNL     1      -2.909  12.591  23.393  0.00  0.00    +0.000 C 
ATOM     10  C   UNL     1      -2.224  12.125  22.111  0.00  0.00    +0.000 C 
ATOM     11  N   UNL     1      -0.852  12.596  21.915  0.00  0.00    +0.000 N 
ATOM     12  C   UNL     1       0.150  11.894  21.244  0.00  0.00    +0.000 C 
ATOM     13  O   UNL     1       1.298  12.337  21.194  0.00  0.00    +0.000 OA
ATOM     14  N   UNL     1      -0.228  10.709  20.652  0.00  0.00    +0.000 N 
ATOM     15  C   UNL     1      -0.440  13.864  22.541  0.00  0.00    +0.000 C 
ATOM     16  C   UNL     1      -1.437  15.012  22.410  0.00  0.00    +0.000 C 
ATOM     17  O   UNL     1      -2.405  15.011  23.453  0.00  0.00    +0.000 OA
ATOM     18  H   UNL     1      -1.212  10.574  20.490  0.00  0.00    +0.000 HD
ENDBRANCH   1  14
BRANCH   4  19
ATOM     19  O   UNL     1       2.947   6.913  18.155  0.00  0.00    +0.000 OA
BRANCH  19  20
ATOM     20  C   UNL     1       3.511   5.984  19.080  0.00  0.00    +0.000 C 
BRANCH  20  21
ATOM     21  C   UNL     1       2.985   4.605  18.758  0.00  0.00    +0.000 A 
ATOM     22  C   UNL     1       3.802   3.678  18.096  0.00  0.00    +0.000 A 
ATOM     23  C   UNL     1       3.324   2.405  17.785  0.00  0.00    +0.000 A 
ATOM     24  C   UNL     1       2.021   2.048  18.129  0.00  0.00    +0.000 A 
ATOM     25  C   UNL     1       1.196   2.964  18.781  0.00  0.00    +0.000 A 
ATOM     26  C   UNL     1       1.674   4.239  19.092  0.00  0.00    +0.000 A 
ENDBRANCH  20  21
ENDBRANCH  19  20
ENDBRANCH   4  19
TORSDOF 4
ENDMDL
