MODEL 1
REMARK VINA RESULT:      -9.0      0.000      0.000
REMARK  Name = 
REMARK  9 active torsions:
REMARK  status: ('A' for Active; 'I' for Inactive)
REMARK    1  A    between atoms: C_1  and  C_2
REMARK    2  A    between atoms: C_2  and  C_3
REMARK    3  A    between atoms: N_10  and  C_11
REMARK    4  A    between atoms: C_14  and  C_15
REMARK    5  A    between atoms: C_15  and  C_16
REMARK    6  A    between atoms: C_16  and  C_17
REMARK    7  A    between atoms: C_17  and  C_18
REMARK    8  A    between atoms: C_18  and  C_19
REMARK    9  A    between atoms: C_22  and  S_23
REMARK                            x       y       z     vdW  Elec       q    Type
REMARK                         _______ _______ _______ _____ _____    ______ ____
ROOT
ATOM      1  C   UNL     1       2.648   6.511  19.242  0.00  0.00    +0.000 A 
ATOM      2  C   UNL     1       2.075   7.248  20.283  0.00  0.00    +0.000 A 
ATOM      3  C   UNL     1       1.469   8.479  20.057  0.00  0.00    +0.000 A 
ATOM      4  C   UNL     1       1.510   9.055  18.796  0.00  0.00    +0.000 A 
ATOM      5  C   UNL     1       2.071   8.351  17.740  0.00  0.00    +0.000 A 
ATOM      6  C   UNL     1       2.589   7.074  17.964  0.00  0.00    +0.000 A 
ENDROOT
BRANCH   1  16
ATOM      7  C   UNL     1       1.740   3.907  18.030  0.00  0.00    +0.000 C 
ATOM      8  C   UNL     1       2.361   4.061  19.437  0.00  0.00    +0.000 C 
ATOM      9  C   UNL     1       1.212   4.112  20.467  0.00  0.00    +0.000 C 
ATOM     10  N   UNL     1       3.027   2.795  19.735  0.00  0.00    +0.000 NA
ATOM     11  C   UNL     1       4.302   2.757  19.651  0.00  0.00    +0.000 C 
ATOM     12  N   UNL     1       4.936   1.595  19.933  0.00  0.00    +0.000 N 
ATOM     13  N   UNL     1       5.097   3.781  19.259  0.00  0.00    +0.000 NA
ATOM     14  C   UNL     1       4.568   4.961  19.211  0.00  0.00    +0.000 C 
ATOM     15  N   UNL     1       5.408   5.985  18.888  0.00  0.00    +0.000 N 
ATOM     16  N   UNL     1       3.247   5.248  19.475  0.00  0.00    +0.000 N 
ATOM     17  H   UNL     1       4.326   0.797  19.828  0.00  0.00    +0.000 HD
ATOM     18  H   UNL     1       5.826   1.520  19.460  0.00  0.00    +0.000 HD
ATOM     19  H   UNL     1       6.387   5.737  18.937  0.00  0.00    +0.000 HD
ATOM     20  H   UNL     1       5.194   6.874  19.322  0.00  0.00    +0.000 HD
ENDBRANCH   1  16
BRANCH   4  21
ATOM     21  C   UNL     1       0.927  10.432  18.594  0.00  0.00    +0.000 C 
BRANCH  21  22
ATOM     22  C   UNL     1      -0.554  10.471  18.959  0.00  0.00    +0.000 C 
BRANCH  22  23
ATOM     23  C   UNL     1      -1.401  10.065  17.761  0.00  0.00    +0.000 C 
BRANCH  23  24
ATOM     24  C   UNL     1      -2.208  11.259  17.248  0.00  0.00    +0.000 C 
BRANCH  24  25
ATOM     25  C   UNL     1      -3.470  11.463  18.045  0.00  0.00    +0.000 A 
ATOM     26  C   UNL     1      -3.445  12.244  19.209  0.00  0.00    +0.000 A 
ATOM     27  C   UNL     1      -4.598  12.406  19.975  0.00  0.00    +0.000 A 
ATOM     28  C   UNL     1      -5.776  11.774  19.573  0.00  0.00    +0.000 A 
ATOM     29  C   UNL     1      -5.824  10.999  18.413  0.00  0.00    +0.000 A 
ATOM     30  C   UNL     1      -4.670  10.852  17.647  0.00  0.00    +0.000 A 
BRANCH  28  31
ATOM     31  S   UNL     1      -7.245  11.982  20.529  0.00  0.00    +0.000 S 
ATOM     32  O   UNL     1      -7.903  13.183  20.081  0.00  0.00    +0.000 OA
ATOM     33  O   UNL     1      -7.916  10.693  20.583  0.00  0.00    +0.000 OA
ATOM     34  F   UNL     1      -6.780  12.279  22.019  0.00  0.00    +0.000 F 
ENDBRANCH  28  31
ENDBRANCH  24  25
ENDBRANCH  23  24
ENDBRANCH  22  23
ENDBRANCH  21  22
ENDBRANCH   4  21
TORSDOF 7
ENDMDL
MODEL 2
REMARK VINA RESULT:      -8.9      1.088      1.641
REMARK  Name = 
REMARK  9 active torsions:
REMARK  status: ('A' for Active; 'I' for Inactive)
REMARK    1  A    between atoms: C_1  and  C_2
REMARK    2  A    between atoms: C_2  and  C_3
REMARK    3  A    between atoms: N_10  and  C_11
REMARK    4  A    between atoms: C_14  and  C_15
REMARK    5  A    between atoms: C_15  and  C_16
REMARK    6  A    between atoms: C_16  and  C_17
REMARK    7  A    between atoms: C_17  and  C_18
REMARK    8  A    between atoms: C_18  and  C_19
REMARK    9  A    between atoms: C_22  and  S_23
REMARK                            x       y       z     vdW  Elec       q    Type
REMARK                         _______ _______ _______ _____ _____    ______ ____
ROOT
ATOM      1  C   UNL     1       2.735   6.451  19.284  0.00  0.00    +0.000 A 
ATOM      2  C   UNL     1       2.758   7.048  18.020  0.00  0.00    +0.000 A 
ATOM      3  C   UNL     1       2.205   8.303  17.796  0.00  0.00    +0.000 A 
ATOM      4  C   UNL     1       1.521   8.955  18.812  0.00  0.00    +0.000 A 
ATOM      5  C   UNL     1       1.478   8.392  20.079  0.00  0.00    +0.000 A 
ATOM      6  C   UNL     1       2.122   7.175  20.312  0.00  0.00    +0.000 A 
ENDROOT
BRANCH   1  16
ATOM      7  C   UNL     1       1.853   3.879  17.988  0.00  0.00    +0.000 C 
ATOM      8  C   UNL     1       2.426   4.000  19.419  0.00  0.00    +0.000 C 
ATOM      9  C   UNL     1       1.241   4.038  20.408  0.00  0.00    +0.000 C 
ATOM     10  N   UNL     1       3.073   2.723  19.714  0.00  0.00    +0.000 NA
ATOM     11  C   UNL     1       4.349   2.678  19.674  0.00  0.00    +0.000 C 
ATOM     12  N   UNL     1       4.965   1.506  19.954  0.00  0.00    +0.000 N 
ATOM     13  N   UNL     1       5.163   3.703  19.331  0.00  0.00    +0.000 NA
ATOM     14  C   UNL     1       4.644   4.889  19.288  0.00  0.00    +0.000 C 
ATOM     15  N   UNL     1       5.502   5.912  19.016  0.00  0.00    +0.000 N 
ATOM     16  N   UNL     1       3.317   5.179  19.512  0.00  0.00    +0.000 N 
ATOM     17  H   UNL     1       4.354   0.714  19.812  0.00  0.00    +0.000 HD
ATOM     18  H   UNL     1       5.871   1.433  19.511  0.00  0.00    +0.000 HD
ATOM     19  H   UNL     1       6.477   5.657  19.095  0.00  0.00    +0.000 HD
ATOM     20  H   UNL     1       5.279   6.794  19.460  0.00  0.00    +0.000 HD
ENDBRANCH   1  16
BRANCH   4  21
ATOM     21  C   UNL     1       0.851  10.275  18.521  0.00  0.00    +0.000 C 
BRANCH  21  22
ATOM     22  C   UNL     1       1.037  11.262  19.668  0.00  0.00    +0.000 C 
BRANCH  22  23
ATOM     23  C   UNL     1      -0.134  12.234  19.721  0.00  0.00    +0.000 C 
BRANCH  23  24
ATOM     24  C   UNL     1      -0.911  12.208  18.404  0.00  0.00    +0.000 C 
BRANCH  24  25
ATOM     25  C   UNL     1      -2.386  12.005  18.630  0.00  0.00    +0.000 A 
ATOM     26  C   UNL     1      -3.002  12.548  19.768  0.00  0.00    +0.000 A 
ATOM     27  C   UNL     1      -4.358  12.332  20.006  0.00  0.00    +0.000 A 
ATOM     28  C   UNL     1      -5.093  11.562  19.104  0.00  0.00    +0.000 A 
ATOM     29  C   UNL     1      -4.502  11.020  17.962  0.00  0.00    +0.000 A 
ATOM     30  C   UNL     1      -3.148  11.251  17.724  0.00  0.00    +0.000 A 
BRANCH  28  31
ATOM     31  S   UNL     1      -6.814  11.292  19.391  0.00  0.00    +0.000 S 
ATOM     32  O   UNL     1      -6.978  10.881  20.762  0.00  0.00    +0.000 OA
ATOM     33  O   UNL     1      -7.533  12.420  18.819  0.00  0.00    +0.000 OA
ATOM     34  F   UNL     1      -7.232  10.036  18.513  0.00  0.00    +0.000 F 
ENDBRANCH  28  31
ENDBRANCH  24  25
ENDBRANCH  23  24
ENDBRANCH  22  23
ENDBRANCH  21  22
ENDBRANCH   4  21
TORSDOF 7
ENDMDL
MODEL 3
REMARK VINA RESULT:      -8.8      2.422      2.953
REMARK  Name = 
REMARK  9 active torsions:
REMARK  status: ('A' for Active; 'I' for Inactive)
REMARK    1  A    between atoms: C_1  and  C_2
REMARK    2  A    between atoms: C_2  and  C_3
REMARK    3  A    between atoms: N_10  and  C_11
REMARK    4  A    between atoms: C_14  and  C_15
REMARK    5  A    between atoms: C_15  and  C_16
REMARK    6  A    between atoms: C_16  and  C_17
REMARK    7  A    between atoms: C_17  and  C_18
REMARK    8  A    between atoms: C_18  and  C_19
REMARK    9  A    between atoms: C_22  and  S_23
REMARK                            x       y       z     vdW  Elec       q    Type
REMARK                         _______ _______ _______ _____ _____    ______ ____
ROOT
ATOM      1  C   UNL     1       2.903   6.281  19.201  0.00  0.00    +0.000 A 
ATOM      2  C   UNL     1       3.036   6.880  17.945  0.00  0.00    +0.000 A 
ATOM      3  C   UNL     1       2.517   8.141  17.680  0.00  0.00    +0.000 A 
ATOM      4  C   UNL     1       1.759   8.798  18.638  0.00  0.00    +0.000 A 
ATOM      5  C   UNL     1       1.606   8.233  19.896  0.00  0.00    +0.000 A 
ATOM      6  C   UNL     1       2.215   7.009  20.177  0.00  0.00    +0.000 A 
ENDROOT
BRANCH   1  16
ATOM      7  C   UNL     1       2.058   3.710  17.876  0.00  0.00    +0.000 C 
ATOM      8  C   UNL     1       2.549   3.836  19.337  0.00  0.00    +0.000 C 
ATOM      9  C   UNL     1       1.309   3.900  20.256  0.00  0.00    +0.000 C 
ATOM     10  N   UNL     1       3.157   2.552  19.679  0.00  0.00    +0.000 NA
ATOM     11  C   UNL     1       4.433   2.487  19.713  0.00  0.00    +0.000 C 
ATOM     12  N   UNL     1       5.013   1.309  20.038  0.00  0.00    +0.000 N 
ATOM     13  N   UNL     1       5.282   3.497  19.410  0.00  0.00    +0.000 NA
ATOM     14  C   UNL     1       4.785   4.690  19.328  0.00  0.00    +0.000 C 
ATOM     15  N   UNL     1       5.673   5.698  19.097  0.00  0.00    +0.000 N 
ATOM     16  N   UNL     1       3.451   5.002  19.472  0.00  0.00    +0.000 N 
ATOM     17  H   UNL     1       4.399   0.525  19.867  0.00  0.00    +0.000 HD
ATOM     18  H   UNL     1       5.942   1.218  19.649  0.00  0.00    +0.000 HD
ATOM     19  H   UNL     1       6.637   5.428  19.235  0.00  0.00    +0.000 HD
ATOM     20  H   UNL     1       5.438   6.586  19.521  0.00  0.00    +0.000 HD
ENDBRANCH   1  16
BRANCH   4  21
ATOM     21  C   UNL     1       1.128  10.126  18.297  0.00  0.00    +0.000 C 
BRANCH  21  22
ATOM     22  C   UNL     1      -0.323   9.959  17.859  0.00  0.00    +0.000 C 
BRANCH  22  23
ATOM     23  C   UNL     1      -1.252  10.659  18.842  0.00  0.00    +0.000 C 
BRANCH  23  24
ATOM     24  C   UNL     1      -0.445  11.357  19.938  0.00  0.00    +0.000 C 
BRANCH  24  25
ATOM     25  C   UNL     1      -1.335  11.925  21.012  0.00  0.00    +0.000 A 
ATOM     26  C   UNL     1      -0.895  11.956  22.343  0.00  0.00    +0.000 A 
ATOM     27  C   UNL     1      -1.727  12.443  23.349  0.00  0.00    +0.000 A 
ATOM     28  C   UNL     1      -3.006  12.890  23.018  0.00  0.00    +0.000 A 
ATOM     29  C   UNL     1      -3.460  12.876  21.698  0.00  0.00    +0.000 A 
ATOM     30  C   UNL     1      -2.618  12.399  20.696  0.00  0.00    +0.000 A 
BRANCH  28  31
ATOM     31  S   UNL     1      -4.063  13.519  24.284  0.00  0.00    +0.000 S 
ATOM     32  O   UNL     1      -3.291  14.418  25.104  0.00  0.00    +0.000 OA
ATOM     33  O   UNL     1      -5.313  13.912  23.653  0.00  0.00    +0.000 OA
ATOM     34  F   UNL     1      -4.431  12.291  25.222  0.00  0.00    +0.000 F 
ENDBRANCH  28  31
ENDBRANCH  24  25
ENDBRANCH  23  24
ENDBRANCH  22  23
ENDBRANCH  21  22
ENDBRANCH   4  21
TORSDOF 7
ENDMDL
MODEL 4
REMARK VINA RESULT:      -8.8      2.051      2.768
REMARK  Name = 
REMARK  9 active torsions:
REMARK  status: ('A' for Active; 'I' for Inactive)
REMARK    1  A    between atoms: C_1  and  C_2
REMARK    2  A    between atoms: C_2  and  C_3
REMARK    3  A    between atoms: N_10  and  C_11
REMARK    4  A    between atoms: C_14  and  C_15
REMARK    5  A    between atoms: C_15  and  C_16
REMARK    6  A    between atoms: C_16  and  C_17
REMARK    7  A    between atoms: C_17  and  C_18
REMARK    8  A    between atoms: C_18  and  C_19
REMARK    9  A    between atoms: C_22  and  S_23
REMARK                            x       y       z     vdW  Elec       q    Type
REMARK                         _______ _______ _______ _____ _____    ______ ____
ROOT
ATOM      1  C   UNL     1       2.799   6.344  19.293  0.00  0.00    +0.000 A 
ATOM      2  C   UNL     1       2.872   6.965  18.042  0.00  0.00    +0.000 A 
ATOM      3  C   UNL     1       2.336   8.228  17.823  0.00  0.00    +0.000 A 
ATOM      4  C   UNL     1       1.620   8.865  18.827  0.00  0.00    +0.000 A 
ATOM      5  C   UNL     1       1.527   8.277  20.080  0.00  0.00    +0.000 A 
ATOM      6  C   UNL     1       2.153   7.051  20.311  0.00  0.00    +0.000 A 
ENDROOT
BRANCH   1  16
ATOM      7  C   UNL     1       1.893   3.790  17.976  0.00  0.00    +0.000 C 
ATOM      8  C   UNL     1       2.459   3.895  19.410  0.00  0.00    +0.000 C 
ATOM      9  C   UNL     1       1.269   3.942  20.394  0.00  0.00    +0.000 C 
ATOM     10  N   UNL     1       3.088   2.609  19.702  0.00  0.00    +0.000 NA
ATOM     11  C   UNL     1       4.364   2.548  19.668  0.00  0.00    +0.000 C 
ATOM     12  N   UNL     1       4.964   1.367  19.945  0.00  0.00    +0.000 N 
ATOM     13  N   UNL     1       5.193   3.565  19.336  0.00  0.00    +0.000 NA
ATOM     14  C   UNL     1       4.689   4.757  19.298  0.00  0.00    +0.000 C 
ATOM     15  N   UNL     1       5.561   5.772  19.036  0.00  0.00    +0.000 N 
ATOM     16  N   UNL     1       3.364   5.063  19.516  0.00  0.00    +0.000 N 
ATOM     17  H   UNL     1       4.344   0.584  19.794  0.00  0.00    +0.000 HD
ATOM     18  H   UNL     1       5.871   1.286  19.506  0.00  0.00    +0.000 HD
ATOM     19  H   UNL     1       6.532   5.504  19.119  0.00  0.00    +0.000 HD
ATOM     20  H   UNL     1       5.346   6.653  19.484  0.00  0.00    +0.000 HD
ENDBRANCH   1  16
BRANCH   4  21
ATOM     21  C   UNL     1       0.969  10.195  18.538  0.00  0.00    +0.000 C 
BRANCH  21  22
ATOM     22  C   UNL     1      -0.201  10.461  19.478  0.00  0.00    +0.000 C 
BRANCH  22  23
ATOM     23  C   UNL     1      -0.178  11.909  19.950  0.00  0.00    +0.000 C 
BRANCH  23  24
ATOM     24  C   UNL     1      -0.285  11.977  21.474  0.00  0.00    +0.000 C 
BRANCH  24  25
ATOM     25  C   UNL     1      -1.699  12.236  21.924  0.00  0.00    +0.000 A 
ATOM     26  C   UNL     1      -2.632  12.776  21.027  0.00  0.00    +0.000 A 
ATOM     27  C   UNL     1      -3.931  13.056  21.444  0.00  0.00    +0.000 A 
ATOM     28  C   UNL     1      -4.290  12.801  22.769  0.00  0.00    +0.000 A 
ATOM     29  C   UNL     1      -3.380  12.256  23.675  0.00  0.00    +0.000 A 
ATOM     30  C   UNL     1      -2.086  11.967  23.246  0.00  0.00    +0.000 A 
BRANCH  28  31
ATOM     31  S   UNL     1      -5.937  13.141  23.304  0.00  0.00    +0.000 S 
ATOM     32  O   UNL     1      -6.381  12.036  24.114  0.00  0.00    +0.000 OA
ATOM     33  O   UNL     1      -5.967  14.518  23.773  0.00  0.00    +0.000 OA
ATOM     34  F   UNL     1      -6.853  13.118  22.006  0.00  0.00    +0.000 F 
ENDBRANCH  28  31
ENDBRANCH  24  25
ENDBRANCH  23  24
ENDBRANCH  22  23
ENDBRANCH  21  22
ENDBRANCH   4  21
TORSDOF 7
ENDMDL
MODEL 5
REMARK VINA RESULT:      -8.8      1.287      1.638
REMARK  Name = 
REMARK  9 active torsions:
REMARK  status: ('A' for Active; 'I' for Inactive)
REMARK    1  A    between atoms: C_1  and  C_2
REMARK    2  A    between atoms: C_2  and  C_3
REMARK    3  A    between atoms: N_10  and  C_11
REMARK    4  A    between atoms: C_14  and  C_15
REMARK    5  A    between atoms: C_15  and  C_16
REMARK    6  A    between atoms: C_16  and  C_17
REMARK    7  A    between atoms: C_17  and  C_18
REMARK    8  A    between atoms: C_18  and  C_19
REMARK    9  A    between atoms: C_22  and  S_23
REMARK                            x       y       z     vdW  Elec       q    Type
REMARK                         _______ _______ _______ _____ _____    ______ ____
ROOT
ATOM      1  C   UNL     1       2.681   6.390  19.319  0.00  0.00    +0.000 A 
ATOM      2  C   UNL     1       2.053   7.088  20.354  0.00  0.00    +0.000 A 
ATOM      3  C   UNL     1       1.445   8.319  20.139  0.00  0.00    +0.000 A 
ATOM      4  C   UNL     1       1.537   8.935  18.900  0.00  0.00    +0.000 A 
ATOM      5  C   UNL     1       2.155   8.271  17.850  0.00  0.00    +0.000 A 
ATOM      6  C   UNL     1       2.676   6.993  18.058  0.00  0.00    +0.000 A 
ENDROOT
BRANCH   1  16
ATOM      7  C   UNL     1       1.815   3.805  18.037  0.00  0.00    +0.000 C 
ATOM      8  C   UNL     1       2.405   3.935  19.459  0.00  0.00    +0.000 C 
ATOM      9  C   UNL     1       1.234   3.959  20.466  0.00  0.00    +0.000 C 
ATOM     10  N   UNL     1       3.073   2.667  19.747  0.00  0.00    +0.000 NA
ATOM     11  C   UNL     1       4.349   2.637  19.689  0.00  0.00    +0.000 C 
ATOM     12  N   UNL     1       4.983   1.474  19.962  0.00  0.00    +0.000 N 
ATOM     13  N   UNL     1       5.145   3.673  19.334  0.00  0.00    +0.000 NA
ATOM     14  C   UNL     1       4.611   4.851  19.298  0.00  0.00    +0.000 C 
ATOM     15  N   UNL     1       5.452   5.886  19.013  0.00  0.00    +0.000 N 
ATOM     16  N   UNL     1       3.283   5.125  19.540  0.00  0.00    +0.000 N 
ATOM     17  H   UNL     1       4.380   0.675  19.829  0.00  0.00    +0.000 HD
ATOM     18  H   UNL     1       5.884   1.412  19.507  0.00  0.00    +0.000 HD
ATOM     19  H   UNL     1       6.431   5.643  19.078  0.00  0.00    +0.000 HD
ATOM     20  H   UNL     1       5.223   6.765  19.459  0.00  0.00    +0.000 HD
ENDBRANCH   1  16
BRANCH   4  21
ATOM     21  C   UNL     1       0.949  10.312  18.715  0.00  0.00    +0.000 C 
BRANCH  21  22
ATOM     22  C   UNL     1       0.937  11.095  20.023  0.00  0.00    +0.000 C 
BRANCH  22  23
ATOM     23  C   UNL     1      -0.476  11.151  20.590  0.00  0.00    +0.000 C 
BRANCH  23  24
ATOM     24  C   UNL     1      -1.114  12.511  20.303  0.00  0.00    +0.000 C 
BRANCH  24  25
ATOM     25  C   UNL     1      -2.543  12.372  19.848  0.00  0.00    +0.000 A 
ATOM     26  C   UNL     1      -3.585  12.851  20.655  0.00  0.00    +0.000 A 
ATOM     27  C   UNL     1      -4.912  12.692  20.261  0.00  0.00    +0.000 A 
ATOM     28  C   UNL     1      -5.192  12.042  19.058  0.00  0.00    +0.000 A 
ATOM     29  C   UNL     1      -4.169  11.565  18.236  0.00  0.00    +0.000 A 
ATOM     30  C   UNL     1      -2.844  11.739  18.632  0.00  0.00    +0.000 A 
BRANCH  28  31
ATOM     31  S   UNL     1      -6.869  11.845  18.545  0.00  0.00    +0.000 S 
ATOM     32  O   UNL     1      -7.720  12.267  19.628  0.00  0.00    +0.000 OA
ATOM     33  O   UNL     1      -6.981  12.393  17.201  0.00  0.00    +0.000 OA
ATOM     34  F   UNL     1      -7.118  10.284  18.387  0.00  0.00    +0.000 F 
ENDBRANCH  28  31
ENDBRANCH  24  25
ENDBRANCH  23  24
ENDBRANCH  22  23
ENDBRANCH  21  22
ENDBRANCH   4  21
TORSDOF 7
ENDMDL
MODEL 6
REMARK VINA RESULT:      -8.8      1.943      2.174
REMARK  Name = 
REMARK  9 active torsions:
REMARK  status: ('A' for Active; 'I' for Inactive)
REMARK    1  A    between atoms: C_1  and  C_2
REMARK    2  A    between atoms: C_2  and  C_3
REMARK    3  A    between atoms: N_10  and  C_11
REMARK    4  A    between atoms: C_14  and  C_15
REMARK    5  A    between atoms: C_15  and  C_16
REMARK    6  A    between atoms: C_16  and  C_17
REMARK    7  A    between atoms: C_17  and  C_18
REMARK    8  A    between atoms: C_18  and  C_19
REMARK    9  A    between atoms: C_22  and  S_23
REMARK                            x       y       z     vdW  Elec       q    Type
REMARK                         _______ _______ _______ _____ _____    ______ ____
ROOT
ATOM      1  C   UNL     1       2.589   6.262  19.636  0.00  0.00    +0.000 A 
ATOM      2  C   UNL     1       1.999   6.881  20.742  0.00  0.00    +0.000 A 
ATOM      3  C   UNL     1       1.367   8.114  20.637  0.00  0.00    +0.000 A 
ATOM      4  C   UNL     1       1.398   8.813  19.438  0.00  0.00    +0.000 A 
ATOM      5  C   UNL     1       1.977   8.230  18.321  0.00  0.00    +0.000 A 
ATOM      6  C   UNL     1       2.522   6.948  18.419  0.00  0.00    +0.000 A 
ENDROOT
BRANCH   1  16
ATOM      7  C   UNL     1       1.712   3.762  18.203  0.00  0.00    +0.000 C 
ATOM      8  C   UNL     1       2.351   3.799  19.610  0.00  0.00    +0.000 C 
ATOM      9  C   UNL     1       1.215   3.734  20.655  0.00  0.00    +0.000 C 
ATOM     10  N   UNL     1       3.044   2.525  19.783  0.00  0.00    +0.000 NA
ATOM     11  C   UNL     1       4.318   2.519  19.679  0.00  0.00    +0.000 C 
ATOM     12  N   UNL     1       4.977   1.350  19.847  0.00  0.00    +0.000 N 
ATOM     13  N   UNL     1       5.088   3.590  19.372  0.00  0.00    +0.000 NA
ATOM     14  C   UNL     1       4.537   4.760  19.439  0.00  0.00    +0.000 C 
ATOM     15  N   UNL     1       5.353   5.825  19.199  0.00  0.00    +0.000 N 
ATOM     16  N   UNL     1       3.215   4.995  19.745  0.00  0.00    +0.000 N 
ATOM     17  H   UNL     1       4.380   0.552  19.677  0.00  0.00    +0.000 HD
ATOM     18  H   UNL     1       5.861   1.335  19.357  0.00  0.00    +0.000 HD
ATOM     19  H   UNL     1       6.338   5.593  19.214  0.00  0.00    +0.000 HD
ATOM     20  H   UNL     1       5.129   6.666  19.715  0.00  0.00    +0.000 HD
ENDBRANCH   1  16
BRANCH   4  21
ATOM     21  C   UNL     1       0.786  10.191  19.372  0.00  0.00    +0.000 C 
BRANCH  21  22
ATOM     22  C   UNL     1      -0.078  10.359  18.127  0.00  0.00    +0.000 C 
BRANCH  22  23
ATOM     23  C   UNL     1      -1.542  10.505  18.520  0.00  0.00    +0.000 C 
BRANCH  23  24
ATOM     24  C   UNL     1      -1.924  11.982  18.623  0.00  0.00    +0.000 C 
BRANCH  24  25
ATOM     25  C   UNL     1      -2.631  12.286  19.918  0.00  0.00    +0.000 A 
ATOM     26  C   UNL     1      -1.932  12.215  21.131  0.00  0.00    +0.000 A 
ATOM     27  C   UNL     1      -2.588  12.456  22.338  0.00  0.00    +0.000 A 
ATOM     28  C   UNL     1      -3.950  12.760  22.323  0.00  0.00    +0.000 A 
ATOM     29  C   UNL     1      -4.662  12.844  21.126  0.00  0.00    +0.000 A 
ATOM     30  C   UNL     1      -3.996  12.613  19.923  0.00  0.00    +0.000 A 
BRANCH  28  31
ATOM     31  S   UNL     1      -4.786  13.078  23.845  0.00  0.00    +0.000 S 
ATOM     32  O   UNL     1      -4.569  14.459  24.193  0.00  0.00    +0.000 OA
ATOM     33  O   UNL     1      -6.114  12.494  23.743  0.00  0.00    +0.000 OA
ATOM     34  F   UNL     1      -4.037  12.231  24.962  0.00  0.00    +0.000 F 
ENDBRANCH  28  31
ENDBRANCH  24  25
ENDBRANCH  23  24
ENDBRANCH  22  23
ENDBRANCH  21  22
ENDBRANCH   4  21
TORSDOF 7
ENDMDL
MODEL 7
REMARK VINA RESULT:      -8.7      1.057      1.302
REMARK  Name = 
REMARK  9 active torsions:
REMARK  status: ('A' for Active; 'I' for Inactive)
REMARK    1  A    between atoms: C_1  and  C_2
REMARK    2  A    between atoms: C_2  and  C_3
REMARK    3  A    between atoms: N_10  and  C_11
REMARK    4  A    between atoms: C_14  and  C_15
REMARK    5  A    between atoms: C_15  and  C_16
REMARK    6  A    between atoms: C_16  and  C_17
REMARK    7  A    between atoms: C_17  and  C_18
REMARK    8  A    between atoms: C_18  and  C_19
REMARK    9  A    between atoms: C_22  and  S_23
REMARK                            x       y       z     vdW  Elec       q    Type
REMARK                         _______ _______ _______ _____ _____    ______ ____
ROOT
ATOM      1  C   UNL     1       2.718   6.317  19.335  0.00  0.00    +0.000 A 
ATOM      2  C   UNL     1       2.083   7.005  20.372  0.00  0.00    +0.000 A 
ATOM      3  C   UNL     1       1.469   8.234  20.164  0.00  0.00    +0.000 A 
ATOM      4  C   UNL     1       1.563   8.860  18.928  0.00  0.00    +0.000 A 
ATOM      5  C   UNL     1       2.187   8.206  17.876  0.00  0.00    +0.000 A 
ATOM      6  C   UNL     1       2.715   6.929  18.077  0.00  0.00    +0.000 A 
ENDROOT
BRANCH   1  16
ATOM      7  C   UNL     1       1.902   3.746  17.993  0.00  0.00    +0.000 C 
ATOM      8  C   UNL     1       2.460   3.858  19.430  0.00  0.00    +0.000 C 
ATOM      9  C   UNL     1       1.267   3.857  20.410  0.00  0.00    +0.000 C 
ATOM     10  N   UNL     1       3.132   2.591  19.713  0.00  0.00    +0.000 NA
ATOM     11  C   UNL     1       4.409   2.573  19.682  0.00  0.00    +0.000 C 
ATOM     12  N   UNL     1       5.047   1.411  19.952  0.00  0.00    +0.000 N 
ATOM     13  N   UNL     1       5.204   3.621  19.361  0.00  0.00    +0.000 NA
ATOM     14  C   UNL     1       4.661   4.795  19.332  0.00  0.00    +0.000 C 
ATOM     15  N   UNL     1       5.499   5.841  19.082  0.00  0.00    +0.000 N 
ATOM     16  N   UNL     1       3.326   5.054  19.549  0.00  0.00    +0.000 N 
ATOM     17  H   UNL     1       4.454   0.608  19.792  0.00  0.00    +0.000 HD
ATOM     18  H   UNL     1       5.958   1.363  19.515  0.00  0.00    +0.000 HD
ATOM     19  H   UNL     1       6.479   5.604  19.165  0.00  0.00    +0.000 HD
ATOM     20  H   UNL     1       5.253   6.710  19.537  0.00  0.00    +0.000 HD
ENDBRANCH   1  16
BRANCH   4  21
ATOM     21  C   UNL     1       0.968  10.235  18.751  0.00  0.00    +0.000 C 
BRANCH  21  22
ATOM     22  C   UNL     1      -0.359  10.370  19.490  0.00  0.00    +0.000 C 
BRANCH  22  23
ATOM     23  C   UNL     1      -1.497  10.558  18.496  0.00  0.00    +0.000 C 
BRANCH  23  24
ATOM     24  C   UNL     1      -1.959  12.015  18.482  0.00  0.00    +0.000 C 
BRANCH  24  25
ATOM     25  C   UNL     1      -3.180  12.222  19.340  0.00  0.00    +0.000 A 
ATOM     26  C   UNL     1      -3.037  12.629  20.675  0.00  0.00    +0.000 A 
ATOM     27  C   UNL     1      -4.158  12.784  21.488  0.00  0.00    +0.000 A 
ATOM     28  C   UNL     1      -5.424  12.522  20.961  0.00  0.00    +0.000 A 
ATOM     29  C   UNL     1      -5.588  12.125  19.633  0.00  0.00    +0.000 A 
ATOM     30  C   UNL     1      -4.463  11.984  18.823  0.00  0.00    +0.000 A 
BRANCH  28  31
ATOM     31  S   UNL     1      -6.850  12.728  21.979  0.00  0.00    +0.000 S 
ATOM     32  O   UNL     1      -7.432  11.428  22.200  0.00  0.00    +0.000 OA
ATOM     33  O   UNL     1      -6.482  13.617  23.070  0.00  0.00    +0.000 OA
ATOM     34  F   UNL     1      -7.914  13.534  21.118  0.00  0.00    +0.000 F 
ENDBRANCH  28  31
ENDBRANCH  24  25
ENDBRANCH  23  24
ENDBRANCH  22  23
ENDBRANCH  21  22
ENDBRANCH   4  21
TORSDOF 7
ENDMDL
MODEL 8
REMARK VINA RESULT:      -8.7      0.874      1.356
REMARK  Name = 
REMARK  9 active torsions:
REMARK  status: ('A' for Active; 'I' for Inactive)
REMARK    1  A    between atoms: C_1  and  C_2
REMARK    2  A    between atoms: C_2  and  C_3
REMARK    3  A    between atoms: N_10  and  C_11
REMARK    4  A    between atoms: C_14  and  C_15
REMARK    5  A    between atoms: C_15  and  C_16
REMARK    6  A    between atoms: C_16  and  C_17
REMARK    7  A    between atoms: C_17  and  C_18
REMARK    8  A    between atoms: C_18  and  C_19
REMARK    9  A    between atoms: C_22  and  S_23
REMARK                            x       y       z     vdW  Elec       q    Type
REMARK                         _______ _______ _______ _____ _____    ______ ____
ROOT
ATOM      1  C   UNL     1       2.802   6.338  19.247  0.00  0.00    +0.000 A 
ATOM      2  C   UNL     1       2.833   6.924  17.979  0.00  0.00    +0.000 A 
ATOM      3  C   UNL     1       2.293   8.183  17.743  0.00  0.00    +0.000 A 
ATOM      4  C   UNL     1       1.614   8.850  18.753  0.00  0.00    +0.000 A 
ATOM      5  C   UNL     1       1.563   8.298  20.024  0.00  0.00    +0.000 A 
ATOM      6  C   UNL     1       2.194   7.076  20.268  0.00  0.00    +0.000 A 
ENDROOT
BRANCH   1  16
ATOM      7  C   UNL     1       1.966   3.781  17.892  0.00  0.00    +0.000 C 
ATOM      8  C   UNL     1       2.481   3.887  19.346  0.00  0.00    +0.000 C 
ATOM      9  C   UNL     1       1.257   3.919  20.288  0.00  0.00    +0.000 C 
ATOM     10  N   UNL     1       3.112   2.605  19.655  0.00  0.00    +0.000 NA
ATOM     11  C   UNL     1       4.389   2.556  19.665  0.00  0.00    +0.000 C 
ATOM     12  N   UNL     1       4.990   1.380  19.960  0.00  0.00    +0.000 N 
ATOM     13  N   UNL     1       5.219   3.583  19.365  0.00  0.00    +0.000 NA
ATOM     14  C   UNL     1       4.706   4.770  19.313  0.00  0.00    +0.000 C 
ATOM     15  N   UNL     1       5.577   5.793  19.085  0.00  0.00    +0.000 N 
ATOM     16  N   UNL     1       3.371   5.062  19.486  0.00  0.00    +0.000 N 
ATOM     17  H   UNL     1       4.383   0.592  19.785  0.00  0.00    +0.000 HD
ATOM     18  H   UNL     1       5.912   1.309  19.552  0.00  0.00    +0.000 HD
ATOM     19  H   UNL     1       6.547   5.534  19.201  0.00  0.00    +0.000 HD
ATOM     20  H   UNL     1       5.338   6.671  19.528  0.00  0.00    +0.000 HD
ENDBRANCH   1  16
BRANCH   4  21
ATOM     21  C   UNL     1       0.957  10.174  18.450  0.00  0.00    +0.000 C 
BRANCH  21  22
ATOM     22  C   UNL     1       0.950  11.087  19.672  0.00  0.00    +0.000 C 
BRANCH  22  23
ATOM     23  C   UNL     1      -0.105  12.174  19.509  0.00  0.00    +0.000 C 
BRANCH  23  24
ATOM     24  C   UNL     1      -1.099  11.795  18.411  0.00  0.00    +0.000 C 
BRANCH  24  25
ATOM     25  C   UNL     1      -2.525  11.969  18.863  0.00  0.00    +0.000 A 
ATOM     26  C   UNL     1      -2.798  12.531  20.119  0.00  0.00    +0.000 A 
ATOM     27  C   UNL     1      -4.112  12.660  20.563  0.00  0.00    +0.000 A 
ATOM     28  C   UNL     1      -5.153  12.215  19.747  0.00  0.00    +0.000 A 
ATOM     29  C   UNL     1      -4.904  11.661  18.490  0.00  0.00    +0.000 A 
ATOM     30  C   UNL     1      -3.587  11.547  18.049  0.00  0.00    +0.000 A 
BRANCH  28  31
ATOM     31  S   UNL     1      -6.822  12.384  20.296  0.00  0.00    +0.000 S 
ATOM     32  O   UNL     1      -7.683  12.282  19.145  0.00  0.00    +0.000 OA
ATOM     33  O   UNL     1      -6.981  11.543  21.472  0.00  0.00    +0.000 OA
ATOM     34  F   UNL     1      -6.981  13.876  20.819  0.00  0.00    +0.000 F 
ENDBRANCH  28  31
ENDBRANCH  24  25
ENDBRANCH  23  24
ENDBRANCH  22  23
ENDBRANCH  21  22
ENDBRANCH   4  21
TORSDOF 7
ENDMDL
MODEL 9
REMARK VINA RESULT:      -8.7      2.265      2.667
REMARK  Name = 
REMARK  9 active torsions:
REMARK  status: ('A' for Active; 'I' for Inactive)
REMARK    1  A    between atoms: C_1  and  C_2
REMARK    2  A    between atoms: C_2  and  C_3
REMARK    3  A    between atoms: N_10  and  C_11
REMARK    4  A    between atoms: C_14  and  C_15
REMARK    5  A    between atoms: C_15  and  C_16
REMARK    6  A    between atoms: C_16  and  C_17
REMARK    7  A    between atoms: C_17  and  C_18
REMARK    8  A    between atoms: C_18  and  C_19
REMARK    9  A    between atoms: C_22  and  S_23
REMARK                            x       y       z     vdW  Elec       q    Type
REMARK                         _______ _______ _______ _____ _____    ______ ____
ROOT
ATOM      1  C   UNL     1       2.675   6.390  19.247  0.00  0.00    +0.000 A 
ATOM      2  C   UNL     1       2.125   7.170  20.268  0.00  0.00    +0.000 A 
ATOM      3  C   UNL     1       1.513   8.389  20.006  0.00  0.00    +0.000 A 
ATOM      4  C   UNL     1       1.524   8.912  18.720  0.00  0.00    +0.000 A 
ATOM      5  C   UNL     1       2.062   8.165  17.682  0.00  0.00    +0.000 A 
ATOM      6  C   UNL     1       2.586   6.899  17.948  0.00  0.00    +0.000 A 
ENDROOT
BRANCH   1  16
ATOM      7  C   UNL     1       1.837   3.756  18.047  0.00  0.00    +0.000 C 
ATOM      8  C   UNL     1       2.411   3.939  19.471  0.00  0.00    +0.000 C 
ATOM      9  C   UNL     1       1.228   3.992  20.463  0.00  0.00    +0.000 C 
ATOM     10  N   UNL     1       3.082   2.686  19.810  0.00  0.00    +0.000 NA
ATOM     11  C   UNL     1       4.359   2.662  19.767  0.00  0.00    +0.000 C 
ATOM     12  N   UNL     1       4.997   1.513  20.088  0.00  0.00    +0.000 N 
ATOM     13  N   UNL     1       5.153   3.690  19.384  0.00  0.00    +0.000 NA
ATOM     14  C   UNL     1       4.613   4.863  19.301  0.00  0.00    +0.000 C 
ATOM     15  N   UNL     1       5.451   5.891  18.988  0.00  0.00    +0.000 N 
ATOM     16  N   UNL     1       3.281   5.137  19.518  0.00  0.00    +0.000 N 
ATOM     17  H   UNL     1       4.400   0.706  19.976  0.00  0.00    +0.000 HD
ATOM     18  H   UNL     1       5.902   1.441  19.644  0.00  0.00    +0.000 HD
ATOM     19  H   UNL     1       6.431   5.656  19.073  0.00  0.00    +0.000 HD
ATOM     20  H   UNL     1       5.213   6.784  19.401  0.00  0.00    +0.000 HD
ENDBRANCH   1  16
BRANCH   4  21
ATOM     21  C   UNL     1       0.934  10.279  18.475  0.00  0.00    +0.000 C 
BRANCH  21  22
ATOM     22  C   UNL     1       1.561  11.330  19.385  0.00  0.00    +0.000 C 
BRANCH  22  23
ATOM     23  C   UNL     1       0.527  12.381  19.764  0.00  0.00    +0.000 C 
BRANCH  23  24
ATOM     24  C   UNL     1      -0.886  11.865  19.492  0.00  0.00    +0.000 C 
BRANCH  24  25
ATOM     25  C   UNL     1      -1.811  12.134  20.650  0.00  0.00    +0.000 A 
ATOM     26  C   UNL     1      -3.085  12.674  20.418  0.00  0.00    +0.000 A 
ATOM     27  C   UNL     1      -3.933  12.964  21.485  0.00  0.00    +0.000 A 
ATOM     28  C   UNL     1      -3.496  12.718  22.788  0.00  0.00    +0.000 A 
ATOM     29  C   UNL     1      -2.235  12.174  23.040  0.00  0.00    +0.000 A 
ATOM     30  C   UNL     1      -1.398  11.876  21.966  0.00  0.00    +0.000 A 
BRANCH  28  31
ATOM     31  S   UNL     1      -4.567  13.072  24.145  0.00  0.00    +0.000 S 
ATOM     32  O   UNL     1      -5.318  14.258  23.824  0.00  0.00    +0.000 OA
ATOM     33  O   UNL     1      -5.203  11.822  24.535  0.00  0.00    +0.000 OA
ATOM     34  F   UNL     1      -3.636  13.471  25.369  0.00  0.00    +0.000 F 
ENDBRANCH  28  31
ENDBRANCH  24  25
ENDBRANCH  23  24
ENDBRANCH  22  23
ENDBRANCH  21  22
ENDBRANCH   4  21
TORSDOF 7
ENDMDL
