MODEL 1
REMARK VINA RESULT:      -8.4      0.000      0.000
REMARK  Name = 
REMARK  5 active torsions:
REMARK  status: ('A' for Active; 'I' for Inactive)
REMARK    1  A    between atoms: O_1  and  C_2
REMARK    2  A    between atoms: C_2  and  C_3
REMARK    3  A    between atoms: C_6  and  C_7
REMARK    4  A    between atoms: C_11  and  O_12
REMARK    5  A    between atoms: O_12  and  C_13
REMARK                            x       y       z     vdW  Elec       q    Type
REMARK                         _______ _______ _______ _____ _____    ______ ____
ROOT
ATOM      1  C   UNL     1       2.940   5.757  18.636  0.00  0.00    +0.000 A 
ATOM      2  N   UNL     1       2.378   4.718  19.275  0.00  0.00    +0.000 NA
ATOM      3  C   UNL     1       1.628   4.994  20.353  0.00  0.00    +0.000 A 
ATOM      4  C   UNL     1       1.422   6.274  20.803  0.00  0.00    +0.000 A 
ATOM      5  C   UNL     1       1.996   7.268  20.054  0.00  0.00    +0.000 A 
ATOM      6  N   UNL     1       2.768   7.056  18.979  0.00  0.00    +0.000 NA
ENDROOT
BRANCH   1  10
ATOM      7  C   UNL     1       5.641   4.960  15.368  0.00  0.00    +0.000 A 
ATOM      8  C   UNL     1       5.428   6.265  15.814  0.00  0.00    +0.000 A 
ATOM      9  C   UNL     1       4.552   6.504  16.881  0.00  0.00    +0.000 A 
ATOM     10  C   UNL     1       3.881   5.466  17.543  0.00  0.00    +0.000 A 
ATOM     11  C   UNL     1       4.125   4.165  17.087  0.00  0.00    +0.000 A 
ATOM     12  C   UNL     1       4.983   3.903  16.018  0.00  0.00    +0.000 A 
BRANCH   7  13
ATOM     13  C   UNL     1       6.598   4.685  14.253  0.00  0.00    +0.000 C 
BRANCH  13  14
ATOM     14  O   UNL     1       6.382   3.352  13.817  0.00  0.00    +0.000 OA
ATOM     15  H   UNL     1       7.069   2.801  14.239  0.00  0.00    +0.000 HD
ENDBRANCH  13  14
ENDBRANCH   7  13
ENDBRANCH   1  10
BRANCH   5  16
ATOM     16  O   UNL     1       1.849   8.555  20.530  0.00  0.00    +0.000 OA
BRANCH  16  17
ATOM     17  C   UNL     1       1.190   9.566  19.737  0.00  0.00    +0.000 C 
ATOM     18  C   UNL     1       0.337   9.229  18.502  0.00  0.00    +0.000 C 
ATOM     19  N   UNL     1      -0.507  10.324  18.885  0.00  0.00    +0.000 N 
ATOM     20  C   UNL     1      -1.754  10.734  18.387  0.00  0.00    +0.000 A 
ATOM     21  C   UNL     1      -2.106  10.401  17.083  0.00  0.00    +0.000 A 
ATOM     22  C   UNL     1      -3.261  10.930  16.524  0.00  0.00    +0.000 A 
ATOM     23  C   UNL     1      -4.156  11.613  17.339  0.00  0.00    +0.000 A 
ATOM     24  C   UNL     1      -5.429  11.958  16.861  0.00  0.00    +0.000 A 
ATOM     25  C   UNL     1      -6.393  12.444  17.737  0.00  0.00    +0.000 A 
ATOM     26  C   UNL     1      -6.057  12.656  19.069  0.00  0.00    +0.000 A 
ATOM     27  C   UNL     1      -4.754  12.391  19.516  0.00  0.00    +0.000 A 
ATOM     28  C   UNL     1      -3.786  11.842  18.679  0.00  0.00    +0.000 A 
ATOM     29  N   UNL     1      -2.576  11.481  19.163  0.00  0.00    +0.000 NA
ATOM     30  C   UNL     1      -0.053  10.322  20.244  0.00  0.00    +0.000 C 
ENDBRANCH  16  17
ENDBRANCH   5  16
TORSDOF 5
ENDMDL
MODEL 2
REMARK VINA RESULT:      -8.3      6.621      9.950
REMARK  Name = 
REMARK  5 active torsions:
REMARK  status: ('A' for Active; 'I' for Inactive)
REMARK    1  A    between atoms: O_1  and  C_2
REMARK    2  A    between atoms: C_2  and  C_3
REMARK    3  A    between atoms: C_6  and  C_7
REMARK    4  A    between atoms: C_11  and  O_12
REMARK    5  A    between atoms: O_12  and  C_13
REMARK                            x       y       z     vdW  Elec       q    Type
REMARK                         _______ _______ _______ _____ _____    ______ ____
ROOT
ATOM      1  C   UNL     1       4.956   4.469  17.124  0.00  0.00    +0.000 A 
ATOM      2  N   UNL     1       4.692   4.120  15.854  0.00  0.00    +0.000 NA
ATOM      3  C   UNL     1       5.522   4.579  14.907  0.00  0.00    +0.000 A 
ATOM      4  C   UNL     1       6.608   5.368  15.193  0.00  0.00    +0.000 A 
ATOM      5  C   UNL     1       6.823   5.626  16.522  0.00  0.00    +0.000 A 
ATOM      6  N   UNL     1       6.020   5.211  17.513  0.00  0.00    +0.000 NA
ENDROOT
BRANCH   1  10
ATOM      7  C   UNL     1       2.138   3.435  20.224  0.00  0.00    +0.000 A 
ATOM      8  C   UNL     1       2.309   4.763  19.829  0.00  0.00    +0.000 A 
ATOM      9  C   UNL     1       3.223   5.079  18.817  0.00  0.00    +0.000 A 
ATOM     10  C   UNL     1       3.978   4.097  18.159  0.00  0.00    +0.000 A 
ATOM     11  C   UNL     1       3.776   2.771  18.562  0.00  0.00    +0.000 A 
ATOM     12  C   UNL     1       2.880   2.434  19.577  0.00  0.00    +0.000 A 
BRANCH   7  13
ATOM     13  C   UNL     1       1.142   3.078  21.280  0.00  0.00    +0.000 C 
BRANCH  13  14
ATOM     14  O   UNL     1       1.807   2.284  22.250  0.00  0.00    +0.000 OA
ATOM     15  H   UNL     1       1.571   2.649  23.124  0.00  0.00    +0.000 HD
ENDBRANCH  13  14
ENDBRANCH   7  13
ENDBRANCH   1  10
BRANCH   5  16
ATOM     16  O   UNL     1       7.873   6.469  16.820  0.00  0.00    +0.000 OA
BRANCH  16  17
ATOM     17  C   UNL     1       7.677   7.627  17.662  0.00  0.00    +0.000 C 
ATOM     18  C   UNL     1       8.612   7.973  18.833  0.00  0.00    +0.000 C 
ATOM     19  N   UNL     1       8.388   9.350  18.501  0.00  0.00    +0.000 N 
ATOM     20  C   UNL     1       9.004  10.517  18.979  0.00  0.00    +0.000 A 
ATOM     21  C   UNL     1       9.594  10.505  20.239  0.00  0.00    +0.000 A 
ATOM     22  C   UNL     1      10.067  11.688  20.790  0.00  0.00    +0.000 A 
ATOM     23  C   UNL     1      10.135  12.825  19.995  0.00  0.00    +0.000 A 
ATOM     24  C   UNL     1      10.815  13.966  20.447  0.00  0.00    +0.000 A 
ATOM     25  C   UNL     1      11.068  15.018  19.573  0.00  0.00    +0.000 A 
ATOM     26  C   UNL     1      10.573  14.957  18.275  0.00  0.00    +0.000 A 
ATOM     27  C   UNL     1       9.818  13.849  17.861  0.00  0.00    +0.000 A 
ATOM     28  C   UNL     1       9.604  12.753  18.692  0.00  0.00    +0.000 A 
ATOM     29  N   UNL     1       8.979  11.646  18.230  0.00  0.00    +0.000 NA
ATOM     30  C   UNL     1       7.961   9.057  17.165  0.00  0.00    +0.000 C 
ENDBRANCH  16  17
ENDBRANCH   5  16
TORSDOF 5
ENDMDL
MODEL 3
REMARK VINA RESULT:      -8.2      1.034      1.164
REMARK  Name = 
REMARK  5 active torsions:
REMARK  status: ('A' for Active; 'I' for Inactive)
REMARK    1  A    between atoms: O_1  and  C_2
REMARK    2  A    between atoms: C_2  and  C_3
REMARK    3  A    between atoms: C_6  and  C_7
REMARK    4  A    between atoms: C_11  and  O_12
REMARK    5  A    between atoms: O_12  and  C_13
REMARK                            x       y       z     vdW  Elec       q    Type
REMARK                         _______ _______ _______ _____ _____    ______ ____
ROOT
ATOM      1  C   UNL     1       2.683   6.589  18.809  0.00  0.00    +0.000 A 
ATOM      2  N   UNL     1       2.146   5.780  19.737  0.00  0.00    +0.000 NA
ATOM      3  C   UNL     1       1.439   6.357  20.719  0.00  0.00    +0.000 A 
ATOM      4  C   UNL     1       1.251   7.714  20.797  0.00  0.00    +0.000 A 
ATOM      5  C   UNL     1       1.795   8.450  19.777  0.00  0.00    +0.000 A 
ATOM      6  N   UNL     1       2.525   7.934  18.777  0.00  0.00    +0.000 NA
ENDROOT
BRANCH   1  10
ATOM      7  C   UNL     1       5.265   4.886  15.801  0.00  0.00    +0.000 A 
ATOM      8  C   UNL     1       5.250   6.263  16.032  0.00  0.00    +0.000 A 
ATOM      9  C   UNL     1       4.410   6.797  17.016  0.00  0.00    +0.000 A 
ATOM     10  C   UNL     1       3.579   5.991  17.808  0.00  0.00    +0.000 A 
ATOM     11  C   UNL     1       3.626   4.612  17.569  0.00  0.00    +0.000 A 
ATOM     12  C   UNL     1       4.446   4.058  16.584  0.00  0.00    +0.000 A 
BRANCH   7  13
ATOM     13  C   UNL     1       6.181   4.297  14.777  0.00  0.00    +0.000 C 
BRANCH  13  14
ATOM     14  O   UNL     1       7.022   5.337  14.302  0.00  0.00    +0.000 OA
ATOM     15  H   UNL     1       6.562   6.179  14.485  0.00  0.00    +0.000 HD
ENDBRANCH  13  14
ENDBRANCH   7  13
ENDBRANCH   1  10
BRANCH   5  16
ATOM     16  O   UNL     1       1.668   9.820  19.874  0.00  0.00    +0.000 OA
BRANCH  16  17
ATOM     17  C   UNL     1       0.687  10.529  19.085  0.00  0.00    +0.000 C 
ATOM     18  C   UNL     1      -0.436   9.815  18.316  0.00  0.00    +0.000 C 
ATOM     19  N   UNL     1      -1.263  10.943  18.635  0.00  0.00    +0.000 N 
ATOM     20  C   UNL     1      -2.641  11.144  18.459  0.00  0.00    +0.000 A 
ATOM     21  C   UNL     1      -3.310  10.431  17.469  0.00  0.00    +0.000 A 
ATOM     22  C   UNL     1      -4.634  10.731  17.178  0.00  0.00    +0.000 A 
ATOM     23  C   UNL     1      -5.333  11.590  18.016  0.00  0.00    +0.000 A 
ATOM     24  C   UNL     1      -6.723  11.734  17.885  0.00  0.00    +0.000 A 
ATOM     25  C   UNL     1      -7.446  12.420  18.853  0.00  0.00    +0.000 A 
ATOM     26  C   UNL     1      -6.769  13.026  19.906  0.00  0.00    +0.000 A 
ATOM     27  C   UNL     1      -5.370  12.950  19.978  0.00  0.00    +0.000 A 
ATOM     28  C   UNL     1      -4.624  12.216  19.061  0.00  0.00    +0.000 A 
ATOM     29  N   UNL     1      -3.291  12.056  19.222  0.00  0.00    +0.000 NA
ATOM     30  C   UNL     1      -0.440  11.356  19.732  0.00  0.00    +0.000 C 
ENDBRANCH  16  17
ENDBRANCH   5  16
TORSDOF 5
ENDMDL
MODEL 4
REMARK VINA RESULT:      -8.1      2.824      3.358
REMARK  Name = 
REMARK  5 active torsions:
REMARK  status: ('A' for Active; 'I' for Inactive)
REMARK    1  A    between atoms: O_1  and  C_2
REMARK    2  A    between atoms: C_2  and  C_3
REMARK    3  A    between atoms: C_6  and  C_7
REMARK    4  A    between atoms: C_11  and  O_12
REMARK    5  A    between atoms: O_12  and  C_13
REMARK                            x       y       z     vdW  Elec       q    Type
REMARK                         _______ _______ _______ _____ _____    ______ ____
ROOT
ATOM      1  C   UNL     1       3.174   5.280  18.357  0.00  0.00    +0.000 A 
ATOM      2  N   UNL     1       2.557   4.190  18.844  0.00  0.00    +0.000 NA
ATOM      3  C   UNL     1       1.781   4.356  19.924  0.00  0.00    +0.000 A 
ATOM      4  C   UNL     1       1.601   5.577  20.526  0.00  0.00    +0.000 A 
ATOM      5  C   UNL     1       2.231   6.636  19.925  0.00  0.00    +0.000 A 
ATOM      6  N   UNL     1       3.033   6.531  18.855  0.00  0.00    +0.000 NA
ENDROOT
BRANCH   1  10
ATOM      7  C   UNL     1       5.945   4.776  15.088  0.00  0.00    +0.000 A 
ATOM      8  C   UNL     1       5.518   6.048  15.472  0.00  0.00    +0.000 A 
ATOM      9  C   UNL     1       4.624   6.193  16.540  0.00  0.00    +0.000 A 
ATOM     10  C   UNL     1       4.141   5.094  17.264  0.00  0.00    +0.000 A 
ATOM     11  C   UNL     1       4.597   3.829  16.870  0.00  0.00    +0.000 A 
ATOM     12  C   UNL     1       5.479   3.660  15.801  0.00  0.00    +0.000 A 
BRANCH   7  13
ATOM     13  C   UNL     1       6.925   4.607  13.972  0.00  0.00    +0.000 C 
BRANCH  13  14
ATOM     14  O   UNL     1       7.918   5.610  14.116  0.00  0.00    +0.000 OA
ATOM     15  H   UNL     1       8.450   5.373  14.900  0.00  0.00    +0.000 HD
ENDBRANCH  13  14
ENDBRANCH   7  13
ENDBRANCH   1  10
BRANCH   5  16
ATOM     16  O   UNL     1       2.110   7.857  20.554  0.00  0.00    +0.000 OA
BRANCH  16  17
ATOM     17  C   UNL     1       0.819   8.492  20.694  0.00  0.00    +0.000 C 
ATOM     18  C   UNL     1       0.304   9.045  22.034  0.00  0.00    +0.000 C 
ATOM     19  N   UNL     1      -0.317  10.089  21.272  0.00  0.00    +0.000 N 
ATOM     20  C   UNL     1      -0.958  11.266  21.690  0.00  0.00    +0.000 A 
ATOM     21  C   UNL     1      -1.516  11.320  22.963  0.00  0.00    +0.000 A 
ATOM     22  C   UNL     1      -2.287  12.413  23.333  0.00  0.00    +0.000 A 
ATOM     23  C   UNL     1      -2.318  13.530  22.507  0.00  0.00    +0.000 A 
ATOM     24  C   UNL     1      -2.895  14.728  22.955  0.00  0.00    +0.000 A 
ATOM     25  C   UNL     1      -2.735  15.896  22.219  0.00  0.00    +0.000 A 
ATOM     26  C   UNL     1      -2.065  15.846  21.001  0.00  0.00    +0.000 A 
ATOM     27  C   UNL     1      -1.569  14.625  20.521  0.00  0.00    +0.000 A 
ATOM     28  C   UNL     1      -1.657  13.451  21.265  0.00  0.00    +0.000 A 
ATOM     29  N   UNL     1      -1.064  12.314  20.837  0.00  0.00    +0.000 NA
ATOM     30  C   UNL     1       0.537   9.900  20.138  0.00  0.00    +0.000 C 
ENDBRANCH  16  17
ENDBRANCH   5  16
TORSDOF 5
ENDMDL
MODEL 5
REMARK VINA RESULT:      -8.1      4.710      9.542
REMARK  Name = 
REMARK  5 active torsions:
REMARK  status: ('A' for Active; 'I' for Inactive)
REMARK    1  A    between atoms: O_1  and  C_2
REMARK    2  A    between atoms: C_2  and  C_3
REMARK    3  A    between atoms: C_6  and  C_7
REMARK    4  A    between atoms: C_11  and  O_12
REMARK    5  A    between atoms: O_12  and  C_13
REMARK                            x       y       z     vdW  Elec       q    Type
REMARK                         _______ _______ _______ _____ _____    ______ ____
ROOT
ATOM      1  C   UNL     1       3.170   5.874  18.539  0.00  0.00    +0.000 A 
ATOM      2  N   UNL     1       2.511   4.977  17.787  0.00  0.00    +0.000 NA
ATOM      3  C   UNL     1       3.225   3.966  17.272  0.00  0.00    +0.000 A 
ATOM      4  C   UNL     1       4.573   3.824  17.490  0.00  0.00    +0.000 A 
ATOM      5  C   UNL     1       5.144   4.761  18.312  0.00  0.00    +0.000 A 
ATOM      6  N   UNL     1       4.488   5.803  18.843  0.00  0.00    +0.000 NA
ENDROOT
BRANCH   1  10
ATOM      7  C   UNL     1       1.098   9.425  19.849  0.00  0.00    +0.000 A 
ATOM      8  C   UNL     1       1.564   9.314  18.537  0.00  0.00    +0.000 A 
ATOM      9  C   UNL     1       2.229   8.151  18.128  0.00  0.00    +0.000 A 
ATOM     10  C   UNL     1       2.436   7.066  18.992  0.00  0.00    +0.000 A 
ATOM     11  C   UNL     1       1.945   7.196  20.297  0.00  0.00    +0.000 A 
ATOM     12  C   UNL     1       1.290   8.350  20.731  0.00  0.00    +0.000 A 
BRANCH   7  13
ATOM     13  C   UNL     1       0.357  10.646  20.291  0.00  0.00    +0.000 C 
BRANCH  13  14
ATOM     14  O   UNL     1       1.091  11.235  21.352  0.00  0.00    +0.000 OA
ATOM     15  H   UNL     1       1.964  10.797  21.371  0.00  0.00    +0.000 HD
ENDBRANCH  13  14
ENDBRANCH   7  13
ENDBRANCH   1  10
BRANCH   5  16
ATOM     16  O   UNL     1       6.509   4.668  18.491  0.00  0.00    +0.000 OA
BRANCH  16  17
ATOM     17  C   UNL     1       7.388   5.719  18.033  0.00  0.00    +0.000 C 
ATOM     18  C   UNL     1       6.868   7.051  17.467  0.00  0.00    +0.000 C 
ATOM     19  N   UNL     1       8.003   7.667  18.092  0.00  0.00    +0.000 N 
ATOM     20  C   UNL     1       8.329   9.022  18.261  0.00  0.00    +0.000 A 
ATOM     21  C   UNL     1       7.805   9.961  17.379  0.00  0.00    +0.000 A 
ATOM     22  C   UNL     1       8.240  11.278  17.435  0.00  0.00    +0.000 A 
ATOM     23  C   UNL     1       9.031  11.685  18.503  0.00  0.00    +0.000 A 
ATOM     24  C   UNL     1       9.295  13.047  18.712  0.00  0.00    +0.000 A 
ATOM     25  C   UNL     1       9.900  13.465  19.891  0.00  0.00    +0.000 A 
ATOM     26  C   UNL     1      10.309  12.516  20.821  0.00  0.00    +0.000 A 
ATOM     27  C   UNL     1      10.119  11.150  20.560  0.00  0.00    +0.000 A 
ATOM     28  C   UNL     1       9.458  10.703  19.420  0.00  0.00    +0.000 A 
ATOM     29  N   UNL     1       9.179   9.391  19.251  0.00  0.00    +0.000 NA
ATOM     30  C   UNL     1       8.204   6.586  19.010  0.00  0.00    +0.000 C 
ENDBRANCH  16  17
ENDBRANCH   5  16
TORSDOF 5
ENDMDL
MODEL 6
REMARK VINA RESULT:      -8.0      0.653      1.111
REMARK  Name = 
REMARK  5 active torsions:
REMARK  status: ('A' for Active; 'I' for Inactive)
REMARK    1  A    between atoms: O_1  and  C_2
REMARK    2  A    between atoms: C_2  and  C_3
REMARK    3  A    between atoms: C_6  and  C_7
REMARK    4  A    between atoms: C_11  and  O_12
REMARK    5  A    between atoms: O_12  and  C_13
REMARK                            x       y       z     vdW  Elec       q    Type
REMARK                         _______ _______ _______ _____ _____    ______ ____
ROOT
ATOM      1  C   UNL     1       2.774   6.321  18.726  0.00  0.00    +0.000 A 
ATOM      2  N   UNL     1       2.245   5.360  19.502  0.00  0.00    +0.000 NA
ATOM      3  C   UNL     1       1.520   5.754  20.559  0.00  0.00    +0.000 A 
ATOM      4  C   UNL     1       1.306   7.076  20.858  0.00  0.00    +0.000 A 
ATOM      5  C   UNL     1       1.844   7.980  19.978  0.00  0.00    +0.000 A 
ATOM      6  N   UNL     1       2.591   7.649  18.915  0.00  0.00    +0.000 NA
ENDROOT
BRANCH   1  10
ATOM      7  C   UNL     1       5.511   5.068  15.635  0.00  0.00    +0.000 A 
ATOM      8  C   UNL     1       4.767   4.129  16.352  0.00  0.00    +0.000 A 
ATOM      9  C   UNL     1       3.879   4.555  17.348  0.00  0.00    +0.000 A 
ATOM     10  C   UNL     1       3.689   5.911  17.649  0.00  0.00    +0.000 A 
ATOM     11  C   UNL     1       4.434   6.833  16.904  0.00  0.00    +0.000 A 
ATOM     12  C   UNL     1       5.335   6.432  15.917  0.00  0.00    +0.000 A 
BRANCH   7  13
ATOM     13  C   UNL     1       6.439   4.631  14.547  0.00  0.00    +0.000 C 
BRANCH  13  14
ATOM     14  O   UNL     1       5.674   3.912  13.592  0.00  0.00    +0.000 OA
ATOM     15  H   UNL     1       4.735   4.050  13.820  0.00  0.00    +0.000 HD
ENDBRANCH  13  14
ENDBRANCH   7  13
ENDBRANCH   1  10
BRANCH   5  16
ATOM     16  O   UNL     1       1.689   9.313  20.299  0.00  0.00    +0.000 OA
BRANCH  16  17
ATOM     17  C   UNL     1       0.869  10.179  19.484  0.00  0.00    +0.000 C 
ATOM     18  C   UNL     1      -0.127   9.644  18.442  0.00  0.00    +0.000 C 
ATOM     19  N   UNL     1      -0.970  10.748  18.797  0.00  0.00    +0.000 N 
ATOM     20  C   UNL     1      -2.295  11.039  18.436  0.00  0.00    +0.000 A 
ATOM     21  C   UNL     1      -2.806  10.516  17.253  0.00  0.00    +0.000 A 
ATOM     22  C   UNL     1      -4.056  10.920  16.804  0.00  0.00    +0.000 A 
ATOM     23  C   UNL     1      -4.866  11.675  17.644  0.00  0.00    +0.000 A 
ATOM     24  C   UNL     1      -6.211  11.903  17.316  0.00  0.00    +0.000 A 
ATOM     25  C   UNL     1      -7.069  12.468  18.251  0.00  0.00    +0.000 A 
ATOM     26  C   UNL     1      -6.563  12.874  19.481  0.00  0.00    +0.000 A 
ATOM     27  C   UNL     1      -5.197  12.722  19.764  0.00  0.00    +0.000 A 
ATOM     28  C   UNL     1      -4.326  12.101  18.874  0.00  0.00    +0.000 A 
ATOM     29  N   UNL     1      -3.042  11.855  19.219  0.00  0.00    +0.000 NA
ATOM     30  C   UNL     1      -0.332  10.951  20.063  0.00  0.00    +0.000 C 
ENDBRANCH  16  17
ENDBRANCH   5  16
TORSDOF 5
ENDMDL
MODEL 7
REMARK VINA RESULT:      -8.0      4.051      9.293
REMARK  Name = 
REMARK  5 active torsions:
REMARK  status: ('A' for Active; 'I' for Inactive)
REMARK    1  A    between atoms: O_1  and  C_2
REMARK    2  A    between atoms: C_2  and  C_3
REMARK    3  A    between atoms: C_6  and  C_7
REMARK    4  A    between atoms: C_11  and  O_12
REMARK    5  A    between atoms: O_12  and  C_13
REMARK                            x       y       z     vdW  Elec       q    Type
REMARK                         _______ _______ _______ _____ _____    ______ ____
ROOT
ATOM      1  C   UNL     1       0.561  11.498  21.263  0.00  0.00    +0.000 A 
ATOM      2  N   UNL     1      -0.209  11.871  22.299  0.00  0.00    +0.000 NA
ATOM      3  C   UNL     1      -0.843  10.900  22.972  0.00  0.00    +0.000 A 
ATOM      4  C   UNL     1      -0.726   9.573  22.643  0.00  0.00    +0.000 A 
ATOM      5  C   UNL     1       0.122   9.289  21.604  0.00  0.00    +0.000 A 
ATOM      6  N   UNL     1       0.771  10.215  20.883  0.00  0.00    +0.000 NA
ENDROOT
BRANCH   1  10
ATOM      7  C   UNL     1       2.205  14.657  18.827  0.00  0.00    +0.000 A 
ATOM      8  C   UNL     1       1.989  14.848  20.193  0.00  0.00    +0.000 A 
ATOM      9  C   UNL     1       1.461  13.810  20.969  0.00  0.00    +0.000 A 
ATOM     10  C   UNL     1       1.149  12.555  20.425  0.00  0.00    +0.000 A 
ATOM     11  C   UNL     1       1.391  12.383  19.057  0.00  0.00    +0.000 A 
ATOM     12  C   UNL     1       1.905  13.408  18.261  0.00  0.00    +0.000 A 
BRANCH   7  13
ATOM     13  C   UNL     1       2.800  15.745  17.993  0.00  0.00    +0.000 C 
BRANCH  13  14
ATOM     14  O   UNL     1       3.670  15.139  17.050  0.00  0.00    +0.000 OA
ATOM     15  H   UNL     1       3.589  15.648  16.221  0.00  0.00    +0.000 HD
ENDBRANCH  13  14
ENDBRANCH   7  13
ENDBRANCH   1  10
BRANCH   5  16
ATOM     16  O   UNL     1       0.202   7.966  21.222  0.00  0.00    +0.000 OA
BRANCH  16  17
ATOM     17  C   UNL     1       1.481   7.349  20.957  0.00  0.00    +0.000 C 
ATOM     18  C   UNL     1       1.626   5.867  20.573  0.00  0.00    +0.000 C 
ATOM     19  N   UNL     1       2.709   6.274  19.726  0.00  0.00    +0.000 N 
ATOM     20  C   UNL     1       3.439   5.555  18.767  0.00  0.00    +0.000 A 
ATOM     21  C   UNL     1       3.521   4.170  18.876  0.00  0.00    +0.000 A 
ATOM     22  C   UNL     1       4.365   3.461  18.031  0.00  0.00    +0.000 A 
ATOM     23  C   UNL     1       4.952   4.115  16.955  0.00  0.00    +0.000 A 
ATOM     24  C   UNL     1       5.619   3.386  15.959  0.00  0.00    +0.000 A 
ATOM     25  C   UNL     1       6.015   4.014  14.784  0.00  0.00    +0.000 A 
ATOM     26  C   UNL     1       5.812   5.382  14.642  0.00  0.00    +0.000 A 
ATOM     27  C   UNL     1       5.225   6.117  15.682  0.00  0.00    +0.000 A 
ATOM     28  C   UNL     1       4.758   5.507  16.843  0.00  0.00    +0.000 A 
ATOM     29  N   UNL     1       4.086   6.217  17.777  0.00  0.00    +0.000 NA
ATOM     30  C   UNL     1       2.276   7.639  19.670  0.00  0.00    +0.000 C 
ENDBRANCH  16  17
ENDBRANCH   5  16
TORSDOF 5
ENDMDL
MODEL 8
REMARK VINA RESULT:      -8.0      4.664      9.506
REMARK  Name = 
REMARK  5 active torsions:
REMARK  status: ('A' for Active; 'I' for Inactive)
REMARK    1  A    between atoms: O_1  and  C_2
REMARK    2  A    between atoms: C_2  and  C_3
REMARK    3  A    between atoms: C_6  and  C_7
REMARK    4  A    between atoms: C_11  and  O_12
REMARK    5  A    between atoms: O_12  and  C_13
REMARK                            x       y       z     vdW  Elec       q    Type
REMARK                         _______ _______ _______ _____ _____    ______ ____
ROOT
ATOM      1  C   UNL     1       3.166   5.855  18.494  0.00  0.00    +0.000 A 
ATOM      2  N   UNL     1       2.457   4.933  17.821  0.00  0.00    +0.000 NA
ATOM      3  C   UNL     1       3.127   3.877  17.337  0.00  0.00    +0.000 A 
ATOM      4  C   UNL     1       4.479   3.716  17.508  0.00  0.00    +0.000 A 
ATOM      5  C   UNL     1       5.104   4.684  18.252  0.00  0.00    +0.000 A 
ATOM      6  N   UNL     1       4.493   5.769  18.748  0.00  0.00    +0.000 NA
ENDROOT
BRANCH   1  10
ATOM      7  C   UNL     1       1.065   9.415  19.731  0.00  0.00    +0.000 A 
ATOM      8  C   UNL     1       1.335   8.392  20.643  0.00  0.00    +0.000 A 
ATOM      9  C   UNL     1       2.024   7.247  20.225  0.00  0.00    +0.000 A 
ATOM     10  C   UNL     1       2.477   7.087  18.907  0.00  0.00    +0.000 A 
ATOM     11  C   UNL     1       2.208   8.134  18.017  0.00  0.00    +0.000 A 
ATOM     12  C   UNL     1       1.513   9.279  18.407  0.00  0.00    +0.000 A 
BRANCH   7  13
ATOM     13  C   UNL     1       0.361  10.658  20.171  0.00  0.00    +0.000 C 
BRANCH  13  14
ATOM     14  O   UNL     1      -0.850  10.749  19.437  0.00  0.00    +0.000 OA
ATOM     15  H   UNL     1      -0.659  10.431  18.534  0.00  0.00    +0.000 HD
ENDBRANCH  13  14
ENDBRANCH   7  13
ENDBRANCH   1  10
BRANCH   5  16
ATOM     16  O   UNL     1       6.472   4.567  18.380  0.00  0.00    +0.000 OA
BRANCH  16  17
ATOM     17  C   UNL     1       7.349   5.632  17.948  0.00  0.00    +0.000 C 
ATOM     18  C   UNL     1       6.825   6.972  17.405  0.00  0.00    +0.000 C 
ATOM     19  N   UNL     1       7.952   7.582  18.048  0.00  0.00    +0.000 N 
ATOM     20  C   UNL     1       8.269   8.935  18.245  0.00  0.00    +0.000 A 
ATOM     21  C   UNL     1       7.746   9.888  17.378  0.00  0.00    +0.000 A 
ATOM     22  C   UNL     1       8.173  11.206  17.462  0.00  0.00    +0.000 A 
ATOM     23  C   UNL     1       8.955  11.596  18.542  0.00  0.00    +0.000 A 
ATOM     24  C   UNL     1       9.211  12.956  18.779  0.00  0.00    +0.000 A 
ATOM     25  C   UNL     1       9.806  13.355  19.970  0.00  0.00    +0.000 A 
ATOM     26  C   UNL     1      10.214  12.390  20.884  0.00  0.00    +0.000 A 
ATOM     27  C   UNL     1      10.033  11.029  20.596  0.00  0.00    +0.000 A 
ATOM     28  C   UNL     1       9.382  10.600  19.443  0.00  0.00    +0.000 A 
ATOM     29  N   UNL     1       9.111   9.290  19.247  0.00  0.00    +0.000 NA
ATOM     30  C   UNL     1       8.154   6.485  18.946  0.00  0.00    +0.000 C 
ENDBRANCH  16  17
ENDBRANCH   5  16
TORSDOF 5
ENDMDL
MODEL 9
REMARK VINA RESULT:      -8.0      3.123      4.222
REMARK  Name = 
REMARK  5 active torsions:
REMARK  status: ('A' for Active; 'I' for Inactive)
REMARK    1  A    between atoms: O_1  and  C_2
REMARK    2  A    between atoms: C_2  and  C_3
REMARK    3  A    between atoms: C_6  and  C_7
REMARK    4  A    between atoms: C_11  and  O_12
REMARK    5  A    between atoms: O_12  and  C_13
REMARK                            x       y       z     vdW  Elec       q    Type
REMARK                         _______ _______ _______ _____ _____    ______ ____
ROOT
ATOM      1  C   UNL     1       3.087   5.177  18.500  0.00  0.00    +0.000 A 
ATOM      2  N   UNL     1       2.613   4.045  19.048  0.00  0.00    +0.000 NA
ATOM      3  C   UNL     1       1.835   4.169  20.134  0.00  0.00    +0.000 A 
ATOM      4  C   UNL     1       1.515   5.386  20.681  0.00  0.00    +0.000 A 
ATOM      5  C   UNL     1       2.005   6.483  20.020  0.00  0.00    +0.000 A 
ATOM      6  N   UNL     1       2.800   6.424  18.941  0.00  0.00    +0.000 NA
ENDROOT
BRANCH   1  10
ATOM      7  C   UNL     1       5.865   4.872  15.213  0.00  0.00    +0.000 A 
ATOM      8  C   UNL     1       5.480   6.120  15.708  0.00  0.00    +0.000 A 
ATOM      9  C   UNL     1       4.582   6.199  16.780  0.00  0.00    +0.000 A 
ATOM     10  C   UNL     1       4.056   5.056  17.400  0.00  0.00    +0.000 A 
ATOM     11  C   UNL     1       4.471   3.817  16.895  0.00  0.00    +0.000 A 
ATOM     12  C   UNL     1       5.355   3.714  15.820  0.00  0.00    +0.000 A 
BRANCH   7  13
ATOM     13  C   UNL     1       6.849   4.771  14.092  0.00  0.00    +0.000 C 
BRANCH  13  14
ATOM     14  O   UNL     1       7.940   5.625  14.397  0.00  0.00    +0.000 OA
ATOM     15  H   UNL     1       7.603   6.541  14.357  0.00  0.00    +0.000 HD
ENDBRANCH  13  14
ENDBRANCH   7  13
ENDBRANCH   1  10
BRANCH   5  16
ATOM     16  O   UNL     1       1.743   7.710  20.593  0.00  0.00    +0.000 OA
BRANCH  16  17
ATOM     17  C   UNL     1       1.189   8.789  19.808  0.00  0.00    +0.000 C 
ATOM     18  C   UNL     1       0.450   9.982  20.439  0.00  0.00    +0.000 C 
ATOM     19  N   UNL     1       1.031  10.786  19.403  0.00  0.00    +0.000 N 
ATOM     20  C   UNL     1       1.045  12.179  19.228  0.00  0.00    +0.000 A 
ATOM     21  C   UNL     1       0.039  12.946  19.807  0.00  0.00    +0.000 A 
ATOM     22  C   UNL     1      -0.051  14.300  19.515  0.00  0.00    +0.000 A 
ATOM     23  C   UNL     1       0.983  14.912  18.818  0.00  0.00    +0.000 A 
ATOM     24  C   UNL     1       1.034  16.310  18.707  0.00  0.00    +0.000 A 
ATOM     25  C   UNL     1       2.172  16.927  18.202  0.00  0.00    +0.000 A 
ATOM     26  C   UNL     1       3.223  16.143  17.739  0.00  0.00    +0.000 A 
ATOM     27  C   UNL     1       3.124  14.744  17.773  0.00  0.00    +0.000 A 
ATOM     28  C   UNL     1       2.026  14.097  18.333  0.00  0.00    +0.000 A 
ATOM     29  N   UNL     1       2.008  12.752  18.466  0.00  0.00    +0.000 NA
ATOM     30  C   UNL     1       2.079   9.849  19.131  0.00  0.00    +0.000 C 
ENDBRANCH  16  17
ENDBRANCH   5  16
TORSDOF 5
ENDMDL
