MODEL 1
REMARK VINA RESULT:      -8.8      0.000      0.000
REMARK  Name = 
REMARK  8 active torsions:
REMARK  status: ('A' for Active; 'I' for Inactive)
REMARK    1  A    between atoms: C_9  and  C_10
REMARK    2  A    between atoms: C_10  and  C_11
REMARK    3  A    between atoms: N_18  and  C_19
REMARK    4  A    between atoms: C_19  and  C_20
REMARK    5  A    between atoms: C_20  and  N_22
REMARK    6  A    between atoms: N_22  and  N_23
REMARK    7  A    between atoms: N_23  and  S_24
REMARK    8  A    between atoms: S_24  and  C_27
REMARK                            x       y       z     vdW  Elec       q    Type
REMARK                         _______ _______ _______ _____ _____    ______ ____
ROOT
ATOM      1  O   UNL     1       4.205   3.621  16.693  0.00  0.00    +0.000 OA
ATOM      2  C   UNL     1       3.778   4.326  17.602  0.00  0.00    +0.000 A 
ATOM      3  C   UNL     1       2.618   3.895  18.399  0.00  0.00    +0.000 A 
ATOM      4  C   UNL     1       2.101   2.606  18.229  0.00  0.00    +0.000 A 
ATOM      5  C   UNL     1       1.043   2.167  19.033  0.00  0.00    +0.000 A 
ATOM      6  C   UNL     1       0.484   3.024  19.969  0.00  0.00    +0.000 A 
ATOM      7  C   UNL     1       0.991   4.321  20.125  0.00  0.00    +0.000 A 
ATOM      8  C   UNL     1       2.079   4.746  19.355  0.00  0.00    +0.000 A 
ATOM      9  C   UNL     1       2.747   6.051  19.553  0.00  0.00    +0.000 A 
ATOM     10  N   UNL     1       3.825   6.407  18.892  0.00  0.00    +0.000 NA
ATOM     11  N   UNL     1       4.369   5.525  17.980  0.00  0.00    +0.000 N 
ENDROOT
BRANCH   9  12
ATOM     12  C   UNL     1       2.210   7.035  20.597  0.00  0.00    +0.000 C 
BRANCH  12  13
ATOM     13  C   UNL     1       1.495   8.230  20.010  0.00  0.00    +0.000 A 
ATOM     14  C   UNL     1       0.590   8.976  20.776  0.00  0.00    +0.000 A 
ATOM     15  C   UNL     1      -0.144  10.017  20.199  0.00  0.00    +0.000 A 
ATOM     16  C   UNL     1       0.049  10.344  18.859  0.00  0.00    +0.000 A 
ATOM     17  C   UNL     1       0.998   9.657  18.106  0.00  0.00    +0.000 A 
ATOM     18  C   UNL     1       1.720   8.605  18.677  0.00  0.00    +0.000 A 
ENDBRANCH  12  13
ENDBRANCH   9  12
BRANCH  11  19
ATOM     19  C   UNL     1       5.584   5.946  17.286  0.00  0.00    +0.000 C 
BRANCH  19  20
ATOM     20  C   UNL     1       6.901   5.293  17.764  0.00  0.00    +0.000 C 
ATOM     21  S   UNL     1       7.623   5.647  19.245  0.00  0.00    +0.000 S 
BRANCH  20  22
ATOM     22  N   UNL     1       7.513   4.490  16.805  0.00  0.00    +0.000 N 
ATOM     23  H   UNL     1       8.527   4.356  16.795  0.00  0.00    +0.000 HD
BRANCH  22  24
ATOM     24  N   UNL     1       6.765   4.022  15.628  0.00  0.00    +0.000 NA
ATOM     25  H   UNL     1       5.937   3.441  15.799  0.00  0.00    +0.000 HD
BRANCH  24  26
ATOM     26  S   UNL     1       6.744   5.001  14.235  0.00  0.00    +0.000 S 
ATOM     27  O   UNL     1       5.650   5.930  14.401  0.00  0.00    +0.000 OA
ATOM     28  O   UNL     1       8.094   5.471  13.995  0.00  0.00    +0.000 OA
BRANCH  26  29
ATOM     29  C   UNL     1       6.296   3.851  12.954  0.00  0.00    +0.000 A 
ATOM     30  C   UNL     1       7.312   3.123  12.322  0.00  0.00    +0.000 A 
ATOM     31  C   UNL     1       6.998   2.224  11.303  0.00  0.00    +0.000 A 
ATOM     32  C   UNL     1       5.669   2.029  10.931  0.00  0.00    +0.000 A 
ATOM     33  C   UNL     1       4.649   2.709  11.596  0.00  0.00    +0.000 A 
ATOM     34  C   UNL     1       4.955   3.618  12.617  0.00  0.00    +0.000 A 
ENDBRANCH  26  29
ENDBRANCH  24  26
ENDBRANCH  22  24
ENDBRANCH  20  22
ENDBRANCH  19  20
ENDBRANCH  11  19
TORSDOF 8
ENDMDL
MODEL 2
REMARK VINA RESULT:      -8.7      1.432      1.978
REMARK  Name = 
REMARK  8 active torsions:
REMARK  status: ('A' for Active; 'I' for Inactive)
REMARK    1  A    between atoms: C_9  and  C_10
REMARK    2  A    between atoms: C_10  and  C_11
REMARK    3  A    between atoms: N_18  and  C_19
REMARK    4  A    between atoms: C_19  and  C_20
REMARK    5  A    between atoms: C_20  and  N_22
REMARK    6  A    between atoms: N_22  and  N_23
REMARK    7  A    between atoms: N_23  and  S_24
REMARK    8  A    between atoms: S_24  and  C_27
REMARK                            x       y       z     vdW  Elec       q    Type
REMARK                         _______ _______ _______ _____ _____    ______ ____
ROOT
ATOM      1  O   UNL     1       5.637   3.174  20.132  0.00  0.00    +0.000 OA
ATOM      2  C   UNL     1       4.888   4.046  19.702  0.00  0.00    +0.000 A 
ATOM      3  C   UNL     1       3.431   3.847  19.709  0.00  0.00    +0.000 A 
ATOM      4  C   UNL     1       2.886   2.733  20.357  0.00  0.00    +0.000 A 
ATOM      5  C   UNL     1       1.497   2.576  20.427  0.00  0.00    +0.000 A 
ATOM      6  C   UNL     1       0.664   3.505  19.821  0.00  0.00    +0.000 A 
ATOM      7  C   UNL     1       1.212   4.611  19.156  0.00  0.00    +0.000 A 
ATOM      8  C   UNL     1       2.599   4.794  19.125  0.00  0.00    +0.000 A 
ATOM      9  C   UNL     1       3.240   5.999  18.556  0.00  0.00    +0.000 A 
ATOM     10  N   UNL     1       4.535   6.210  18.612  0.00  0.00    +0.000 NA
ATOM     11  N   UNL     1       5.336   5.276  19.238  0.00  0.00    +0.000 N 
ENDROOT
BRANCH   9  12
ATOM     12  C   UNL     1       2.383   7.088  17.903  0.00  0.00    +0.000 C 
BRANCH  12  13
ATOM     13  C   UNL     1       1.888   8.145  18.863  0.00  0.00    +0.000 A 
ATOM     14  C   UNL     1       1.722   7.862  20.224  0.00  0.00    +0.000 A 
ATOM     15  C   UNL     1       1.169   8.813  21.088  0.00  0.00    +0.000 A 
ATOM     16  C   UNL     1       0.811  10.067  20.603  0.00  0.00    +0.000 A 
ATOM     17  C   UNL     1       1.037  10.386  19.266  0.00  0.00    +0.000 A 
ATOM     18  C   UNL     1       1.575   9.431  18.397  0.00  0.00    +0.000 A 
ENDBRANCH  12  13
ENDBRANCH   9  12
BRANCH  11  19
ATOM     19  C   UNL     1       6.768   5.561  19.305  0.00  0.00    +0.000 C 
BRANCH  19  20
ATOM     20  C   UNL     1       7.407   6.140  18.022  0.00  0.00    +0.000 C 
ATOM     21  S   UNL     1       7.626   7.790  17.762  0.00  0.00    +0.000 S 
BRANCH  20  22
ATOM     22  N   UNL     1       7.661   5.186  17.039  0.00  0.00    +0.000 N 
ATOM     23  H   UNL     1       8.517   5.217  16.480  0.00  0.00    +0.000 HD
BRANCH  22  24
ATOM     24  N   UNL     1       6.603   4.268  16.592  0.00  0.00    +0.000 NA
ATOM     25  H   UNL     1       6.336   3.513  17.234  0.00  0.00    +0.000 HD
BRANCH  24  26
ATOM     26  S   UNL     1       5.390   4.864  15.558  0.00  0.00    +0.000 S 
ATOM     27  O   UNL     1       4.169   4.180  15.917  0.00  0.00    +0.000 OA
ATOM     28  O   UNL     1       5.465   6.312  15.565  0.00  0.00    +0.000 OA
BRANCH  26  29
ATOM     29  C   UNL     1       5.903   4.267  13.963  0.00  0.00    +0.000 A 
ATOM     30  C   UNL     1       4.992   3.523  13.201  0.00  0.00    +0.000 A 
ATOM     31  C   UNL     1       5.366   3.027  11.953  0.00  0.00    +0.000 A 
ATOM     32  C   UNL     1       6.639   3.293  11.450  0.00  0.00    +0.000 A 
ATOM     33  C   UNL     1       7.529   4.080  12.180  0.00  0.00    +0.000 A 
ATOM     34  C   UNL     1       7.164   4.579  13.437  0.00  0.00    +0.000 A 
ENDBRANCH  26  29
ENDBRANCH  24  26
ENDBRANCH  22  24
ENDBRANCH  20  22
ENDBRANCH  19  20
ENDBRANCH  11  19
TORSDOF 8
ENDMDL
MODEL 3
REMARK VINA RESULT:      -8.5      1.162      1.246
REMARK  Name = 
REMARK  8 active torsions:
REMARK  status: ('A' for Active; 'I' for Inactive)
REMARK    1  A    between atoms: C_9  and  C_10
REMARK    2  A    between atoms: C_10  and  C_11
REMARK    3  A    between atoms: N_18  and  C_19
REMARK    4  A    between atoms: C_19  and  C_20
REMARK    5  A    between atoms: C_20  and  N_22
REMARK    6  A    between atoms: N_22  and  N_23
REMARK    7  A    between atoms: N_23  and  S_24
REMARK    8  A    between atoms: S_24  and  C_27
REMARK                            x       y       z     vdW  Elec       q    Type
REMARK                         _______ _______ _______ _____ _____    ______ ____
ROOT
ATOM      1  O   UNL     1       5.108   3.212  17.452  0.00  0.00    +0.000 OA
ATOM      2  C   UNL     1       4.435   3.901  18.212  0.00  0.00    +0.000 A 
ATOM      3  C   UNL     1       3.080   3.480  18.598  0.00  0.00    +0.000 A 
ATOM      4  C   UNL     1       2.617   2.212  18.230  0.00  0.00    +0.000 A 
ATOM      5  C   UNL     1       1.355   1.780  18.654  0.00  0.00    +0.000 A 
ATOM      6  C   UNL     1       0.550   2.623  19.405  0.00  0.00    +0.000 A 
ATOM      7  C   UNL     1       1.008   3.901  19.757  0.00  0.00    +0.000 A 
ATOM      8  C   UNL     1       2.288   4.318  19.373  0.00  0.00    +0.000 A 
ATOM      9  C   UNL     1       2.886   5.596  19.815  0.00  0.00    +0.000 A 
ATOM     10  N   UNL     1       4.120   5.941  19.530  0.00  0.00    +0.000 NA
ATOM     11  N   UNL     1       4.903   5.072  18.797  0.00  0.00    +0.000 N 
ENDROOT
BRANCH   9  12
ATOM     12  C   UNL     1       2.072   6.564  20.680  0.00  0.00    +0.000 C 
BRANCH  12  13
ATOM     13  C   UNL     1       1.725   7.865  19.994  0.00  0.00    +0.000 A 
ATOM     14  C   UNL     1       1.077   8.895  20.686  0.00  0.00    +0.000 A 
ATOM     15  C   UNL     1       0.668  10.055  20.021  0.00  0.00    +0.000 A 
ATOM     16  C   UNL     1       0.938  10.209  18.664  0.00  0.00    +0.000 A 
ATOM     17  C   UNL     1       1.645   9.224  17.980  0.00  0.00    +0.000 A 
ATOM     18  C   UNL     1       2.040   8.056  18.640  0.00  0.00    +0.000 A 
ENDBRANCH  12  13
ENDBRANCH   9  12
BRANCH  11  19
ATOM     19  C   UNL     1       6.280   5.478  18.524  0.00  0.00    +0.000 C 
BRANCH  19  20
ATOM     20  C   UNL     1       6.479   6.460  17.346  0.00  0.00    +0.000 C 
ATOM     21  S   UNL     1       7.517   7.786  17.414  0.00  0.00    +0.000 S 
BRANCH  20  22
ATOM     22  N   UNL     1       5.621   6.233  16.273  0.00  0.00    +0.000 N 
ATOM     23  H   UNL     1       4.665   5.900  16.420  0.00  0.00    +0.000 HD
BRANCH  22  24
ATOM     24  N   UNL     1       6.131   6.212  14.894  0.00  0.00    +0.000 NA
ATOM     25  H   UNL     1       6.170   7.108  14.395  0.00  0.00    +0.000 HD
BRANCH  24  26
ATOM     26  S   UNL     1       7.299   5.047  14.476  0.00  0.00    +0.000 S 
ATOM     27  O   UNL     1       8.375   5.758  13.825  0.00  0.00    +0.000 OA
ATOM     28  O   UNL     1       7.547   4.220  15.640  0.00  0.00    +0.000 OA
BRANCH  26  29
ATOM     29  C   UNL     1       6.462   4.074  13.244  0.00  0.00    +0.000 A 
ATOM     30  C   UNL     1       7.232   3.330  12.341  0.00  0.00    +0.000 A 
ATOM     31  C   UNL     1       6.609   2.568  11.353  0.00  0.00    +0.000 A 
ATOM     32  C   UNL     1       5.217   2.525  11.281  0.00  0.00    +0.000 A 
ATOM     33  C   UNL     1       4.446   3.219  12.213  0.00  0.00    +0.000 A 
ATOM     34  C   UNL     1       5.063   3.991  13.206  0.00  0.00    +0.000 A 
ENDBRANCH  26  29
ENDBRANCH  24  26
ENDBRANCH  22  24
ENDBRANCH  20  22
ENDBRANCH  19  20
ENDBRANCH  11  19
TORSDOF 8
ENDMDL
MODEL 4
REMARK VINA RESULT:      -8.4      1.462      1.952
REMARK  Name = 
REMARK  8 active torsions:
REMARK  status: ('A' for Active; 'I' for Inactive)
REMARK    1  A    between atoms: C_9  and  C_10
REMARK    2  A    between atoms: C_10  and  C_11
REMARK    3  A    between atoms: N_18  and  C_19
REMARK    4  A    between atoms: C_19  and  C_20
REMARK    5  A    between atoms: C_20  and  N_22
REMARK    6  A    between atoms: N_22  and  N_23
REMARK    7  A    between atoms: N_23  and  S_24
REMARK    8  A    between atoms: S_24  and  C_27
REMARK                            x       y       z     vdW  Elec       q    Type
REMARK                         _______ _______ _______ _____ _____    ______ ____
ROOT
ATOM      1  O   UNL     1       5.889   3.470  18.909  0.00  0.00    +0.000 OA
ATOM      2  C   UNL     1       4.993   4.298  18.780  0.00  0.00    +0.000 A 
ATOM      3  C   UNL     1       3.586   3.910  18.965  0.00  0.00    +0.000 A 
ATOM      4  C   UNL     1       3.277   2.634  19.449  0.00  0.00    +0.000 A 
ATOM      5  C   UNL     1       1.944   2.284  19.693  0.00  0.00    +0.000 A 
ATOM      6  C   UNL     1       0.929   3.188  19.418  0.00  0.00    +0.000 A 
ATOM      7  C   UNL     1       1.239   4.459  18.915  0.00  0.00    +0.000 A 
ATOM      8  C   UNL     1       2.575   4.828  18.714  0.00  0.00    +0.000 A 
ATOM      9  C   UNL     1       2.983   6.190  18.309  0.00  0.00    +0.000 A 
ATOM     10  N   UNL     1       4.240   6.558  18.213  0.00  0.00    +0.000 NA
ATOM     11  N   UNL     1       5.227   5.640  18.511  0.00  0.00    +0.000 N 
ENDROOT
BRANCH   9  12
ATOM     12  C   UNL     1       1.920   7.256  18.025  0.00  0.00    +0.000 C 
BRANCH  12  13
ATOM     13  C   UNL     1       1.610   8.152  19.201  0.00  0.00    +0.000 A 
ATOM     14  C   UNL     1       1.617   7.653  20.509  0.00  0.00    +0.000 A 
ATOM     15  C   UNL     1       1.231   8.462  21.583  0.00  0.00    +0.000 A 
ATOM     16  C   UNL     1       0.871   9.788  21.360  0.00  0.00    +0.000 A 
ATOM     17  C   UNL     1       0.930  10.317  20.073  0.00  0.00    +0.000 A 
ATOM     18  C   UNL     1       1.299   9.505  18.996  0.00  0.00    +0.000 A 
ENDBRANCH  12  13
ENDBRANCH   9  12
BRANCH  11  19
ATOM     19  C   UNL     1       6.613   6.095  18.419  0.00  0.00    +0.000 C 
BRANCH  19  20
ATOM     20  C   UNL     1       6.893   7.219  17.394  0.00  0.00    +0.000 C 
ATOM     21  S   UNL     1       7.858   8.558  17.733  0.00  0.00    +0.000 S 
BRANCH  20  22
ATOM     22  N   UNL     1       6.167   7.097  16.213  0.00  0.00    +0.000 N 
ATOM     23  H   UNL     1       5.666   7.895  15.815  0.00  0.00    +0.000 HD
BRANCH  22  24
ATOM     24  N   UNL     1       5.878   5.774  15.640  0.00  0.00    +0.000 NA
ATOM     25  H   UNL     1       4.954   5.640  15.213  0.00  0.00    +0.000 HD
BRANCH  24  26
ATOM     26  S   UNL     1       7.164   4.869  14.991  0.00  0.00    +0.000 S 
ATOM     27  O   UNL     1       8.124   5.822  14.482  0.00  0.00    +0.000 OA
ATOM     28  O   UNL     1       7.549   3.870  15.968  0.00  0.00    +0.000 OA
BRANCH  26  29
ATOM     29  C   UNL     1       6.411   4.056  13.600  0.00  0.00    +0.000 A 
ATOM     30  C   UNL     1       5.012   3.999  13.535  0.00  0.00    +0.000 A 
ATOM     31  C   UNL     1       4.388   3.357  12.466  0.00  0.00    +0.000 A 
ATOM     32  C   UNL     1       5.155   2.793  11.447  0.00  0.00    +0.000 A 
ATOM     33  C   UNL     1       6.545   2.897  11.479  0.00  0.00    +0.000 A 
ATOM     34  C   UNL     1       7.182   3.536  12.551  0.00  0.00    +0.000 A 
ENDBRANCH  26  29
ENDBRANCH  24  26
ENDBRANCH  22  24
ENDBRANCH  20  22
ENDBRANCH  19  20
ENDBRANCH  11  19
TORSDOF 8
ENDMDL
MODEL 5
REMARK VINA RESULT:      -8.3      4.388      8.387
REMARK  Name = 
REMARK  8 active torsions:
REMARK  status: ('A' for Active; 'I' for Inactive)
REMARK    1  A    between atoms: C_9  and  C_10
REMARK    2  A    between atoms: C_10  and  C_11
REMARK    3  A    between atoms: N_18  and  C_19
REMARK    4  A    between atoms: C_19  and  C_20
REMARK    5  A    between atoms: C_20  and  N_22
REMARK    6  A    between atoms: N_22  and  N_23
REMARK    7  A    between atoms: N_23  and  S_24
REMARK    8  A    between atoms: S_24  and  C_27
REMARK                            x       y       z     vdW  Elec       q    Type
REMARK                         _______ _______ _______ _____ _____    ______ ____
ROOT
ATOM      1  O   UNL     1       0.772   5.467  20.975  0.00  0.00    +0.000 OA
ATOM      2  C   UNL     1       1.580   5.522  20.054  0.00  0.00    +0.000 A 
ATOM      3  C   UNL     1       1.895   4.321  19.265  0.00  0.00    +0.000 A 
ATOM      4  C   UNL     1       1.152   3.151  19.458  0.00  0.00    +0.000 A 
ATOM      5  C   UNL     1       1.401   2.027  18.661  0.00  0.00    +0.000 A 
ATOM      6  C   UNL     1       2.409   2.063  17.710  0.00  0.00    +0.000 A 
ATOM      7  C   UNL     1       3.165   3.230  17.531  0.00  0.00    +0.000 A 
ATOM      8  C   UNL     1       2.887   4.370  18.294  0.00  0.00    +0.000 A 
ATOM      9  C   UNL     1       3.554   5.671  18.073  0.00  0.00    +0.000 A 
ATOM     10  N   UNL     1       3.225   6.760  18.727  0.00  0.00    +0.000 NA
ATOM     11  N   UNL     1       2.204   6.698  19.655  0.00  0.00    +0.000 N 
ENDROOT
BRANCH   9  12
ATOM     12  C   UNL     1       4.652   5.798  17.012  0.00  0.00    +0.000 C 
BRANCH  12  13
ATOM     13  C   UNL     1       5.987   6.251  17.554  0.00  0.00    +0.000 A 
ATOM     14  C   UNL     1       6.651   5.516  18.544  0.00  0.00    +0.000 A 
ATOM     15  C   UNL     1       7.836   5.993  19.113  0.00  0.00    +0.000 A 
ATOM     16  C   UNL     1       8.385   7.193  18.671  0.00  0.00    +0.000 A 
ATOM     17  C   UNL     1       7.773   7.898  17.637  0.00  0.00    +0.000 A 
ATOM     18  C   UNL     1       6.580   7.431  17.078  0.00  0.00    +0.000 A 
ENDBRANCH  12  13
ENDBRANCH   9  12
BRANCH  11  19
ATOM     19  C   UNL     1       1.848   7.937  20.342  0.00  0.00    +0.000 C 
BRANCH  19  20
ATOM     20  C   UNL     1       1.441   9.123  19.437  0.00  0.00    +0.000 C 
ATOM     21  S   UNL     1       1.769   9.180  17.786  0.00  0.00    +0.000 S 
BRANCH  20  22
ATOM     22  N   UNL     1       0.901  10.203  20.132  0.00  0.00    +0.000 N 
ATOM     23  H   UNL     1       0.650  10.124  21.121  0.00  0.00    +0.000 HD
BRANCH  22  24
ATOM     24  N   UNL     1       0.432  11.399  19.417  0.00  0.00    +0.000 NA
ATOM     25  H   UNL     1       0.727  11.506  18.440  0.00  0.00    +0.000 HD
BRANCH  24  26
ATOM     26  S   UNL     1      -1.076  12.064  19.843  0.00  0.00    +0.000 S 
ATOM     27  O   UNL     1      -1.447  11.468  21.105  0.00  0.00    +0.000 OA
ATOM     28  O   UNL     1      -0.991  13.503  19.693  0.00  0.00    +0.000 OA
BRANCH  26  29
ATOM     29  C   UNL     1      -2.160  11.415  18.591  0.00  0.00    +0.000 A 
ATOM     30  C   UNL     1      -1.645  10.489  17.674  0.00  0.00    +0.000 A 
ATOM     31  C   UNL     1      -2.463   9.971  16.670  0.00  0.00    +0.000 A 
ATOM     32  C   UNL     1      -3.802  10.354  16.595  0.00  0.00    +0.000 A 
ATOM     33  C   UNL     1      -4.333  11.232  17.540  0.00  0.00    +0.000 A 
ATOM     34  C   UNL     1      -3.518  11.761  18.549  0.00  0.00    +0.000 A 
ENDBRANCH  26  29
ENDBRANCH  24  26
ENDBRANCH  22  24
ENDBRANCH  20  22
ENDBRANCH  19  20
ENDBRANCH  11  19
TORSDOF 8
ENDMDL
MODEL 6
REMARK VINA RESULT:      -8.2      1.503      2.164
REMARK  Name = 
REMARK  8 active torsions:
REMARK  status: ('A' for Active; 'I' for Inactive)
REMARK    1  A    between atoms: C_9  and  C_10
REMARK    2  A    between atoms: C_10  and  C_11
REMARK    3  A    between atoms: N_18  and  C_19
REMARK    4  A    between atoms: C_19  and  C_20
REMARK    5  A    between atoms: C_20  and  N_22
REMARK    6  A    between atoms: N_22  and  N_23
REMARK    7  A    between atoms: N_23  and  S_24
REMARK    8  A    between atoms: S_24  and  C_27
REMARK                            x       y       z     vdW  Elec       q    Type
REMARK                         _______ _______ _______ _____ _____    ______ ____
ROOT
ATOM      1  O   UNL     1       5.828   3.271  19.586  0.00  0.00    +0.000 OA
ATOM      2  C   UNL     1       5.043   4.156  19.261  0.00  0.00    +0.000 A 
ATOM      3  C   UNL     1       3.608   3.867  19.120  0.00  0.00    +0.000 A 
ATOM      4  C   UNL     1       3.111   2.621  19.515  0.00  0.00    +0.000 A 
ATOM      5  C   UNL     1       1.736   2.365  19.448  0.00  0.00    +0.000 A 
ATOM      6  C   UNL     1       0.875   3.334  18.954  0.00  0.00    +0.000 A 
ATOM      7  C   UNL     1       1.378   4.575  18.540  0.00  0.00    +0.000 A 
ATOM      8  C   UNL     1       2.746   4.850  18.650  0.00  0.00    +0.000 A 
ATOM      9  C   UNL     1       3.328   6.177  18.355  0.00  0.00    +0.000 A 
ATOM     10  N   UNL     1       4.597   6.456  18.548  0.00  0.00    +0.000 NA
ATOM     11  N   UNL     1       5.425   5.477  19.059  0.00  0.00    +0.000 N 
ENDROOT
BRANCH   9  12
ATOM     12  C   UNL     1       2.434   7.309  17.842  0.00  0.00    +0.000 C 
BRANCH  12  13
ATOM     13  C   UNL     1       1.823   8.158  18.931  0.00  0.00    +0.000 A 
ATOM     14  C   UNL     1       1.301   9.427  18.650  0.00  0.00    +0.000 A 
ATOM     15  C   UNL     1       0.829  10.249  19.678  0.00  0.00    +0.000 A 
ATOM     16  C   UNL     1       0.843   9.793  20.993  0.00  0.00    +0.000 A 
ATOM     17  C   UNL     1       1.293   8.506  21.278  0.00  0.00    +0.000 A 
ATOM     18  C   UNL     1       1.780   7.689  20.253  0.00  0.00    +0.000 A 
ENDBRANCH  12  13
ENDBRANCH   9  12
BRANCH  11  19
ATOM     19  C   UNL     1       6.823   5.835  19.287  0.00  0.00    +0.000 C 
BRANCH  19  20
ATOM     20  C   UNL     1       7.540   6.552  18.119  0.00  0.00    +0.000 C 
ATOM     21  S   UNL     1       8.047   8.157  18.192  0.00  0.00    +0.000 S 
BRANCH  20  22
ATOM     22  N   UNL     1       7.608   5.797  16.951  0.00  0.00    +0.000 N 
ATOM     23  H   UNL     1       8.478   5.341  16.665  0.00  0.00    +0.000 HD
BRANCH  22  24
ATOM     24  N   UNL     1       6.521   5.841  15.963  0.00  0.00    +0.000 NA
ATOM     25  H   UNL     1       6.586   6.552  15.225  0.00  0.00    +0.000 HD
BRANCH  24  26
ATOM     26  S   UNL     1       5.721   4.392  15.565  0.00  0.00    +0.000 S 
ATOM     27  O   UNL     1       6.343   3.350  16.349  0.00  0.00    +0.000 OA
ATOM     28  O   UNL     1       4.293   4.631  15.638  0.00  0.00    +0.000 OA
BRANCH  26  29
ATOM     29  C   UNL     1       6.179   4.144  13.864  0.00  0.00    +0.000 A 
ATOM     30  C   UNL     1       5.398   3.286  13.079  0.00  0.00    +0.000 A 
ATOM     31  C   UNL     1       5.737   3.057  11.745  0.00  0.00    +0.000 A 
ATOM     32  C   UNL     1       6.838   3.704  11.185  0.00  0.00    +0.000 A 
ATOM     33  C   UNL     1       7.584   4.602  11.947  0.00  0.00    +0.000 A 
ATOM     34  C   UNL     1       7.255   4.834  13.288  0.00  0.00    +0.000 A 
ENDBRANCH  26  29
ENDBRANCH  24  26
ENDBRANCH  22  24
ENDBRANCH  20  22
ENDBRANCH  19  20
ENDBRANCH  11  19
TORSDOF 8
ENDMDL
MODEL 7
REMARK VINA RESULT:      -8.2      1.134      1.736
REMARK  Name = 
REMARK  8 active torsions:
REMARK  status: ('A' for Active; 'I' for Inactive)
REMARK    1  A    between atoms: C_9  and  C_10
REMARK    2  A    between atoms: C_10  and  C_11
REMARK    3  A    between atoms: N_18  and  C_19
REMARK    4  A    between atoms: C_19  and  C_20
REMARK    5  A    between atoms: C_20  and  N_22
REMARK    6  A    between atoms: N_22  and  N_23
REMARK    7  A    between atoms: N_23  and  S_24
REMARK    8  A    between atoms: S_24  and  C_27
REMARK                            x       y       z     vdW  Elec       q    Type
REMARK                         _______ _______ _______ _____ _____    ______ ____
ROOT
ATOM      1  O   UNL     1       4.977   3.087  17.622  0.00  0.00    +0.000 OA
ATOM      2  C   UNL     1       4.332   3.846  18.339  0.00  0.00    +0.000 A 
ATOM      3  C   UNL     1       2.973   3.488  18.773  0.00  0.00    +0.000 A 
ATOM      4  C   UNL     1       2.475   2.208  18.504  0.00  0.00    +0.000 A 
ATOM      5  C   UNL     1       1.210   1.839  18.976  0.00  0.00    +0.000 A 
ATOM      6  C   UNL     1       0.437   2.754  19.674  0.00  0.00    +0.000 A 
ATOM      7  C   UNL     1       0.930   4.042  19.926  0.00  0.00    +0.000 A 
ATOM      8  C   UNL     1       2.214   4.398  19.496  0.00  0.00    +0.000 A 
ATOM      9  C   UNL     1       2.848   5.690  19.835  0.00  0.00    +0.000 A 
ATOM     10  N   UNL     1       4.086   5.983  19.509  0.00  0.00    +0.000 NA
ATOM     11  N   UNL     1       4.836   5.044  18.830  0.00  0.00    +0.000 N 
ENDROOT
BRANCH   9  12
ATOM     12  C   UNL     1       2.071   6.738  20.638  0.00  0.00    +0.000 C 
BRANCH  12  13
ATOM     13  C   UNL     1       1.708   7.976  19.852  0.00  0.00    +0.000 A 
ATOM     14  C   UNL     1       2.047   8.097  18.498  0.00  0.00    +0.000 A 
ATOM     15  C   UNL     1       1.799   9.284  17.804  0.00  0.00    +0.000 A 
ATOM     16  C   UNL     1       1.176  10.349  18.448  0.00  0.00    +0.000 A 
ATOM     17  C   UNL     1       0.769  10.217  19.774  0.00  0.00    +0.000 A 
ATOM     18  C   UNL     1       1.032   9.036  20.475  0.00  0.00    +0.000 A 
ENDBRANCH  12  13
ENDBRANCH   9  12
BRANCH  11  19
ATOM     19  C   UNL     1       6.218   5.396  18.511  0.00  0.00    +0.000 C 
BRANCH  19  20
ATOM     20  C   UNL     1       6.410   6.492  17.437  0.00  0.00    +0.000 C 
ATOM     21  S   UNL     1       7.676   7.604  17.468  0.00  0.00    +0.000 S 
BRANCH  20  22
ATOM     22  N   UNL     1       5.367   6.569  16.518  0.00  0.00    +0.000 N 
ATOM     23  H   UNL     1       4.453   6.942  16.784  0.00  0.00    +0.000 HD
BRANCH  22  24
ATOM     24  N   UNL     1       5.456   5.883  15.220  0.00  0.00    +0.000 NA
ATOM     25  H   UNL     1       5.004   6.337  14.418  0.00  0.00    +0.000 HD
BRANCH  24  26
ATOM     26  S   UNL     1       6.830   4.933  14.893  0.00  0.00    +0.000 S 
ATOM     27  O   UNL     1       7.877   5.845  14.498  0.00  0.00    +0.000 OA
ATOM     28  O   UNL     1       7.016   4.016  16.001  0.00  0.00    +0.000 OA
BRANCH  26  29
ATOM     29  C   UNL     1       6.336   4.010  13.455  0.00  0.00    +0.000 A 
ATOM     30  C   UNL     1       4.970   3.905  13.163  0.00  0.00    +0.000 A 
ATOM     31  C   UNL     1       4.547   3.176  12.052  0.00  0.00    +0.000 A 
ATOM     32  C   UNL     1       5.486   2.575  11.214  0.00  0.00    +0.000 A 
ATOM     33  C   UNL     1       6.849   2.725  11.469  0.00  0.00    +0.000 A 
ATOM     34  C   UNL     1       7.283   3.451  12.585  0.00  0.00    +0.000 A 
ENDBRANCH  26  29
ENDBRANCH  24  26
ENDBRANCH  22  24
ENDBRANCH  20  22
ENDBRANCH  19  20
ENDBRANCH  11  19
TORSDOF 8
ENDMDL
MODEL 8
REMARK VINA RESULT:      -8.1      4.163      8.335
REMARK  Name = 
REMARK  8 active torsions:
REMARK  status: ('A' for Active; 'I' for Inactive)
REMARK    1  A    between atoms: C_9  and  C_10
REMARK    2  A    between atoms: C_10  and  C_11
REMARK    3  A    between atoms: N_18  and  C_19
REMARK    4  A    between atoms: C_19  and  C_20
REMARK    5  A    between atoms: C_20  and  N_22
REMARK    6  A    between atoms: N_22  and  N_23
REMARK    7  A    between atoms: N_23  and  S_24
REMARK    8  A    between atoms: S_24  and  C_27
REMARK                            x       y       z     vdW  Elec       q    Type
REMARK                         _______ _______ _______ _____ _____    ______ ____
ROOT
ATOM      1  O   UNL     1       0.387   4.784  20.567  0.00  0.00    +0.000 OA
ATOM      2  C   UNL     1       1.532   4.893  20.138  0.00  0.00    +0.000 A 
ATOM      3  C   UNL     1       2.202   3.747  19.504  0.00  0.00    +0.000 A 
ATOM      4  C   UNL     1       1.478   2.579  19.242  0.00  0.00    +0.000 A 
ATOM      5  C   UNL     1       2.093   1.512  18.576  0.00  0.00    +0.000 A 
ATOM      6  C   UNL     1       3.429   1.600  18.213  0.00  0.00    +0.000 A 
ATOM      7  C   UNL     1       4.158   2.764  18.493  0.00  0.00    +0.000 A 
ATOM      8  C   UNL     1       3.532   3.850  19.117  0.00  0.00    +0.000 A 
ATOM      9  C   UNL     1       4.200   5.152  19.329  0.00  0.00    +0.000 A 
ATOM     10  N   UNL     1       3.581   6.197  19.829  0.00  0.00    +0.000 NA
ATOM     11  N   UNL     1       2.247   6.084  20.164  0.00  0.00    +0.000 N 
ENDROOT
BRANCH   9  12
ATOM     12  C   UNL     1       5.664   5.338  18.918  0.00  0.00    +0.000 C 
BRANCH  12  13
ATOM     13  C   UNL     1       5.908   5.233  17.430  0.00  0.00    +0.000 A 
ATOM     14  C   UNL     1       7.000   4.516  16.927  0.00  0.00    +0.000 A 
ATOM     15  C   UNL     1       7.278   4.507  15.557  0.00  0.00    +0.000 A 
ATOM     16  C   UNL     1       6.443   5.187  14.674  0.00  0.00    +0.000 A 
ATOM     17  C   UNL     1       5.313   5.844  15.154  0.00  0.00    +0.000 A 
ATOM     18  C   UNL     1       5.043   5.868  16.526  0.00  0.00    +0.000 A 
ENDBRANCH  12  13
ENDBRANCH   9  12
BRANCH  11  19
ATOM     19  C   UNL     1       1.586   7.276  20.691  0.00  0.00    +0.000 C 
BRANCH  19  20
ATOM     20  C   UNL     1       1.520   8.493  19.740  0.00  0.00    +0.000 C 
ATOM     21  S   UNL     1       2.041   8.444  18.139  0.00  0.00    +0.000 S 
BRANCH  20  22
ATOM     22  N   UNL     1       1.119   9.673  20.363  0.00  0.00    +0.000 N 
ATOM     23  H   UNL     1       0.861   9.688  21.352  0.00  0.00    +0.000 HD
BRANCH  22  24
ATOM     24  N   UNL     1       0.803  10.871  19.571  0.00  0.00    +0.000 NA
ATOM     25  H   UNL     1       1.117  10.883  18.594  0.00  0.00    +0.000 HD
BRANCH  24  26
ATOM     26  S   UNL     1      -0.617  11.736  19.934  0.00  0.00    +0.000 S 
ATOM     27  O   UNL     1      -1.088  11.241  21.207  0.00  0.00    +0.000 OA
ATOM     28  O   UNL     1      -0.348  13.146  19.733  0.00  0.00    +0.000 OA
BRANCH  26  29
ATOM     29  C   UNL     1      -1.748  11.179  18.678  0.00  0.00    +0.000 A 
ATOM     30  C   UNL     1      -3.026  11.751  18.627  0.00  0.00    +0.000 A 
ATOM     31  C   UNL     1      -3.943  11.327  17.666  0.00  0.00    +0.000 A 
ATOM     32  C   UNL     1      -3.579  10.354  16.736  0.00  0.00    +0.000 A 
ATOM     33  C   UNL     1      -2.289   9.823  16.748  0.00  0.00    +0.000 A 
ATOM     34  C   UNL     1      -1.363  10.239  17.713  0.00  0.00    +0.000 A 
ENDBRANCH  26  29
ENDBRANCH  24  26
ENDBRANCH  22  24
ENDBRANCH  20  22
ENDBRANCH  19  20
ENDBRANCH  11  19
TORSDOF 8
ENDMDL
MODEL 9
REMARK VINA RESULT:      -8.1      4.565      9.787
REMARK  Name = 
REMARK  8 active torsions:
REMARK  status: ('A' for Active; 'I' for Inactive)
REMARK    1  A    between atoms: C_9  and  C_10
REMARK    2  A    between atoms: C_10  and  C_11
REMARK    3  A    between atoms: N_18  and  C_19
REMARK    4  A    between atoms: C_19  and  C_20
REMARK    5  A    between atoms: C_20  and  N_22
REMARK    6  A    between atoms: N_22  and  N_23
REMARK    7  A    between atoms: N_23  and  S_24
REMARK    8  A    between atoms: S_24  and  C_27
REMARK                            x       y       z     vdW  Elec       q    Type
REMARK                         _______ _______ _______ _____ _____    ______ ____
ROOT
ATOM      1  O   UNL     1       0.646   5.770  21.107  0.00  0.00    +0.000 OA
ATOM      2  C   UNL     1       1.452   5.786  20.181  0.00  0.00    +0.000 A 
ATOM      3  C   UNL     1       1.727   4.565  19.411  0.00  0.00    +0.000 A 
ATOM      4  C   UNL     1       0.950   3.421  19.624  0.00  0.00    +0.000 A 
ATOM      5  C   UNL     1       1.162   2.278  18.844  0.00  0.00    +0.000 A 
ATOM      6  C   UNL     1       2.167   2.268  17.889  0.00  0.00    +0.000 A 
ATOM      7  C   UNL     1       2.957   3.409  17.689  0.00  0.00    +0.000 A 
ATOM      8  C   UNL     1       2.716   4.568  18.435  0.00  0.00    +0.000 A 
ATOM      9  C   UNL     1       3.421   5.845  18.191  0.00  0.00    +0.000 A 
ATOM     10  N   UNL     1       3.127   6.954  18.830  0.00  0.00    +0.000 NA
ATOM     11  N   UNL     1       2.109   6.937  19.763  0.00  0.00    +0.000 N 
ENDROOT
BRANCH   9  12
ATOM     12  C   UNL     1       4.518   5.923  17.125  0.00  0.00    +0.000 C 
BRANCH  12  13
ATOM     13  C   UNL     1       5.856   6.393  17.646  0.00  0.00    +0.000 A 
ATOM     14  C   UNL     1       6.449   7.565  17.160  0.00  0.00    +0.000 A 
ATOM     15  C   UNL     1       7.731   7.940  17.572  0.00  0.00    +0.000 A 
ATOM     16  C   UNL     1       8.417   7.163  18.502  0.00  0.00    +0.000 A 
ATOM     17  C   UNL     1       7.811   6.034  19.047  0.00  0.00    +0.000 A 
ATOM     18  C   UNL     1       6.535   5.649  18.624  0.00  0.00    +0.000 A 
ENDBRANCH  12  13
ENDBRANCH   9  12
BRANCH  11  19
ATOM     19  C   UNL     1       1.793   8.197  20.431  0.00  0.00    +0.000 C 
BRANCH  19  20
ATOM     20  C   UNL     1       0.898   9.180  19.641  0.00  0.00    +0.000 C 
ATOM     21  S   UNL     1       1.442  10.059  18.311  0.00  0.00    +0.000 S 
BRANCH  20  22
ATOM     22  N   UNL     1      -0.358   9.380  20.210  0.00  0.00    +0.000 N 
ATOM     23  H   UNL     1      -1.085   8.664  20.151  0.00  0.00    +0.000 HD
BRANCH  22  24
ATOM     24  N   UNL     1      -0.767  10.712  20.679  0.00  0.00    +0.000 NA
ATOM     25  H   UNL     1      -1.752  10.972  20.552  0.00  0.00    +0.000 HD
BRANCH  24  26
ATOM     26  S   UNL     1       0.039  11.387  22.018  0.00  0.00    +0.000 S 
ATOM     27  O   UNL     1       0.305  10.300  22.931  0.00  0.00    +0.000 OA
ATOM     28  O   UNL     1       1.114  12.224  21.520  0.00  0.00    +0.000 OA
BRANCH  26  29
ATOM     29  C   UNL     1      -1.209  12.423  22.747  0.00  0.00    +0.000 A 
ATOM     30  C   UNL     1      -2.414  11.834  23.154  0.00  0.00    +0.000 A 
ATOM     31  C   UNL     1      -3.420  12.619  23.716  0.00  0.00    +0.000 A 
ATOM     32  C   UNL     1      -3.217  13.986  23.899  0.00  0.00    +0.000 A 
ATOM     33  C   UNL     1      -1.999  14.566  23.549  0.00  0.00    +0.000 A 
ATOM     34  C   UNL     1      -0.984  13.787  22.979  0.00  0.00    +0.000 A 
ENDBRANCH  26  29
ENDBRANCH  24  26
ENDBRANCH  22  24
ENDBRANCH  20  22
ENDBRANCH  19  20
ENDBRANCH  11  19
TORSDOF 8
ENDMDL
