MODEL 1
REMARK VINA RESULT:      -6.2      0.000      0.000
REMARK  Name = 
REMARK  7 active torsions:
REMARK  status: ('A' for Active; 'I' for Inactive)
REMARK    1  A    between atoms: C_1  and  C_2
REMARK    2  A    between atoms: C_2  and  C_3
REMARK    3  A    between atoms: C_3  and  C_4
REMARK    4  A    between atoms: C_3  and  C_5
REMARK    5  A    between atoms: N_6  and  N_7
REMARK    6  A    between atoms: C_8  and  C_10
REMARK    7  A    between atoms: C_13  and  O_14
REMARK                            x       y       z     vdW  Elec       q    Type
REMARK                         _______ _______ _______ _____ _____    ______ ____
ROOT
ATOM      1  N   UNL     1       4.438   4.183  17.429  0.00  0.00    +0.000 N 
ATOM      2  C   UNL     1       3.189   3.579  17.500  0.00  0.00    +0.000 C 
ATOM      3  O   UNL     1       2.498   3.276  16.531  0.00  0.00    +0.000 OA
ATOM      4  H   UNL     1       5.017   4.308  18.248  0.00  0.00    +0.000 HD
ENDROOT
BRANCH   2   5
ATOM      5  C   UNL     1       2.678   3.262  18.865  0.00  0.00    +0.000 A 
ATOM      6  C   UNL     1       3.516   2.827  19.902  0.00  0.00    +0.000 A 
ATOM      7  C   UNL     1       2.986   2.582  21.176  0.00  0.00    +0.000 A 
ATOM      8  C   UNL     1       1.625   2.772  21.404  0.00  0.00    +0.000 A 
ATOM      9  C   UNL     1       0.787   3.213  20.387  0.00  0.00    +0.000 A 
ATOM     10  C   UNL     1       1.313   3.463  19.121  0.00  0.00    +0.000 A 
BRANCH   8  11
ATOM     11  O   UNL     1       1.072   2.546  22.629  0.00  0.00    +0.000 OA
ATOM     12  H   UNL     1       1.152   3.351  23.166  0.00  0.00    +0.000 HD
ENDBRANCH   8  11
ENDBRANCH   2   5
BRANCH   1  14
ATOM     13  C   UNL     1       5.801   3.641  15.700  0.00  0.00    +0.000 C 
ATOM     14  N   UNL     1       4.951   4.473  16.197  0.00  0.00    +0.000 NA
BRANCH  13  15
ATOM     15  C   UNL     1       6.393   3.914  14.330  0.00  0.00    +0.000 C 
ATOM     16  C   UNL     1       7.118   5.257  14.371  0.00  0.00    +0.000 C 
BRANCH  15  18
ATOM     17  C   UNL     1       5.702   3.107  12.009  0.00  0.00    +0.000 C 
ATOM     18  C   UNL     1       5.309   3.906  13.246  0.00  0.00    +0.000 C 
ENDBRANCH  15  18
ENDBRANCH  13  15
ENDBRANCH   1  14
TORSDOF 5
ENDMDL
MODEL 2
REMARK VINA RESULT:      -6.1      2.847      3.402
REMARK  Name = 
REMARK  7 active torsions:
REMARK  status: ('A' for Active; 'I' for Inactive)
REMARK    1  A    between atoms: C_1  and  C_2
REMARK    2  A    between atoms: C_2  and  C_3
REMARK    3  A    between atoms: C_3  and  C_4
REMARK    4  A    between atoms: C_3  and  C_5
REMARK    5  A    between atoms: N_6  and  N_7
REMARK    6  A    between atoms: C_8  and  C_10
REMARK    7  A    between atoms: C_13  and  O_14
REMARK                            x       y       z     vdW  Elec       q    Type
REMARK                         _______ _______ _______ _____ _____    ______ ____
ROOT
ATOM      1  N   UNL     1       5.294   4.305  16.077  0.00  0.00    +0.000 N 
ATOM      2  C   UNL     1       5.203   5.657  16.388  0.00  0.00    +0.000 C 
ATOM      3  O   UNL     1       5.809   6.554  15.808  0.00  0.00    +0.000 OA
ATOM      4  H   UNL     1       4.689   3.618  16.506  0.00  0.00    +0.000 HD
ENDROOT
BRANCH   2   5
ATOM      5  C   UNL     1       4.276   6.024  17.496  0.00  0.00    +0.000 A 
ATOM      6  C   UNL     1       4.139   5.248  18.656  0.00  0.00    +0.000 A 
ATOM      7  C   UNL     1       3.281   5.664  19.682  0.00  0.00    +0.000 A 
ATOM      8  C   UNL     1       2.565   6.851  19.543  0.00  0.00    +0.000 A 
ATOM      9  C   UNL     1       2.700   7.635  18.403  0.00  0.00    +0.000 A 
ATOM     10  C   UNL     1       3.558   7.226  17.384  0.00  0.00    +0.000 A 
BRANCH   8  11
ATOM     11  O   UNL     1       1.722   7.290  20.519  0.00  0.00    +0.000 OA
ATOM     12  H   UNL     1       2.126   8.051  20.968  0.00  0.00    +0.000 HD
ENDBRANCH   8  11
ENDBRANCH   2   5
BRANCH   1  14
ATOM     13  C   UNL     1       5.608   3.881  13.872  0.00  0.00    +0.000 C 
ATOM     14  N   UNL     1       6.118   3.928  15.055  0.00  0.00    +0.000 NA
BRANCH  13  15
ATOM     15  C   UNL     1       6.485   3.475  12.702  0.00  0.00    +0.000 C 
ATOM     16  C   UNL     1       7.080   4.736  12.079  0.00  0.00    +0.000 C 
BRANCH  15  18
ATOM     17  C   UNL     1       4.268   3.178  11.471  0.00  0.00    +0.000 C 
ATOM     18  C   UNL     1       5.692   2.670  11.666  0.00  0.00    +0.000 C 
ENDBRANCH  15  18
ENDBRANCH  13  15
ENDBRANCH   1  14
TORSDOF 5
ENDMDL
MODEL 3
REMARK VINA RESULT:      -6.0      2.482      3.154
REMARK  Name = 
REMARK  7 active torsions:
REMARK  status: ('A' for Active; 'I' for Inactive)
REMARK    1  A    between atoms: C_1  and  C_2
REMARK    2  A    between atoms: C_2  and  C_3
REMARK    3  A    between atoms: C_3  and  C_4
REMARK    4  A    between atoms: C_3  and  C_5
REMARK    5  A    between atoms: N_6  and  N_7
REMARK    6  A    between atoms: C_8  and  C_10
REMARK    7  A    between atoms: C_13  and  O_14
REMARK                            x       y       z     vdW  Elec       q    Type
REMARK                         _______ _______ _______ _____ _____    ______ ____
ROOT
ATOM      1  N   UNL     1       5.392   5.182  15.773  0.00  0.00    +0.000 N 
ATOM      2  C   UNL     1       4.721   4.494  16.777  0.00  0.00    +0.000 C 
ATOM      3  O   UNL     1       4.728   3.274  16.918  0.00  0.00    +0.000 OA
ATOM      4  H   UNL     1       5.450   6.192  15.767  0.00  0.00    +0.000 HD
ENDROOT
BRANCH   2   5
ATOM      5  C   UNL     1       3.963   5.320  17.760  0.00  0.00    +0.000 A 
ATOM      6  C   UNL     1       3.602   6.652  17.508  0.00  0.00    +0.000 A 
ATOM      7  C   UNL     1       2.855   7.367  18.453  0.00  0.00    +0.000 A 
ATOM      8  C   UNL     1       2.475   6.748  19.642  0.00  0.00    +0.000 A 
ATOM      9  C   UNL     1       2.818   5.426  19.899  0.00  0.00    +0.000 A 
ATOM     10  C   UNL     1       3.555   4.711  18.958  0.00  0.00    +0.000 A 
BRANCH   8  11
ATOM     11  O   UNL     1       1.747   7.410  20.586  0.00  0.00    +0.000 OA
ATOM     12  H   UNL     1       2.190   7.324  21.446  0.00  0.00    +0.000 HD
ENDBRANCH   8  11
ENDBRANCH   2   5
BRANCH   1  14
ATOM     13  C   UNL     1       5.535   4.172  13.749  0.00  0.00    +0.000 C 
ATOM     14  N   UNL     1       6.114   4.465  14.863  0.00  0.00    +0.000 NA
BRANCH  13  15
ATOM     15  C   UNL     1       6.299   3.384  12.701  0.00  0.00    +0.000 C 
ATOM     16  C   UNL     1       7.141   4.356  11.878  0.00  0.00    +0.000 C 
BRANCH  15  18
ATOM     17  C   UNL     1       4.136   3.388  11.345  0.00  0.00    +0.000 C 
ATOM     18  C   UNL     1       5.347   2.584  11.804  0.00  0.00    +0.000 C 
ENDBRANCH  15  18
ENDBRANCH  13  15
ENDBRANCH   1  14
TORSDOF 5
ENDMDL
MODEL 4
REMARK VINA RESULT:      -6.0      2.806      3.526
REMARK  Name = 
REMARK  7 active torsions:
REMARK  status: ('A' for Active; 'I' for Inactive)
REMARK    1  A    between atoms: C_1  and  C_2
REMARK    2  A    between atoms: C_2  and  C_3
REMARK    3  A    between atoms: C_3  and  C_4
REMARK    4  A    between atoms: C_3  and  C_5
REMARK    5  A    between atoms: N_6  and  N_7
REMARK    6  A    between atoms: C_8  and  C_10
REMARK    7  A    between atoms: C_13  and  O_14
REMARK                            x       y       z     vdW  Elec       q    Type
REMARK                         _______ _______ _______ _____ _____    ______ ____
ROOT
ATOM      1  N   UNL     1       5.401   4.854  15.693  0.00  0.00    +0.000 N 
ATOM      2  C   UNL     1       5.072   6.149  16.074  0.00  0.00    +0.000 C 
ATOM      3  O   UNL     1       5.379   7.163  15.452  0.00  0.00    +0.000 OA
ATOM      4  H   UNL     1       5.029   4.046  16.175  0.00  0.00    +0.000 HD
ENDROOT
BRANCH   2   5
ATOM      5  C   UNL     1       4.267   6.294  17.320  0.00  0.00    +0.000 A 
ATOM      6  C   UNL     1       3.326   7.319  17.497  0.00  0.00    +0.000 A 
ATOM      7  C   UNL     1       2.569   7.381  18.675  0.00  0.00    +0.000 A 
ATOM      8  C   UNL     1       2.758   6.421  19.666  0.00  0.00    +0.000 A 
ATOM      9  C   UNL     1       3.679   5.394  19.498  0.00  0.00    +0.000 A 
ATOM     10  C   UNL     1       4.428   5.327  18.325  0.00  0.00    +0.000 A 
BRANCH   8  11
ATOM     11  O   UNL     1       2.041   6.447  20.825  0.00  0.00    +0.000 OA
ATOM     12  H   UNL     1       1.162   6.820  20.645  0.00  0.00    +0.000 HD
ENDBRANCH   8  11
ENDBRANCH   2   5
BRANCH   1  14
ATOM     13  C   UNL     1       5.870   3.622  13.849  0.00  0.00    +0.000 C 
ATOM     14  N   UNL     1       6.122   4.676  14.548  0.00  0.00    +0.000 NA
BRANCH  13  15
ATOM     15  C   UNL     1       6.638   3.384  12.562  0.00  0.00    +0.000 C 
ATOM     16  C   UNL     1       7.193   4.719  12.072  0.00  0.00    +0.000 C 
BRANCH  15  18
ATOM     17  C   UNL     1       4.321   3.265  11.496  0.00  0.00    +0.000 C 
ATOM     18  C   UNL     1       5.749   2.732  11.497  0.00  0.00    +0.000 C 
ENDBRANCH  15  18
ENDBRANCH  13  15
ENDBRANCH   1  14
TORSDOF 5
ENDMDL
MODEL 5
REMARK VINA RESULT:      -6.0      2.288      2.645
REMARK  Name = 
REMARK  7 active torsions:
REMARK  status: ('A' for Active; 'I' for Inactive)
REMARK    1  A    between atoms: C_1  and  C_2
REMARK    2  A    between atoms: C_2  and  C_3
REMARK    3  A    between atoms: C_3  and  C_4
REMARK    4  A    between atoms: C_3  and  C_5
REMARK    5  A    between atoms: N_6  and  N_7
REMARK    6  A    between atoms: C_8  and  C_10
REMARK    7  A    between atoms: C_13  and  O_14
REMARK                            x       y       z     vdW  Elec       q    Type
REMARK                         _______ _______ _______ _____ _____    ______ ____
ROOT
ATOM      1  N   UNL     1       4.962   4.803  16.295  0.00  0.00    +0.000 N 
ATOM      2  C   UNL     1       4.203   4.098  17.223  0.00  0.00    +0.000 C 
ATOM      3  O   UNL     1       4.117   2.875  17.276  0.00  0.00    +0.000 OA
ATOM      4  H   UNL     1       5.092   5.803  16.363  0.00  0.00    +0.000 HD
ENDROOT
BRANCH   2   5
ATOM      5  C   UNL     1       3.466   4.909  18.234  0.00  0.00    +0.000 A 
ATOM      6  C   UNL     1       3.004   4.369  19.443  0.00  0.00    +0.000 A 
ATOM      7  C   UNL     1       2.351   5.189  20.373  0.00  0.00    +0.000 A 
ATOM      8  C   UNL     1       2.165   6.540  20.089  0.00  0.00    +0.000 A 
ATOM      9  C   UNL     1       2.628   7.089  18.900  0.00  0.00    +0.000 A 
ATOM     10  C   UNL     1       3.282   6.276  17.976  0.00  0.00    +0.000 A 
BRANCH   8  11
ATOM     11  O   UNL     1       1.537   7.370  20.969  0.00  0.00    +0.000 OA
ATOM     12  H   UNL     1       1.573   6.977  21.857  0.00  0.00    +0.000 HD
ENDBRANCH   8  11
ENDBRANCH   2   5
BRANCH   1  14
ATOM     13  C   UNL     1       5.492   4.415  14.125  0.00  0.00    +0.000 C 
ATOM     14  N   UNL     1       5.667   4.098  15.363  0.00  0.00    +0.000 NA
BRANCH  13  15
ATOM     15  C   UNL     1       6.260   3.668  13.052  0.00  0.00    +0.000 C 
ATOM     16  C   UNL     1       7.315   4.604  12.466  0.00  0.00    +0.000 C 
BRANCH  15  18
ATOM     17  C   UNL     1       5.765   1.808  11.375  0.00  0.00    +0.000 C 
ATOM     18  C   UNL     1       5.321   3.143  11.960  0.00  0.00    +0.000 C 
ENDBRANCH  15  18
ENDBRANCH  13  15
ENDBRANCH   1  14
TORSDOF 5
ENDMDL
MODEL 6
REMARK VINA RESULT:      -5.9      5.140      7.685
REMARK  Name = 
REMARK  7 active torsions:
REMARK  status: ('A' for Active; 'I' for Inactive)
REMARK    1  A    between atoms: C_1  and  C_2
REMARK    2  A    between atoms: C_2  and  C_3
REMARK    3  A    between atoms: C_3  and  C_4
REMARK    4  A    between atoms: C_3  and  C_5
REMARK    5  A    between atoms: N_6  and  N_7
REMARK    6  A    between atoms: C_8  and  C_10
REMARK    7  A    between atoms: C_13  and  O_14
REMARK                            x       y       z     vdW  Elec       q    Type
REMARK                         _______ _______ _______ _____ _____    ______ ____
ROOT
ATOM      1  N   UNL     1       2.059   7.321  20.740  0.00  0.00    +0.000 N 
ATOM      2  C   UNL     1       2.496   6.835  19.513  0.00  0.00    +0.000 C 
ATOM      3  O   UNL     1       2.368   7.419  18.441  0.00  0.00    +0.000 OA
ATOM      4  H   UNL     1       2.289   6.858  21.609  0.00  0.00    +0.000 HD
ENDROOT
BRANCH   2   5
ATOM      5  C   UNL     1       3.191   5.516  19.528  0.00  0.00    +0.000 A 
ATOM      6  C   UNL     1       4.500   5.346  19.055  0.00  0.00    +0.000 A 
ATOM      7  C   UNL     1       5.116   4.090  19.130  0.00  0.00    +0.000 A 
ATOM      8  C   UNL     1       4.420   3.013  19.676  0.00  0.00    +0.000 A 
ATOM      9  C   UNL     1       3.126   3.172  20.159  0.00  0.00    +0.000 A 
ATOM     10  C   UNL     1       2.515   4.421  20.090  0.00  0.00    +0.000 A 
BRANCH   8  11
ATOM     11  O   UNL     1       4.985   1.777  19.769  0.00  0.00    +0.000 OA
ATOM     12  H   UNL     1       5.679   1.795  20.447  0.00  0.00    +0.000 HD
ENDBRANCH   8  11
ENDBRANCH   2   5
BRANCH   1  14
ATOM     13  C   UNL     1       0.363   8.628  21.484  0.00  0.00    +0.000 C 
ATOM     14  N   UNL     1       1.435   8.535  20.774  0.00  0.00    +0.000 NA
BRANCH  13  15
ATOM     15  C   UNL     1      -0.363   9.958  21.561  0.00  0.00    +0.000 C 
ATOM     16  C   UNL     1       0.555  11.046  21.009  0.00  0.00    +0.000 C 
BRANCH  15  18
ATOM     17  C   UNL     1      -1.596  11.563  23.116  0.00  0.00    +0.000 C 
ATOM     18  C   UNL     1      -0.791  10.275  22.998  0.00  0.00    +0.000 C 
ENDBRANCH  15  18
ENDBRANCH  13  15
ENDBRANCH   1  14
TORSDOF 5
ENDMDL
MODEL 7
REMARK VINA RESULT:      -5.9      4.389      6.826
REMARK  Name = 
REMARK  7 active torsions:
REMARK  status: ('A' for Active; 'I' for Inactive)
REMARK    1  A    between atoms: C_1  and  C_2
REMARK    2  A    between atoms: C_2  and  C_3
REMARK    3  A    between atoms: C_3  and  C_4
REMARK    4  A    between atoms: C_3  and  C_5
REMARK    5  A    between atoms: N_6  and  N_7
REMARK    6  A    between atoms: C_8  and  C_10
REMARK    7  A    between atoms: C_13  and  O_14
REMARK                            x       y       z     vdW  Elec       q    Type
REMARK                         _______ _______ _______ _____ _____    ______ ____
ROOT
ATOM      1  N   UNL     1       2.298   6.619  20.263  0.00  0.00    +0.000 N 
ATOM      2  C   UNL     1       2.483   6.166  18.962  0.00  0.00    +0.000 C 
ATOM      3  O   UNL     1       2.342   6.851  17.953  0.00  0.00    +0.000 OA
ATOM      4  H   UNL     1       2.537   6.050  21.064  0.00  0.00    +0.000 HD
ENDROOT
BRANCH   2   5
ATOM      5  C   UNL     1       2.908   4.745  18.804  0.00  0.00    +0.000 A 
ATOM      6  C   UNL     1       3.929   4.172  19.576  0.00  0.00    +0.000 A 
ATOM      7  C   UNL     1       4.258   2.820  19.412  0.00  0.00    +0.000 A 
ATOM      8  C   UNL     1       3.567   2.052  18.478  0.00  0.00    +0.000 A 
ATOM      9  C   UNL     1       2.546   2.605  17.715  0.00  0.00    +0.000 A 
ATOM     10  C   UNL     1       2.213   3.948  17.881  0.00  0.00    +0.000 A 
BRANCH   8  11
ATOM     11  O   UNL     1       3.857   0.733  18.289  0.00  0.00    +0.000 OA
ATOM     12  H   UNL     1       4.393   0.417  19.035  0.00  0.00    +0.000 HD
ENDBRANCH   8  11
ENDBRANCH   2   5
BRANCH   1  14
ATOM     13  C   UNL     1       0.917   8.139  21.223  0.00  0.00    +0.000 C 
ATOM     14  N   UNL     1       1.927   7.919  20.452  0.00  0.00    +0.000 NA
BRANCH  13  15
ATOM     15  C   UNL     1       0.472   9.567  21.473  0.00  0.00    +0.000 C 
ATOM     16  C   UNL     1      -0.093   9.662  22.888  0.00  0.00    +0.000 C 
BRANCH  15  18
ATOM     17  C   UNL     1       0.063  10.564  19.159  0.00  0.00    +0.000 C 
ATOM     18  C   UNL     1      -0.563  10.016  20.435  0.00  0.00    +0.000 C 
ENDBRANCH  15  18
ENDBRANCH  13  15
ENDBRANCH   1  14
TORSDOF 5
ENDMDL
MODEL 8
REMARK VINA RESULT:      -5.9      2.092      6.962
REMARK  Name = 
REMARK  7 active torsions:
REMARK  status: ('A' for Active; 'I' for Inactive)
REMARK    1  A    between atoms: C_1  and  C_2
REMARK    2  A    between atoms: C_2  and  C_3
REMARK    3  A    between atoms: C_3  and  C_4
REMARK    4  A    between atoms: C_3  and  C_5
REMARK    5  A    between atoms: N_6  and  N_7
REMARK    6  A    between atoms: C_8  and  C_10
REMARK    7  A    between atoms: C_13  and  O_14
REMARK                            x       y       z     vdW  Elec       q    Type
REMARK                         _______ _______ _______ _____ _____    ______ ____
ROOT
ATOM      1  N   UNL     1       4.869   3.801  18.610  0.00  0.00    +0.000 N 
ATOM      2  C   UNL     1       4.470   3.814  17.279  0.00  0.00    +0.000 C 
ATOM      3  O   UNL     1       3.361   3.475  16.875  0.00  0.00    +0.000 OA
ATOM      4  H   UNL     1       5.751   4.197  18.905  0.00  0.00    +0.000 HD
ENDROOT
BRANCH   2   5
ATOM      5  C   UNL     1       5.471   4.302  16.287  0.00  0.00    +0.000 A 
ATOM      6  C   UNL     1       6.628   4.999  16.663  0.00  0.00    +0.000 A 
ATOM      7  C   UNL     1       7.554   5.399  15.690  0.00  0.00    +0.000 A 
ATOM      8  C   UNL     1       7.316   5.100  14.350  0.00  0.00    +0.000 A 
ATOM      9  C   UNL     1       6.179   4.400  13.966  0.00  0.00    +0.000 A 
ATOM     10  C   UNL     1       5.261   3.997  14.933  0.00  0.00    +0.000 A 
BRANCH   8  11
ATOM     11  O   UNL     1       8.193   5.470  13.374  0.00  0.00    +0.000 OA
ATOM     12  H   UNL     1       7.910   5.082  12.530  0.00  0.00    +0.000 HD
ENDBRANCH   8  11
ENDBRANCH   2   5
BRANCH   1  14
ATOM     13  C   UNL     1       3.124   4.244  19.988  0.00  0.00    +0.000 C 
ATOM     14  N   UNL     1       3.976   3.379  19.553  0.00  0.00    +0.000 NA
BRANCH  13  15
ATOM     15  C   UNL     1       2.105   3.822  21.029  0.00  0.00    +0.000 C 
ATOM     16  C   UNL     1       2.567   2.510  21.659  0.00  0.00    +0.000 C 
BRANCH  15  18
ATOM     17  C   UNL     1       0.672   2.716  19.230  0.00  0.00    +0.000 C 
ATOM     18  C   UNL     1       0.709   3.676  20.413  0.00  0.00    +0.000 C 
ENDBRANCH  15  18
ENDBRANCH  13  15
ENDBRANCH   1  14
TORSDOF 5
ENDMDL
MODEL 9
REMARK VINA RESULT:      -5.9      1.635      2.041
REMARK  Name = 
REMARK  7 active torsions:
REMARK  status: ('A' for Active; 'I' for Inactive)
REMARK    1  A    between atoms: C_1  and  C_2
REMARK    2  A    between atoms: C_2  and  C_3
REMARK    3  A    between atoms: C_3  and  C_4
REMARK    4  A    between atoms: C_3  and  C_5
REMARK    5  A    between atoms: N_6  and  N_7
REMARK    6  A    between atoms: C_8  and  C_10
REMARK    7  A    between atoms: C_13  and  O_14
REMARK                            x       y       z     vdW  Elec       q    Type
REMARK                         _______ _______ _______ _____ _____    ______ ____
ROOT
ATOM      1  N   UNL     1       5.170   3.663  16.459  0.00  0.00    +0.000 N 
ATOM      2  C   UNL     1       4.436   4.724  16.975  0.00  0.00    +0.000 C 
ATOM      3  O   UNL     1       4.630   5.907  16.710  0.00  0.00    +0.000 OA
ATOM      4  H   UNL     1       4.899   2.701  16.618  0.00  0.00    +0.000 HD
ENDROOT
BRANCH   2   5
ATOM      5  C   UNL     1       3.320   4.376  17.900  0.00  0.00    +0.000 A 
ATOM      6  C   UNL     1       2.315   3.458  17.560  0.00  0.00    +0.000 A 
ATOM      7  C   UNL     1       1.313   3.140  18.486  0.00  0.00    +0.000 A 
ATOM      8  C   UNL     1       1.320   3.741  19.742  0.00  0.00    +0.000 A 
ATOM      9  C   UNL     1       2.316   4.643  20.095  0.00  0.00    +0.000 A 
ATOM     10  C   UNL     1       3.317   4.956  19.178  0.00  0.00    +0.000 A 
BRANCH   8  11
ATOM     11  O   UNL     1       0.363   3.456  20.670  0.00  0.00    +0.000 OA
ATOM     12  H   UNL     1       0.745   3.549  21.558  0.00  0.00    +0.000 HD
ENDBRANCH   8  11
ENDBRANCH   2   5
BRANCH   1  14
ATOM     13  C   UNL     1       5.995   3.665  14.348  0.00  0.00    +0.000 C 
ATOM     14  N   UNL     1       6.189   3.937  15.593  0.00  0.00    +0.000 NA
BRANCH  13  15
ATOM     15  C   UNL     1       7.094   3.960  13.345  0.00  0.00    +0.000 C 
ATOM     16  C   UNL     1       7.525   5.416  13.508  0.00  0.00    +0.000 C 
BRANCH  15  18
ATOM     17  C   UNL     1       5.193   3.174  11.834  0.00  0.00    +0.000 C 
ATOM     18  C   UNL     1       6.628   3.680  11.911  0.00  0.00    +0.000 C 
ENDBRANCH  15  18
ENDBRANCH  13  15
ENDBRANCH   1  14
TORSDOF 5
ENDMDL
