MODEL 1
REMARK VINA RESULT:      -7.1      0.000      0.000
REMARK  Name = 
REMARK  8 active torsions:
REMARK  status: ('A' for Active; 'I' for Inactive)
REMARK    1  A    between atoms: C_1  and  C_2
REMARK    2  A    between atoms: C_2  and  C_3
REMARK    3  A    between atoms: C_3  and  C_4
REMARK    4  A    between atoms: C_4  and  C_5
REMARK    5  A    between atoms: C_6  and  C_7
REMARK    6  A    between atoms: C_8  and  C_9
REMARK    7  A    between atoms: C_14  and  O_15
REMARK    8  A    between atoms: O_15  and  C_16
REMARK                            x       y       z     vdW  Elec       q    Type
REMARK                         _______ _______ _______ _____ _____    ______ ____
ROOT
ATOM      1  C   UNL     1       5.764   5.408  17.628  0.00  0.00    +0.000 A 
ATOM      2  C   UNL     1       5.933   4.416  16.732  0.00  0.00    +0.000 A 
ATOM      3  C   UNL     1       7.043   4.418  15.707  0.00  0.00    +0.000 C 
ATOM      4  N   UNL     1       5.074   3.333  16.709  0.00  0.00    +0.000 N 
ATOM      5  C   UNL     1       3.988   3.238  17.588  0.00  0.00    +0.000 A 
ATOM      6  C   UNL     1       3.202   2.097  17.629  0.00  0.00    +0.000 A 
ATOM      7  C   UNL     1       2.215   1.963  18.611  0.00  0.00    +0.000 A 
ATOM      8  C   UNL     1       1.950   3.002  19.510  0.00  0.00    +0.000 A 
ATOM      9  C   UNL     1       2.709   4.163  19.458  0.00  0.00    +0.000 A 
ATOM     10  C   UNL     1       3.740   4.243  18.534  0.00  0.00    +0.000 A 
ATOM     11  C   UNL     1       4.626   5.426  18.591  0.00  0.00    +0.000 A 
ATOM     12  O   UNL     1       4.435   6.349  19.383  0.00  0.00    +0.000 OA
ATOM     13  H   UNL     1       5.152   2.675  15.941  0.00  0.00    +0.000 HD
ENDROOT
BRANCH   1  15
ATOM     14  C   UNL     1       7.356   7.740  17.560  0.00  0.00    +0.000 C 
ATOM     15  C   UNL     1       6.621   6.663  17.592  0.00  0.00    +0.000 C 
BRANCH  14  16
ATOM     16  C   UNL     1       8.212   8.994  17.522  0.00  0.00    +0.000 C 
BRANCH  16  17
ATOM     17  C   UNL     1       8.721   9.321  18.920  0.00  0.00    +0.000 C 
BRANCH  17  19
ATOM     18  C   UNL     1       9.009  11.666  18.072  0.00  0.00    +0.000 C 
ATOM     19  C   UNL     1       9.622  10.552  18.903  0.00  0.00    +0.000 C 
ENDBRANCH  17  19
ENDBRANCH  16  17
ENDBRANCH  14  16
ENDBRANCH   1  15
BRANCH   8  20
ATOM     20  O   UNL     1       1.007   2.997  20.498  0.00  0.00    +0.000 OA
ATOM     21  C   UNL     1       1.470   2.648  21.794  0.00  0.00    +0.000 C 
ENDBRANCH   8  20
TORSDOF 5
ENDMDL
MODEL 2
REMARK VINA RESULT:      -6.7      3.981      6.236
REMARK  Name = 
REMARK  8 active torsions:
REMARK  status: ('A' for Active; 'I' for Inactive)
REMARK    1  A    between atoms: C_1  and  C_2
REMARK    2  A    between atoms: C_2  and  C_3
REMARK    3  A    between atoms: C_3  and  C_4
REMARK    4  A    between atoms: C_4  and  C_5
REMARK    5  A    between atoms: C_6  and  C_7
REMARK    6  A    between atoms: C_8  and  C_9
REMARK    7  A    between atoms: C_14  and  O_15
REMARK    8  A    between atoms: O_15  and  C_16
REMARK                            x       y       z     vdW  Elec       q    Type
REMARK                         _______ _______ _______ _____ _____    ______ ____
ROOT
ATOM      1  C   UNL     1       3.995   6.289  17.923  0.00  0.00    +0.000 A 
ATOM      2  C   UNL     1       3.850   5.579  19.059  0.00  0.00    +0.000 A 
ATOM      3  C   UNL     1       4.602   4.296  19.325  0.00  0.00    +0.000 C 
ATOM      4  N   UNL     1       2.981   6.001  20.049  0.00  0.00    +0.000 N 
ATOM      5  C   UNL     1       2.204   7.157  19.900  0.00  0.00    +0.000 A 
ATOM      6  C   UNL     1       1.422   7.629  20.943  0.00  0.00    +0.000 A 
ATOM      7  C   UNL     1       0.769   8.860  20.825  0.00  0.00    +0.000 A 
ATOM      8  C   UNL     1       0.825   9.592  19.634  0.00  0.00    +0.000 A 
ATOM      9  C   UNL     1       1.579   9.114  18.571  0.00  0.00    +0.000 A 
ATOM     10  C   UNL     1       2.289   7.935  18.737  0.00  0.00    +0.000 A 
ATOM     11  C   UNL     1       3.197   7.518  17.646  0.00  0.00    +0.000 A 
ATOM     12  O   UNL     1       3.288   8.151  16.593  0.00  0.00    +0.000 OA
ATOM     13  H   UNL     1       2.800   5.376  20.826  0.00  0.00    +0.000 HD
ENDROOT
BRANCH   1  15
ATOM     14  C   UNL     1       5.584   5.344  15.789  0.00  0.00    +0.000 C 
ATOM     15  C   UNL     1       4.850   5.781  16.774  0.00  0.00    +0.000 C 
BRANCH  14  16
ATOM     16  C   UNL     1       6.440   4.834  14.642  0.00  0.00    +0.000 C 
BRANCH  16  17
ATOM     17  C   UNL     1       5.621   3.908  13.752  0.00  0.00    +0.000 C 
BRANCH  17  19
ATOM     18  C   UNL     1       5.670   2.490  11.681  0.00  0.00    +0.000 C 
ATOM     19  C   UNL     1       6.358   3.603  12.451  0.00  0.00    +0.000 C 
ENDBRANCH  17  19
ENDBRANCH  16  17
ENDBRANCH  14  16
ENDBRANCH   1  15
BRANCH   8  20
ATOM     20  O   UNL     1       0.220  10.792  19.392  0.00  0.00    +0.000 OA
ATOM     21  C   UNL     1      -1.058  10.728  18.778  0.00  0.00    +0.000 C 
ENDBRANCH   8  20
TORSDOF 5
ENDMDL
MODEL 3
REMARK VINA RESULT:      -6.7      2.929      5.437
REMARK  Name = 
REMARK  8 active torsions:
REMARK  status: ('A' for Active; 'I' for Inactive)
REMARK    1  A    between atoms: C_1  and  C_2
REMARK    2  A    between atoms: C_2  and  C_3
REMARK    3  A    between atoms: C_3  and  C_4
REMARK    4  A    between atoms: C_4  and  C_5
REMARK    5  A    between atoms: C_6  and  C_7
REMARK    6  A    between atoms: C_8  and  C_9
REMARK    7  A    between atoms: C_14  and  O_15
REMARK    8  A    between atoms: O_15  and  C_16
REMARK                            x       y       z     vdW  Elec       q    Type
REMARK                         _______ _______ _______ _____ _____    ______ ____
ROOT
ATOM      1  C   UNL     1       4.528   4.932  16.372  0.00  0.00    +0.000 A 
ATOM      2  C   UNL     1       4.687   6.203  16.790  0.00  0.00    +0.000 A 
ATOM      3  C   UNL     1       5.498   7.223  16.024  0.00  0.00    +0.000 C 
ATOM      4  N   UNL     1       4.108   6.636  17.968  0.00  0.00    +0.000 N 
ATOM      5  C   UNL     1       3.363   5.771  18.781  0.00  0.00    +0.000 A 
ATOM      6  C   UNL     1       2.695   6.243  19.900  0.00  0.00    +0.000 A 
ATOM      7  C   UNL     1       1.841   5.397  20.613  0.00  0.00    +0.000 A 
ATOM      8  C   UNL     1       1.709   4.049  20.264  0.00  0.00    +0.000 A 
ATOM      9  C   UNL     1       2.397   3.556  19.164  0.00  0.00    +0.000 A 
ATOM     10  C   UNL     1       3.172   4.430  18.417  0.00  0.00    +0.000 A 
ATOM     11  C   UNL     1       3.781   3.920  17.170  0.00  0.00    +0.000 A 
ATOM     12  O   UNL     1       3.667   2.744  16.821  0.00  0.00    +0.000 OA
ATOM     13  H   UNL     1       4.357   7.554  18.316  0.00  0.00    +0.000 HD
ENDROOT
BRANCH   1  15
ATOM     14  C   UNL     1       5.880   3.952  14.094  0.00  0.00    +0.000 C 
ATOM     15  C   UNL     1       5.256   4.404  15.145  0.00  0.00    +0.000 C 
BRANCH  14  16
ATOM     16  C   UNL     1       6.608   3.424  12.869  0.00  0.00    +0.000 C 
BRANCH  16  17
ATOM     17  C   UNL     1       5.616   2.776  11.912  0.00  0.00    +0.000 C 
BRANCH  17  19
ATOM     18  C   UNL     1       3.458   3.069  10.663  0.00  0.00    +0.000 C 
ATOM     19  C   UNL     1       4.405   3.676  11.684  0.00  0.00    +0.000 C 
ENDBRANCH  17  19
ENDBRANCH  16  17
ENDBRANCH  14  16
ENDBRANCH   1  15
BRANCH   8  20
ATOM     20  O   UNL     1       0.923   3.123  20.889  0.00  0.00    +0.000 OA
ATOM     21  C   UNL     1       1.547   2.381  21.927  0.00  0.00    +0.000 C 
ENDBRANCH   8  20
TORSDOF 5
ENDMDL
MODEL 4
REMARK VINA RESULT:      -6.7      3.802      5.648
REMARK  Name = 
REMARK  8 active torsions:
REMARK  status: ('A' for Active; 'I' for Inactive)
REMARK    1  A    between atoms: C_1  and  C_2
REMARK    2  A    between atoms: C_2  and  C_3
REMARK    3  A    between atoms: C_3  and  C_4
REMARK    4  A    between atoms: C_4  and  C_5
REMARK    5  A    between atoms: C_6  and  C_7
REMARK    6  A    between atoms: C_8  and  C_9
REMARK    7  A    between atoms: C_14  and  O_15
REMARK    8  A    between atoms: O_15  and  C_16
REMARK                            x       y       z     vdW  Elec       q    Type
REMARK                         _______ _______ _______ _____ _____    ______ ____
ROOT
ATOM      1  C   UNL     1       4.135   4.482  17.170  0.00  0.00    +0.000 A 
ATOM      2  C   UNL     1       3.609   3.413  17.800  0.00  0.00    +0.000 A 
ATOM      3  C   UNL     1       3.914   1.990  17.393  0.00  0.00    +0.000 C 
ATOM      4  N   UNL     1       2.743   3.577  18.865  0.00  0.00    +0.000 N 
ATOM      5  C   UNL     1       2.359   4.850  19.310  0.00  0.00    +0.000 A 
ATOM      6  C   UNL     1       1.581   5.002  20.446  0.00  0.00    +0.000 A 
ATOM      7  C   UNL     1       1.331   6.280  20.955  0.00  0.00    +0.000 A 
ATOM      8  C   UNL     1       1.788   7.422  20.288  0.00  0.00    +0.000 A 
ATOM      9  C   UNL     1       2.542   7.283  19.132  0.00  0.00    +0.000 A 
ATOM     10  C   UNL     1       2.853   6.006  18.689  0.00  0.00    +0.000 A 
ATOM     11  C   UNL     1       3.774   5.880  17.539  0.00  0.00    +0.000 A 
ATOM     12  O   UNL     1       4.213   6.864  16.942  0.00  0.00    +0.000 OA
ATOM     13  H   UNL     1       2.267   2.760  19.227  0.00  0.00    +0.000 HD
ENDROOT
BRANCH   1  15
ATOM     14  C   UNL     1       5.724   4.190  14.853  0.00  0.00    +0.000 C 
ATOM     15  C   UNL     1       4.991   4.325  15.923  0.00  0.00    +0.000 C 
BRANCH  14  16
ATOM     16  C   UNL     1       6.578   4.033  13.606  0.00  0.00    +0.000 C 
BRANCH  16  17
ATOM     17  C   UNL     1       5.860   3.155  12.590  0.00  0.00    +0.000 C 
BRANCH  17  19
ATOM     18  C   UNL     1       3.892   2.981  11.040  0.00  0.00    +0.000 C 
ATOM     19  C   UNL     1       4.687   3.897  11.955  0.00  0.00    +0.000 C 
ENDBRANCH  17  19
ENDBRANCH  16  17
ENDBRANCH  14  16
ENDBRANCH   1  15
BRANCH   8  20
ATOM     20  O   UNL     1       1.595   8.717  20.675  0.00  0.00    +0.000 OA
ATOM     21  C   UNL     1       0.592   8.927  21.658  0.00  0.00    +0.000 C 
ENDBRANCH   8  20
TORSDOF 5
ENDMDL
MODEL 5
REMARK VINA RESULT:      -6.7      3.072      6.921
REMARK  Name = 
REMARK  8 active torsions:
REMARK  status: ('A' for Active; 'I' for Inactive)
REMARK    1  A    between atoms: C_1  and  C_2
REMARK    2  A    between atoms: C_2  and  C_3
REMARK    3  A    between atoms: C_3  and  C_4
REMARK    4  A    between atoms: C_4  and  C_5
REMARK    5  A    between atoms: C_6  and  C_7
REMARK    6  A    between atoms: C_8  and  C_9
REMARK    7  A    between atoms: C_14  and  O_15
REMARK    8  A    between atoms: O_15  and  C_16
REMARK                            x       y       z     vdW  Elec       q    Type
REMARK                         _______ _______ _______ _____ _____    ______ ____
ROOT
ATOM      1  C   UNL     1       5.428   4.957  17.205  0.00  0.00    +0.000 A 
ATOM      2  C   UNL     1       6.581   5.652  17.129  0.00  0.00    +0.000 A 
ATOM      3  C   UNL     1       7.152   6.422  18.298  0.00  0.00    +0.000 C 
ATOM      4  N   UNL     1       7.302   5.696  15.951  0.00  0.00    +0.000 N 
ATOM      5  C   UNL     1       6.853   5.050  14.791  0.00  0.00    +0.000 A 
ATOM      6  C   UNL     1       7.638   5.009  13.650  0.00  0.00    +0.000 A 
ATOM      7  C   UNL     1       7.238   4.238  12.554  0.00  0.00    +0.000 A 
ATOM      8  C   UNL     1       6.011   3.567  12.557  0.00  0.00    +0.000 A 
ATOM      9  C   UNL     1       5.201   3.626  13.682  0.00  0.00    +0.000 A 
ATOM     10  C   UNL     1       5.653   4.324  14.791  0.00  0.00    +0.000 A 
ATOM     11  C   UNL     1       4.843   4.257  16.027  0.00  0.00    +0.000 A 
ATOM     12  O   UNL     1       3.768   3.657  16.071  0.00  0.00    +0.000 OA
ATOM     13  H   UNL     1       8.089   6.332  15.893  0.00  0.00    +0.000 HD
ENDROOT
BRANCH   1  15
ATOM     14  C   UNL     1       3.815   5.029  19.522  0.00  0.00    +0.000 C 
ATOM     15  C   UNL     1       4.560   4.996  18.453  0.00  0.00    +0.000 C 
BRANCH  14  16
ATOM     16  C   UNL     1       2.946   5.068  20.768  0.00  0.00    +0.000 C 
BRANCH  16  17
ATOM     17  C   UNL     1       1.489   4.830  20.395  0.00  0.00    +0.000 C 
BRANCH  17  19
ATOM     18  C   UNL     1       0.926   2.701  19.188  0.00  0.00    +0.000 C 
ATOM     19  C   UNL     1       1.117   3.358  20.544  0.00  0.00    +0.000 C 
ENDBRANCH  17  19
ENDBRANCH  16  17
ENDBRANCH  14  16
ENDBRANCH   1  15
BRANCH   8  20
ATOM     20  O   UNL     1       5.505   2.799  11.547  0.00  0.00    +0.000 OA
ATOM     21  C   UNL     1       4.155   3.058  11.190  0.00  0.00    +0.000 C 
ENDBRANCH   8  20
TORSDOF 5
ENDMDL
MODEL 6
REMARK VINA RESULT:      -6.7      4.103      6.505
REMARK  Name = 
REMARK  8 active torsions:
REMARK  status: ('A' for Active; 'I' for Inactive)
REMARK    1  A    between atoms: C_1  and  C_2
REMARK    2  A    between atoms: C_2  and  C_3
REMARK    3  A    between atoms: C_3  and  C_4
REMARK    4  A    between atoms: C_4  and  C_5
REMARK    5  A    between atoms: C_6  and  C_7
REMARK    6  A    between atoms: C_8  and  C_9
REMARK    7  A    between atoms: C_14  and  O_15
REMARK    8  A    between atoms: O_15  and  C_16
REMARK                            x       y       z     vdW  Elec       q    Type
REMARK                         _______ _______ _______ _____ _____    ______ ____
ROOT
ATOM      1  C   UNL     1       2.489   6.578  19.133  0.00  0.00    +0.000 A 
ATOM      2  C   UNL     1       2.351   5.299  19.535  0.00  0.00    +0.000 A 
ATOM      3  C   UNL     1       1.432   4.890  20.663  0.00  0.00    +0.000 C 
ATOM      4  N   UNL     1       3.065   4.286  18.924  0.00  0.00    +0.000 N 
ATOM      5  C   UNL     1       3.975   4.549  17.890  0.00  0.00    +0.000 A 
ATOM      6  C   UNL     1       4.600   3.515  17.212  0.00  0.00    +0.000 A 
ATOM      7  C   UNL     1       5.390   3.792  16.092  0.00  0.00    +0.000 A 
ATOM      8  C   UNL     1       5.628   5.110  15.687  0.00  0.00    +0.000 A 
ATOM      9  C   UNL     1       5.032   6.156  16.378  0.00  0.00    +0.000 A 
ATOM     10  C   UNL     1       4.183   5.858  17.433  0.00  0.00    +0.000 A 
ATOM     11  C   UNL     1       3.448   6.976  18.064  0.00  0.00    +0.000 A 
ATOM     12  O   UNL     1       3.617   8.147  17.719  0.00  0.00    +0.000 OA
ATOM     13  H   UNL     1       3.036   3.361  19.337  0.00  0.00    +0.000 HD
ENDROOT
BRANCH   1  15
ATOM     14  C   UNL     1       1.220   8.698  20.502  0.00  0.00    +0.000 C 
ATOM     15  C   UNL     1       1.807   7.719  19.870  0.00  0.00    +0.000 C 
BRANCH  14  16
ATOM     16  C   UNL     1       0.537   9.838  21.238  0.00  0.00    +0.000 C 
BRANCH  16  17
ATOM     17  C   UNL     1       0.246   9.429  22.676  0.00  0.00    +0.000 C 
BRANCH  17  19
ATOM     18  C   UNL     1      -0.979  11.620  22.594  0.00  0.00    +0.000 C 
ATOM     19  C   UNL     1      -0.893  10.258  23.263  0.00  0.00    +0.000 C 
ENDBRANCH  17  19
ENDBRANCH  16  17
ENDBRANCH  14  16
ENDBRANCH   1  15
BRANCH   8  20
ATOM     20  O   UNL     1       6.389   5.506  14.625  0.00  0.00    +0.000 OA
ATOM     21  C   UNL     1       6.740   4.487  13.701  0.00  0.00    +0.000 C 
ENDBRANCH   8  20
TORSDOF 5
ENDMDL
MODEL 7
REMARK VINA RESULT:      -6.6      3.783      6.306
REMARK  Name = 
REMARK  8 active torsions:
REMARK  status: ('A' for Active; 'I' for Inactive)
REMARK    1  A    between atoms: C_1  and  C_2
REMARK    2  A    between atoms: C_2  and  C_3
REMARK    3  A    between atoms: C_3  and  C_4
REMARK    4  A    between atoms: C_4  and  C_5
REMARK    5  A    between atoms: C_6  and  C_7
REMARK    6  A    between atoms: C_8  and  C_9
REMARK    7  A    between atoms: C_14  and  O_15
REMARK    8  A    between atoms: O_15  and  C_16
REMARK                            x       y       z     vdW  Elec       q    Type
REMARK                         _______ _______ _______ _____ _____    ______ ____
ROOT
ATOM      1  C   UNL     1       2.482   6.352  19.357  0.00  0.00    +0.000 A 
ATOM      2  C   UNL     1       2.423   5.050  19.700  0.00  0.00    +0.000 A 
ATOM      3  C   UNL     1       1.588   4.542  20.853  0.00  0.00    +0.000 C 
ATOM      4  N   UNL     1       3.146   4.103  18.998  0.00  0.00    +0.000 N 
ATOM      5  C   UNL     1       3.982   4.459  17.932  0.00  0.00    +0.000 A 
ATOM      6  C   UNL     1       4.614   3.491  17.168  0.00  0.00    +0.000 A 
ATOM      7  C   UNL     1       5.325   3.860  16.022  0.00  0.00    +0.000 A 
ATOM      8  C   UNL     1       5.481   5.206  15.674  0.00  0.00    +0.000 A 
ATOM      9  C   UNL     1       4.880   6.187  16.450  0.00  0.00    +0.000 A 
ATOM     10  C   UNL     1       4.107   5.798  17.533  0.00  0.00    +0.000 A 
ATOM     11  C   UNL     1       3.360   6.847  18.260  0.00  0.00    +0.000 A 
ATOM     12  O   UNL     1       3.457   8.040  17.967  0.00  0.00    +0.000 OA
ATOM     13  H   UNL     1       3.181   3.159  19.364  0.00  0.00    +0.000 HD
ENDROOT
BRANCH   1  15
ATOM     14  C   UNL     1       1.201   8.340  20.901  0.00  0.00    +0.000 C 
ATOM     15  C   UNL     1       1.792   7.422  20.189  0.00  0.00    +0.000 C 
BRANCH  14  16
ATOM     16  C   UNL     1       0.512   9.410  21.731  0.00  0.00    +0.000 C 
BRANCH  16  17
ATOM     17  C   UNL     1      -0.497  10.165  20.875  0.00  0.00    +0.000 C 
BRANCH  17  19
ATOM     18  C   UNL     1      -0.947  10.348  18.411  0.00  0.00    +0.000 C 
ATOM     19  C   UNL     1       0.091  10.508  19.509  0.00  0.00    +0.000 C 
ENDBRANCH  17  19
ENDBRANCH  16  17
ENDBRANCH  14  16
ENDBRANCH   1  15
BRANCH   8  20
ATOM     20  O   UNL     1       6.163   5.690  14.594  0.00  0.00    +0.000 OA
ATOM     21  C   UNL     1       6.930   4.739  13.870  0.00  0.00    +0.000 C 
ENDBRANCH   8  20
TORSDOF 5
ENDMDL
MODEL 8
REMARK VINA RESULT:      -6.6      3.903      6.038
REMARK  Name = 
REMARK  8 active torsions:
REMARK  status: ('A' for Active; 'I' for Inactive)
REMARK    1  A    between atoms: C_1  and  C_2
REMARK    2  A    between atoms: C_2  and  C_3
REMARK    3  A    between atoms: C_3  and  C_4
REMARK    4  A    between atoms: C_4  and  C_5
REMARK    5  A    between atoms: C_6  and  C_7
REMARK    6  A    between atoms: C_8  and  C_9
REMARK    7  A    between atoms: C_14  and  O_15
REMARK    8  A    between atoms: O_15  and  C_16
REMARK                            x       y       z     vdW  Elec       q    Type
REMARK                         _______ _______ _______ _____ _____    ______ ____
ROOT
ATOM      1  C   UNL     1       3.986   5.250  17.947  0.00  0.00    +0.000 A 
ATOM      2  C   UNL     1       3.643   4.460  18.983  0.00  0.00    +0.000 A 
ATOM      3  C   UNL     1       4.131   3.037  19.126  0.00  0.00    +0.000 C 
ATOM      4  N   UNL     1       2.803   4.926  19.978  0.00  0.00    +0.000 N 
ATOM      5  C   UNL     1       2.259   6.217  19.934  0.00  0.00    +0.000 A 
ATOM      6  C   UNL     1       1.511   6.710  20.991  0.00  0.00    +0.000 A 
ATOM      7  C   UNL     1       1.101   8.047  20.992  0.00  0.00    +0.000 A 
ATOM      8  C   UNL     1       1.365   8.881  19.901  0.00  0.00    +0.000 A 
ATOM      9  C   UNL     1       2.087   8.389  18.822  0.00  0.00    +0.000 A 
ATOM     10  C   UNL     1       2.559   7.087  18.876  0.00  0.00    +0.000 A 
ATOM     11  C   UNL     1       3.445   6.629  17.784  0.00  0.00    +0.000 A 
ATOM     12  O   UNL     1       3.715   7.344  16.818  0.00  0.00    +0.000 OA
ATOM     13  H   UNL     1       2.463   4.266  20.667  0.00  0.00    +0.000 HD
ENDROOT
BRANCH   1  15
ATOM     14  C   UNL     1       5.512   4.263  15.785  0.00  0.00    +0.000 C 
ATOM     15  C   UNL     1       4.808   4.718  16.783  0.00  0.00    +0.000 C 
BRANCH  14  16
ATOM     16  C   UNL     1       6.333   3.733  14.621  0.00  0.00    +0.000 C 
BRANCH  16  17
ATOM     17  C   UNL     1       5.788   4.277  13.307  0.00  0.00    +0.000 C 
BRANCH  17  19
ATOM     18  C   UNL     1       4.442   3.170  11.499  0.00  0.00    +0.000 C 
ATOM     19  C   UNL     1       5.774   3.197  12.230  0.00  0.00    +0.000 C 
ENDBRANCH  17  19
ENDBRANCH  16  17
ENDBRANCH  14  16
ENDBRANCH   1  15
BRANCH   8  20
ATOM     20  O   UNL     1       1.004  10.193  19.778  0.00  0.00    +0.000 OA
ATOM     21  C   UNL     1      -0.316  10.431  19.312  0.00  0.00    +0.000 C 
ENDBRANCH   8  20
TORSDOF 5
ENDMDL
MODEL 9
REMARK VINA RESULT:      -6.5      4.544      6.877
REMARK  Name = 
REMARK  8 active torsions:
REMARK  status: ('A' for Active; 'I' for Inactive)
REMARK    1  A    between atoms: C_1  and  C_2
REMARK    2  A    between atoms: C_2  and  C_3
REMARK    3  A    between atoms: C_3  and  C_4
REMARK    4  A    between atoms: C_4  and  C_5
REMARK    5  A    between atoms: C_6  and  C_7
REMARK    6  A    between atoms: C_8  and  C_9
REMARK    7  A    between atoms: C_14  and  O_15
REMARK    8  A    between atoms: O_15  and  C_16
REMARK                            x       y       z     vdW  Elec       q    Type
REMARK                         _______ _______ _______ _____ _____    ______ ____
ROOT
ATOM      1  C   UNL     1       2.757   6.737  18.851  0.00  0.00    +0.000 A 
ATOM      2  C   UNL     1       2.317   6.345  20.063  0.00  0.00    +0.000 A 
ATOM      3  C   UNL     1       2.609   4.979  20.640  0.00  0.00    +0.000 C 
ATOM      4  N   UNL     1       1.555   7.194  20.845  0.00  0.00    +0.000 N 
ATOM      5  C   UNL     1       1.191   8.472  20.401  0.00  0.00    +0.000 A 
ATOM      6  C   UNL     1       0.523   9.353  21.237  0.00  0.00    +0.000 A 
ATOM      7  C   UNL     1       0.299  10.671  20.827  0.00  0.00    +0.000 A 
ATOM      8  C   UNL     1       0.665  11.098  19.547  0.00  0.00    +0.000 A 
ATOM      9  C   UNL     1       1.306  10.216  18.688  0.00  0.00    +0.000 A 
ATOM     10  C   UNL     1       1.598   8.939  19.143  0.00  0.00    +0.000 A 
ATOM     11  C   UNL     1       2.406   8.063  18.268  0.00  0.00    +0.000 A 
ATOM     12  O   UNL     1       2.765   8.414  17.142  0.00  0.00    +0.000 OA
ATOM     13  H   UNL     1       1.133   6.821  21.687  0.00  0.00    +0.000 HD
ENDROOT
BRANCH   1  15
ATOM     14  C   UNL     1       4.119   4.957  17.133  0.00  0.00    +0.000 C 
ATOM     15  C   UNL     1       3.491   5.778  17.927  0.00  0.00    +0.000 C 
BRANCH  14  16
ATOM     16  C   UNL     1       4.852   3.999  16.209  0.00  0.00    +0.000 C 
BRANCH  16  17
ATOM     17  C   UNL     1       6.334   4.345  16.168  0.00  0.00    +0.000 C 
BRANCH  17  19
ATOM     18  C   UNL     1       6.147   3.881  13.707  0.00  0.00    +0.000 C 
ATOM     19  C   UNL     1       6.758   4.780  14.768  0.00  0.00    +0.000 C 
ENDBRANCH  17  19
ENDBRANCH  16  17
ENDBRANCH  14  16
ENDBRANCH   1  15
BRANCH   8  20
ATOM     20  O   UNL     1       0.485  12.348  19.027  0.00  0.00    +0.000 OA
ATOM     21  C   UNL     1       1.657  12.995  18.552  0.00  0.00    +0.000 C 
ENDBRANCH   8  20
TORSDOF 5
ENDMDL
