MODEL 1
REMARK VINA RESULT:      -6.5      0.000      0.000
REMARK  Name = 
REMARK  6 active torsions:
REMARK  status: ('A' for Active; 'I' for Inactive)
REMARK    1  A    between atoms: C_1  and  C_2
REMARK    2  A    between atoms: C_2  and  N_3
REMARK    3  A    between atoms: C_4  and  C_5
REMARK    4  A    between atoms: C_5  and  O_7
REMARK    5  A    between atoms: C_11  and  O_12
REMARK    6  A    between atoms: C_13  and  O_14
REMARK                            x       y       z     vdW  Elec       q    Type
REMARK                         _______ _______ _______ _____ _____    ______ ____
ROOT
ATOM      1  N   UNL     1       5.170   4.093  17.287  0.00  0.00    +0.000 N 
ATOM      2  C   UNL     1       6.076   4.780  18.082  0.00  0.00    +0.000 A 
ATOM      3  C   UNL     1       5.440   4.984  19.301  0.00  0.00    +0.000 A 
ATOM      4  C   UNL     1       4.122   4.470  19.229  0.00  0.00    +0.000 A 
ATOM      5  C   UNL     1       3.055   4.417  20.152  0.00  0.00    +0.000 A 
ATOM      6  C   UNL     1       1.860   3.827  19.748  0.00  0.00    +0.000 A 
ATOM      7  C   UNL     1       1.716   3.305  18.471  0.00  0.00    +0.000 A 
ATOM      8  C   UNL     1       2.754   3.340  17.544  0.00  0.00    +0.000 A 
ATOM      9  C   UNL     1       3.964   3.928  17.953  0.00  0.00    +0.000 A 
ENDROOT
BRANCH   1  11
ATOM     10  C   UNL     1       5.423   4.725  14.905  0.00  0.00    +0.000 C 
ATOM     11  C   UNL     1       5.403   3.605  15.932  0.00  0.00    +0.000 C 
ENDBRANCH   1  11
BRANCH   2  12
ATOM     12  C   UNL     1       7.422   5.150  17.696  0.00  0.00    +0.000 C 
ATOM     13  O   UNL     1       7.803   6.262  17.371  0.00  0.00    +0.000 OA
BRANCH  12  14
ATOM     14  O   UNL     1       8.275   4.094  17.751  0.00  0.00    +0.000 OA
ATOM     15  H   UNL     1       9.088   4.233  17.233  0.00  0.00    +0.000 HD
ENDBRANCH  12  14
ENDBRANCH   2  12
BRANCH   6  16
ATOM     16  O   UNL     1       0.784   3.740  20.592  0.00  0.00    +0.000 OA
ATOM     17  H   UNL     1       0.589   4.634  20.924  0.00  0.00    +0.000 HD
ENDBRANCH   6  16
BRANCH   7  18
ATOM     18  O   UNL     1       0.530   2.732  18.101  0.00  0.00    +0.000 OA
ATOM     19  H   UNL     1      -0.092   2.983  18.812  0.00  0.00    +0.000 HD
ENDBRANCH   7  18
TORSDOF 5
ENDMDL
MODEL 2
REMARK VINA RESULT:      -6.4      1.494      5.644
REMARK  Name = 
REMARK  6 active torsions:
REMARK  status: ('A' for Active; 'I' for Inactive)
REMARK    1  A    between atoms: C_1  and  C_2
REMARK    2  A    between atoms: C_2  and  N_3
REMARK    3  A    between atoms: C_4  and  C_5
REMARK    4  A    between atoms: C_5  and  O_7
REMARK    5  A    between atoms: C_11  and  O_12
REMARK    6  A    between atoms: C_13  and  O_14
REMARK                            x       y       z     vdW  Elec       q    Type
REMARK                         _______ _______ _______ _____ _____    ______ ____
ROOT
ATOM      1  N   UNL     1       3.834   4.561  18.475  0.00  0.00    +0.000 N 
ATOM      2  C   UNL     1       3.123   3.492  17.946  0.00  0.00    +0.000 A 
ATOM      3  C   UNL     1       3.778   3.139  16.772  0.00  0.00    +0.000 A 
ATOM      4  C   UNL     1       4.857   4.031  16.555  0.00  0.00    +0.000 A 
ATOM      5  C   UNL     1       5.828   4.142  15.537  0.00  0.00    +0.000 A 
ATOM      6  C   UNL     1       6.772   5.161  15.630  0.00  0.00    +0.000 A 
ATOM      7  C   UNL     1       6.761   6.051  16.695  0.00  0.00    +0.000 A 
ATOM      8  C   UNL     1       5.817   5.960  17.715  0.00  0.00    +0.000 A 
ATOM      9  C   UNL     1       4.869   4.926  17.626  0.00  0.00    +0.000 A 
ENDROOT
BRANCH   1  11
ATOM     10  C   UNL     1       2.619   6.422  19.567  0.00  0.00    +0.000 C 
ATOM     11  C   UNL     1       3.561   5.243  19.735  0.00  0.00    +0.000 C 
ENDBRANCH   1  11
BRANCH   2  12
ATOM     12  C   UNL     1       1.964   2.870  18.553  0.00  0.00    +0.000 C 
ATOM     13  O   UNL     1       0.893   3.406  18.785  0.00  0.00    +0.000 OA
BRANCH  12  14
ATOM     14  O   UNL     1       2.181   1.560  18.838  0.00  0.00    +0.000 OA
ATOM     15  H   UNL     1       2.694   1.428  19.655  0.00  0.00    +0.000 HD
ENDBRANCH  12  14
ENDBRANCH   2  12
BRANCH   6  16
ATOM     16  O   UNL     1       7.744   5.327  14.679  0.00  0.00    +0.000 OA
ATOM     17  H   UNL     1       8.609   5.204  15.108  0.00  0.00    +0.000 HD
ENDBRANCH   6  16
BRANCH   7  18
ATOM     18  O   UNL     1       7.699   7.043  16.762  0.00  0.00    +0.000 OA
ATOM     19  H   UNL     1       8.348   6.809  16.069  0.00  0.00    +0.000 HD
ENDBRANCH   7  18
TORSDOF 5
ENDMDL
MODEL 3
REMARK VINA RESULT:      -6.3      2.133      3.044
REMARK  Name = 
REMARK  6 active torsions:
REMARK  status: ('A' for Active; 'I' for Inactive)
REMARK    1  A    between atoms: C_1  and  C_2
REMARK    2  A    between atoms: C_2  and  N_3
REMARK    3  A    between atoms: C_4  and  C_5
REMARK    4  A    between atoms: C_5  and  O_7
REMARK    5  A    between atoms: C_11  and  O_12
REMARK    6  A    between atoms: C_13  and  O_14
REMARK                            x       y       z     vdW  Elec       q    Type
REMARK                         _______ _______ _______ _____ _____    ______ ____
ROOT
ATOM      1  N   UNL     1       3.633   6.072  17.853  0.00  0.00    +0.000 N 
ATOM      2  C   UNL     1       4.585   5.709  16.911  0.00  0.00    +0.000 A 
ATOM      3  C   UNL     1       4.406   4.348  16.689  0.00  0.00    +0.000 A 
ATOM      4  C   UNL     1       3.381   3.870  17.541  0.00  0.00    +0.000 A 
ATOM      5  C   UNL     1       2.807   2.596  17.739  0.00  0.00    +0.000 A 
ATOM      6  C   UNL     1       1.790   2.466  18.681  0.00  0.00    +0.000 A 
ATOM      7  C   UNL     1       1.350   3.561  19.413  0.00  0.00    +0.000 A 
ATOM      8  C   UNL     1       1.896   4.829  19.233  0.00  0.00    +0.000 A 
ATOM      9  C   UNL     1       2.917   4.962  18.276  0.00  0.00    +0.000 A 
ENDROOT
BRANCH   1  11
ATOM     10  C   UNL     1       2.252   8.118  17.649  0.00  0.00    +0.000 C 
ATOM     11  C   UNL     1       3.392   7.416  18.367  0.00  0.00    +0.000 C 
ENDBRANCH   1  11
BRANCH   2  12
ATOM     12  C   UNL     1       5.526   6.609  16.275  0.00  0.00    +0.000 C 
ATOM     13  O   UNL     1       6.564   7.031  16.758  0.00  0.00    +0.000 OA
BRANCH  12  14
ATOM     14  O   UNL     1       5.138   6.944  15.018  0.00  0.00    +0.000 OA
ATOM     15  H   UNL     1       5.877   7.242  14.457  0.00  0.00    +0.000 HD
ENDBRANCH  12  14
ENDBRANCH   2  12
BRANCH   6  16
ATOM     16  O   UNL     1       1.187   1.260  18.924  0.00  0.00    +0.000 OA
ATOM     17  H   UNL     1       1.886   0.594  19.047  0.00  0.00    +0.000 HD
ENDBRANCH   6  16
BRANCH   7  18
ATOM     18  O   UNL     1       0.350   3.406  20.333  0.00  0.00    +0.000 OA
ATOM     19  H   UNL     1      -0.431   3.153  19.801  0.00  0.00    +0.000 HD
ENDBRANCH   7  18
TORSDOF 5
ENDMDL
MODEL 4
REMARK VINA RESULT:      -6.3      1.598      2.814
REMARK  Name = 
REMARK  6 active torsions:
REMARK  status: ('A' for Active; 'I' for Inactive)
REMARK    1  A    between atoms: C_1  and  C_2
REMARK    2  A    between atoms: C_2  and  N_3
REMARK    3  A    between atoms: C_4  and  C_5
REMARK    4  A    between atoms: C_5  and  O_7
REMARK    5  A    between atoms: C_11  and  O_12
REMARK    6  A    between atoms: C_13  and  O_14
REMARK                            x       y       z     vdW  Elec       q    Type
REMARK                         _______ _______ _______ _____ _____    ______ ____
ROOT
ATOM      1  N   UNL     1       5.615   5.335  17.440  0.00  0.00    +0.000 N 
ATOM      2  C   UNL     1       5.607   4.594  16.266  0.00  0.00    +0.000 A 
ATOM      3  C   UNL     1       4.406   3.893  16.263  0.00  0.00    +0.000 A 
ATOM      4  C   UNL     1       3.707   4.163  17.465  0.00  0.00    +0.000 A 
ATOM      5  C   UNL     1       2.470   3.722  17.982  0.00  0.00    +0.000 A 
ATOM      6  C   UNL     1       2.067   4.193  19.228  0.00  0.00    +0.000 A 
ATOM      7  C   UNL     1       2.861   5.072  19.951  0.00  0.00    +0.000 A 
ATOM      8  C   UNL     1       4.083   5.526  19.462  0.00  0.00    +0.000 A 
ATOM      9  C   UNL     1       4.486   5.058  18.199  0.00  0.00    +0.000 A 
ENDROOT
BRANCH   1  11
ATOM     10  C   UNL     1       7.687   5.629  18.765  0.00  0.00    +0.000 C 
ATOM     11  C   UNL     1       6.647   6.274  17.864  0.00  0.00    +0.000 C 
ENDBRANCH   1  11
BRANCH   2  12
ATOM     12  C   UNL     1       6.641   4.614  15.253  0.00  0.00    +0.000 C 
ATOM     13  O   UNL     1       7.559   5.413  15.169  0.00  0.00    +0.000 OA
BRANCH  12  14
ATOM     14  O   UNL     1       6.502   3.595  14.365  0.00  0.00    +0.000 OA
ATOM     15  H   UNL     1       7.348   3.171  14.136  0.00  0.00    +0.000 HD
ENDBRANCH  12  14
ENDBRANCH   2  12
BRANCH   6  16
ATOM     16  O   UNL     1       0.878   3.808  19.790  0.00  0.00    +0.000 OA
ATOM     17  H   UNL     1       0.894   2.840  19.894  0.00  0.00    +0.000 HD
ENDBRANCH   6  16
BRANCH   7  18
ATOM     18  O   UNL     1       2.442   5.518  21.174  0.00  0.00    +0.000 OA
ATOM     19  H   UNL     1       2.793   4.859  21.805  0.00  0.00    +0.000 HD
ENDBRANCH   7  18
TORSDOF 5
ENDMDL
MODEL 5
REMARK VINA RESULT:      -6.3      3.576      4.978
REMARK  Name = 
REMARK  6 active torsions:
REMARK  status: ('A' for Active; 'I' for Inactive)
REMARK    1  A    between atoms: C_1  and  C_2
REMARK    2  A    between atoms: C_2  and  N_3
REMARK    3  A    between atoms: C_4  and  C_5
REMARK    4  A    between atoms: C_5  and  O_7
REMARK    5  A    between atoms: C_11  and  O_12
REMARK    6  A    between atoms: C_13  and  O_14
REMARK                            x       y       z     vdW  Elec       q    Type
REMARK                         _______ _______ _______ _____ _____    ______ ____
ROOT
ATOM      1  N   UNL     1       2.849   5.067  19.682  0.00  0.00    +0.000 N 
ATOM      2  C   UNL     1       3.572   4.438  18.677  0.00  0.00    +0.000 A 
ATOM      3  C   UNL     1       3.762   5.394  17.685  0.00  0.00    +0.000 A 
ATOM      4  C   UNL     1       3.106   6.591  18.062  0.00  0.00    +0.000 A 
ATOM      5  C   UNL     1       2.966   7.851  17.442  0.00  0.00    +0.000 A 
ATOM      6  C   UNL     1       2.235   8.836  18.101  0.00  0.00    +0.000 A 
ATOM      7  C   UNL     1       1.653   8.588  19.336  0.00  0.00    +0.000 A 
ATOM      8  C   UNL     1       1.780   7.356  19.971  0.00  0.00    +0.000 A 
ATOM      9  C   UNL     1       2.525   6.364  19.310  0.00  0.00    +0.000 A 
ENDROOT
BRANCH   1  11
ATOM     10  C   UNL     1       1.228   3.594  20.837  0.00  0.00    +0.000 C 
ATOM     11  C   UNL     1       2.454   4.483  20.958  0.00  0.00    +0.000 C 
ENDBRANCH   1  11
BRANCH   2  12
ATOM     12  C   UNL     1       4.051   3.072  18.715  0.00  0.00    +0.000 C 
ATOM     13  O   UNL     1       3.477   2.090  18.274  0.00  0.00    +0.000 OA
BRANCH  12  14
ATOM     14  O   UNL     1       5.274   2.979  19.300  0.00  0.00    +0.000 OA
ATOM     15  H   UNL     1       5.971   2.693  18.682  0.00  0.00    +0.000 HD
ENDBRANCH  12  14
ENDBRANCH   2  12
BRANCH   6  16
ATOM     16  O   UNL     1       2.060  10.082  17.558  0.00  0.00    +0.000 OA
ATOM     17  H   UNL     1       1.679  10.658  18.244  0.00  0.00    +0.000 HD
ENDBRANCH   6  16
BRANCH   7  18
ATOM     18  O   UNL     1       0.939   9.574  19.961  0.00  0.00    +0.000 OA
ATOM     19  H   UNL     1       1.617  10.216  20.251  0.00  0.00    +0.000 HD
ENDBRANCH   7  18
TORSDOF 5
ENDMDL
MODEL 6
REMARK VINA RESULT:      -6.3      1.659      5.443
REMARK  Name = 
REMARK  6 active torsions:
REMARK  status: ('A' for Active; 'I' for Inactive)
REMARK    1  A    between atoms: C_1  and  C_2
REMARK    2  A    between atoms: C_2  and  N_3
REMARK    3  A    between atoms: C_4  and  C_5
REMARK    4  A    between atoms: C_5  and  O_7
REMARK    5  A    between atoms: C_11  and  O_12
REMARK    6  A    between atoms: C_13  and  O_14
REMARK                            x       y       z     vdW  Elec       q    Type
REMARK                         _______ _______ _______ _____ _____    ______ ____
ROOT
ATOM      1  N   UNL     1       3.435   3.502  18.902  0.00  0.00    +0.000 N 
ATOM      2  C   UNL     1       2.142   3.974  18.725  0.00  0.00    +0.000 A 
ATOM      3  C   UNL     1       2.264   5.178  18.039  0.00  0.00    +0.000 A 
ATOM      4  C   UNL     1       3.637   5.467  17.848  0.00  0.00    +0.000 A 
ATOM      5  C   UNL     1       4.322   6.539  17.237  0.00  0.00    +0.000 A 
ATOM      6  C   UNL     1       5.714   6.513  17.222  0.00  0.00    +0.000 A 
ATOM      7  C   UNL     1       6.416   5.463  17.797  0.00  0.00    +0.000 A 
ATOM      8  C   UNL     1       5.765   4.391  18.402  0.00  0.00    +0.000 A 
ATOM      9  C   UNL     1       4.359   4.412  18.410  0.00  0.00    +0.000 A 
ENDROOT
BRANCH   1  11
ATOM     10  C   UNL     1       3.833   1.085  18.536  0.00  0.00    +0.000 C 
ATOM     11  C   UNL     1       3.817   2.239  19.524  0.00  0.00    +0.000 C 
ENDBRANCH   1  11
BRANCH   2  12
ATOM     12  C   UNL     1       0.934   3.296  19.144  0.00  0.00    +0.000 C 
ATOM     13  O   UNL     1       0.334   2.433  18.523  0.00  0.00    +0.000 OA
BRANCH  12  14
ATOM     14  O   UNL     1       0.514   3.713  20.366  0.00  0.00    +0.000 OA
ATOM     15  H   UNL     1       0.926   4.551  20.645  0.00  0.00    +0.000 HD
ENDBRANCH  12  14
ENDBRANCH   2  12
BRANCH   6  16
ATOM     16  O   UNL     1       6.443   7.519  16.645  0.00  0.00    +0.000 OA
ATOM     17  H   UNL     1       7.025   7.899  17.327  0.00  0.00    +0.000 HD
ENDBRANCH   6  16
BRANCH   7  18
ATOM     18  O   UNL     1       7.783   5.463  17.770  0.00  0.00    +0.000 OA
ATOM     19  H   UNL     1       8.006   5.642  16.834  0.00  0.00    +0.000 HD
ENDBRANCH   7  18
TORSDOF 5
ENDMDL
MODEL 7
REMARK VINA RESULT:      -6.2      1.655      5.074
REMARK  Name = 
REMARK  6 active torsions:
REMARK  status: ('A' for Active; 'I' for Inactive)
REMARK    1  A    between atoms: C_1  and  C_2
REMARK    2  A    between atoms: C_2  and  N_3
REMARK    3  A    between atoms: C_4  and  C_5
REMARK    4  A    between atoms: C_5  and  O_7
REMARK    5  A    between atoms: C_11  and  O_12
REMARK    6  A    between atoms: C_13  and  O_14
REMARK                            x       y       z     vdW  Elec       q    Type
REMARK                         _______ _______ _______ _____ _____    ______ ____
ROOT
ATOM      1  N   UNL     1       3.047   4.292  18.412  0.00  0.00    +0.000 N 
ATOM      2  C   UNL     1       3.295   4.864  19.652  0.00  0.00    +0.000 A 
ATOM      3  C   UNL     1       4.626   5.266  19.631  0.00  0.00    +0.000 A 
ATOM      4  C   UNL     1       5.206   4.887  18.396  0.00  0.00    +0.000 A 
ATOM      5  C   UNL     1       6.501   5.032  17.853  0.00  0.00    +0.000 A 
ATOM      6  C   UNL     1       6.743   4.532  16.576  0.00  0.00    +0.000 A 
ATOM      7  C   UNL     1       5.740   3.903  15.853  0.00  0.00    +0.000 A 
ATOM      8  C   UNL     1       4.454   3.751  16.363  0.00  0.00    +0.000 A 
ATOM      9  C   UNL     1       4.206   4.263  17.649  0.00  0.00    +0.000 A 
ENDROOT
BRANCH   1  11
ATOM     10  C   UNL     1       1.507   2.353  18.417  0.00  0.00    +0.000 C 
ATOM     11  C   UNL     1       1.770   3.770  17.939  0.00  0.00    +0.000 C 
ENDBRANCH   1  11
BRANCH   2  12
ATOM     12  C   UNL     1       2.320   5.031  20.710  0.00  0.00    +0.000 C 
ATOM     13  O   UNL     1       1.910   4.162  21.462  0.00  0.00    +0.000 OA
BRANCH  12  14
ATOM     14  O   UNL     1       1.895   6.317  20.811  0.00  0.00    +0.000 OA
ATOM     15  H   UNL     1       1.926   6.659  21.723  0.00  0.00    +0.000 HD
ENDBRANCH  12  14
ENDBRANCH   2  12
BRANCH   6  16
ATOM     16  O   UNL     1       7.975   4.639  15.988  0.00  0.00    +0.000 OA
ATOM     17  H   UNL     1       7.899   4.323  15.070  0.00  0.00    +0.000 HD
ENDBRANCH   6  16
BRANCH   7  18
ATOM     18  O   UNL     1       6.006   3.419  14.601  0.00  0.00    +0.000 OA
ATOM     19  H   UNL     1       6.808   2.872  14.719  0.00  0.00    +0.000 HD
ENDBRANCH   7  18
TORSDOF 5
ENDMDL
MODEL 8
REMARK VINA RESULT:      -6.2      1.104      1.109
REMARK  Name = 
REMARK  6 active torsions:
REMARK  status: ('A' for Active; 'I' for Inactive)
REMARK    1  A    between atoms: C_1  and  C_2
REMARK    2  A    between atoms: C_2  and  N_3
REMARK    3  A    between atoms: C_4  and  C_5
REMARK    4  A    between atoms: C_5  and  O_7
REMARK    5  A    between atoms: C_11  and  O_12
REMARK    6  A    between atoms: C_13  and  O_14
REMARK                            x       y       z     vdW  Elec       q    Type
REMARK                         _______ _______ _______ _____ _____    ______ ____
ROOT
ATOM      1  N   UNL     1       5.719   4.609  17.347  0.00  0.00    +0.000 N 
ATOM      2  C   UNL     1       6.223   5.601  18.177  0.00  0.00    +0.000 A 
ATOM      3  C   UNL     1       5.394   5.625  19.293  0.00  0.00    +0.000 A 
ATOM      4  C   UNL     1       4.350   4.685  19.116  0.00  0.00    +0.000 A 
ATOM      5  C   UNL     1       3.246   4.307  19.911  0.00  0.00    +0.000 A 
ATOM      6  C   UNL     1       2.387   3.324  19.428  0.00  0.00    +0.000 A 
ATOM      7  C   UNL     1       2.605   2.729  18.193  0.00  0.00    +0.000 A 
ATOM      8  C   UNL     1       3.688   3.080  17.391  0.00  0.00    +0.000 A 
ATOM      9  C   UNL     1       4.560   4.067  17.883  0.00  0.00    +0.000 A 
ENDROOT
BRANCH   1  11
ATOM     10  C   UNL     1       5.660   4.877  14.885  0.00  0.00    +0.000 C 
ATOM     11  C   UNL     1       6.288   4.173  16.076  0.00  0.00    +0.000 C 
ENDBRANCH   1  11
BRANCH   2  12
ATOM     12  C   UNL     1       7.406   6.395  17.916  0.00  0.00    +0.000 C 
ATOM     13  O   UNL     1       7.691   6.948  16.867  0.00  0.00    +0.000 OA
BRANCH  12  14
ATOM     14  O   UNL     1       8.204   6.492  19.011  0.00  0.00    +0.000 OA
ATOM     15  H   UNL     1       9.122   6.734  18.793  0.00  0.00    +0.000 HD
ENDBRANCH  12  14
ENDBRANCH   2  12
BRANCH   6  16
ATOM     16  O   UNL     1       1.298   2.908  20.147  0.00  0.00    +0.000 OA
ATOM     17  H   UNL     1       0.814   2.256  19.609  0.00  0.00    +0.000 HD
ENDBRANCH   6  16
BRANCH   7  18
ATOM     18  O   UNL     1       1.745   1.766  17.742  0.00  0.00    +0.000 OA
ATOM     19  H   UNL     1       2.016   0.957  18.219  0.00  0.00    +0.000 HD
ENDBRANCH   7  18
TORSDOF 5
ENDMDL
MODEL 9
REMARK VINA RESULT:      -6.2      1.721      5.297
REMARK  Name = 
REMARK  6 active torsions:
REMARK  status: ('A' for Active; 'I' for Inactive)
REMARK    1  A    between atoms: C_1  and  C_2
REMARK    2  A    between atoms: C_2  and  N_3
REMARK    3  A    between atoms: C_4  and  C_5
REMARK    4  A    between atoms: C_5  and  O_7
REMARK    5  A    between atoms: C_11  and  O_12
REMARK    6  A    between atoms: C_13  and  O_14
REMARK                            x       y       z     vdW  Elec       q    Type
REMARK                         _______ _______ _______ _____ _____    ______ ____
ROOT
ATOM      1  N   UNL     1       3.929   3.575  19.514  0.00  0.00    +0.000 N 
ATOM      2  C   UNL     1       2.897   4.306  20.086  0.00  0.00    +0.000 A 
ATOM      3  C   UNL     1       3.014   5.596  19.579  0.00  0.00    +0.000 A 
ATOM      4  C   UNL     1       4.153   5.664  18.741  0.00  0.00    +0.000 A 
ATOM      5  C   UNL     1       4.739   6.707  17.991  0.00  0.00    +0.000 A 
ATOM      6  C   UNL     1       5.889   6.430  17.257  0.00  0.00    +0.000 A 
ATOM      7  C   UNL     1       6.451   5.161  17.261  0.00  0.00    +0.000 A 
ATOM      8  C   UNL     1       5.891   4.114  17.988  0.00  0.00    +0.000 A 
ATOM      9  C   UNL     1       4.725   4.391  18.723  0.00  0.00    +0.000 A 
ENDROOT
BRANCH   1  11
ATOM     10  C   UNL     1       3.592   1.302  18.589  0.00  0.00    +0.000 C 
ATOM     11  C   UNL     1       4.186   2.151  19.700  0.00  0.00    +0.000 C 
ENDBRANCH   1  11
BRANCH   2  12
ATOM     12  C   UNL     1       1.893   3.781  20.988  0.00  0.00    +0.000 C 
ATOM     13  O   UNL     1       2.081   3.374  22.123  0.00  0.00    +0.000 OA
BRANCH  12  14
ATOM     14  O   UNL     1       0.653   3.801  20.435  0.00  0.00    +0.000 OA
ATOM     15  H   UNL     1       0.257   2.914  20.355  0.00  0.00    +0.000 HD
ENDBRANCH  12  14
ENDBRANCH   2  12
BRANCH   6  16
ATOM     16  O   UNL     1       6.509   7.393  16.506  0.00  0.00    +0.000 OA
ATOM     17  H   UNL     1       6.002   8.219  16.598  0.00  0.00    +0.000 HD
ENDBRANCH   6  16
BRANCH   7  18
ATOM     18  O   UNL     1       7.582   4.916  16.531  0.00  0.00    +0.000 OA
ATOM     19  H   UNL     1       7.691   5.716  15.979  0.00  0.00    +0.000 HD
ENDBRANCH   7  18
TORSDOF 5
ENDMDL
