MODEL 1
REMARK VINA RESULT:      -5.3      0.000      0.000
REMARK  Name = 
REMARK  1 active torsions:
REMARK  status: ('A' for Active; 'I' for Inactive)
REMARK    1  A    between atoms: C_5  and  C_6
REMARK                            x       y       z     vdW  Elec       q    Type
REMARK                         _______ _______ _______ _____ _____    ______ ____
ROOT
ATOM      1  C   UNL     1       5.786   4.307  16.179  0.00  0.00    +0.000 A 
ATOM      2  C   UNL     1       6.803   4.568  17.080  0.00  0.00    +0.000 A 
ATOM      3  N   UNL     1       6.645   4.520  18.418  0.00  0.00    +0.000 NA
ATOM      4  C   UNL     1       5.408   4.192  18.873  0.00  0.00    +0.000 A 
ATOM      5  C   UNL     1       4.310   3.907  18.061  0.00  0.00    +0.000 A 
ATOM      6  C   UNL     1       4.527   3.973  16.679  0.00  0.00    +0.000 A 
ENDROOT
BRANCH   5   7
ATOM      7  C   UNL     1       2.995   3.528  18.599  0.00  0.00    +0.000 A 
ATOM      8  C   UNL     1       2.010   2.751  18.008  0.00  0.00    +0.000 A 
ATOM      9  C   UNL     1       0.855   2.597  18.829  0.00  0.00    +0.000 A 
ATOM     10  C   UNL     1       0.982   3.265  20.022  0.00  0.00    +0.000 A 
ATOM     11  S   UNL     1       2.478   4.076  20.146  0.00  0.00    +0.000 S 
ENDBRANCH   5   7
TORSDOF 1
ENDMDL
MODEL 2
REMARK VINA RESULT:      -5.3      2.219      4.707
REMARK  Name = 
REMARK  1 active torsions:
REMARK  status: ('A' for Active; 'I' for Inactive)
REMARK    1  A    between atoms: C_5  and  C_6
REMARK                            x       y       z     vdW  Elec       q    Type
REMARK                         _______ _______ _______ _____ _____    ______ ____
ROOT
ATOM      1  C   UNL     1       1.390   3.964  18.133  0.00  0.00    +0.000 A 
ATOM      2  C   UNL     1       1.300   2.655  18.570  0.00  0.00    +0.000 A 
ATOM      3  N   UNL     1       2.334   1.790  18.552  0.00  0.00    +0.000 NA
ATOM      4  C   UNL     1       3.514   2.262  18.074  0.00  0.00    +0.000 A 
ATOM      5  C   UNL     1       3.722   3.561  17.607  0.00  0.00    +0.000 A 
ATOM      6  C   UNL     1       2.616   4.418  17.646  0.00  0.00    +0.000 A 
ENDROOT
BRANCH   5   7
ATOM      7  C   UNL     1       5.027   4.037  17.124  0.00  0.00    +0.000 A 
ATOM      8  C   UNL     1       5.541   3.994  15.837  0.00  0.00    +0.000 A 
ATOM      9  C   UNL     1       6.850   4.549  15.741  0.00  0.00    +0.000 A 
ATOM     10  C   UNL     1       7.306   4.997  16.957  0.00  0.00    +0.000 A 
ATOM     11  S   UNL     1       6.168   4.741  18.202  0.00  0.00    +0.000 S 
ENDBRANCH   5   7
TORSDOF 1
ENDMDL
MODEL 3
REMARK VINA RESULT:      -5.2      1.172      1.380
REMARK  Name = 
REMARK  1 active torsions:
REMARK  status: ('A' for Active; 'I' for Inactive)
REMARK    1  A    between atoms: C_5  and  C_6
REMARK                            x       y       z     vdW  Elec       q    Type
REMARK                         _______ _______ _______ _____ _____    ______ ____
ROOT
ATOM      1  C   UNL     1       6.912   4.523  16.568  0.00  0.00    +0.000 A 
ATOM      2  C   UNL     1       7.584   4.918  17.710  0.00  0.00    +0.000 A 
ATOM      3  N   UNL     1       7.020   4.954  18.933  0.00  0.00    +0.000 NA
ATOM      4  C   UNL     1       5.718   4.575  19.014  0.00  0.00    +0.000 A 
ATOM      5  C   UNL     1       4.941   4.158  17.932  0.00  0.00    +0.000 A 
ATOM      6  C   UNL     1       5.576   4.140  16.684  0.00  0.00    +0.000 A 
ENDROOT
BRANCH   5   7
ATOM      7  C   UNL     1       3.541   3.729  18.071  0.00  0.00    +0.000 A 
ATOM      8  C   UNL     1       2.386   4.475  17.896  0.00  0.00    +0.000 A 
ATOM      9  C   UNL     1       1.197   3.723  18.121  0.00  0.00    +0.000 A 
ATOM     10  C   UNL     1       1.473   2.422  18.469  0.00  0.00    +0.000 A 
ATOM     11  S   UNL     1       3.150   2.117  18.530  0.00  0.00    +0.000 S 
ENDBRANCH   5   7
TORSDOF 1
ENDMDL
MODEL 4
REMARK VINA RESULT:      -5.2      0.966      1.266
REMARK  Name = 
REMARK  1 active torsions:
REMARK  status: ('A' for Active; 'I' for Inactive)
REMARK    1  A    between atoms: C_5  and  C_6
REMARK                            x       y       z     vdW  Elec       q    Type
REMARK                         _______ _______ _______ _____ _____    ______ ____
ROOT
ATOM      1  C   UNL     1       5.641   4.148  16.246  0.00  0.00    +0.000 A 
ATOM      2  C   UNL     1       6.719   4.481  17.046  0.00  0.00    +0.000 A 
ATOM      3  N   UNL     1       6.643   4.609  18.385  0.00  0.00    +0.000 NA
ATOM      4  C   UNL     1       5.427   4.392  18.949  0.00  0.00    +0.000 A 
ATOM      5  C   UNL     1       4.272   4.052  18.245  0.00  0.00    +0.000 A 
ATOM      6  C   UNL     1       4.405   3.933  16.856  0.00  0.00    +0.000 A 
ENDROOT
BRANCH   5   7
ATOM      7  C   UNL     1       2.980   3.798  18.901  0.00  0.00    +0.000 A 
ATOM      8  C   UNL     1       2.385   4.499  19.940  0.00  0.00    +0.000 A 
ATOM      9  C   UNL     1       1.124   3.959  20.325  0.00  0.00    +0.000 A 
ATOM     10  C   UNL     1       0.789   2.856  19.577  0.00  0.00    +0.000 A 
ATOM     11  S   UNL     1       1.991   2.474  18.427  0.00  0.00    +0.000 S 
ENDBRANCH   5   7
TORSDOF 1
ENDMDL
MODEL 5
REMARK VINA RESULT:      -5.2      1.454      1.754
REMARK  Name = 
REMARK  1 active torsions:
REMARK  status: ('A' for Active; 'I' for Inactive)
REMARK    1  A    between atoms: C_5  and  C_6
REMARK                            x       y       z     vdW  Elec       q    Type
REMARK                         _______ _______ _______ _____ _____    ______ ____
ROOT
ATOM      1  C   UNL     1       6.271   4.524  14.801  0.00  0.00    +0.000 A 
ATOM      2  C   UNL     1       7.357   4.789  15.617  0.00  0.00    +0.000 A 
ATOM      3  N   UNL     1       7.305   4.755  16.963  0.00  0.00    +0.000 NA
ATOM      4  C   UNL     1       6.106   4.440  17.518  0.00  0.00    +0.000 A 
ATOM      5  C   UNL     1       4.945   4.154  16.798  0.00  0.00    +0.000 A 
ATOM      6  C   UNL     1       5.054   4.204  15.402  0.00  0.00    +0.000 A 
ENDROOT
BRANCH   5   7
ATOM      7  C   UNL     1       3.674   3.789  17.441  0.00  0.00    +0.000 A 
ATOM      8  C   UNL     1       2.569   4.589  17.688  0.00  0.00    +0.000 A 
ATOM      9  C   UNL     1       1.510   3.891  18.338  0.00  0.00    +0.000 A 
ATOM     10  C   UNL     1       1.835   2.577  18.578  0.00  0.00    +0.000 A 
ATOM     11  S   UNL     1       3.405   2.195  18.030  0.00  0.00    +0.000 S 
ENDBRANCH   5   7
TORSDOF 1
ENDMDL
MODEL 6
REMARK VINA RESULT:      -5.2      2.120      2.815
REMARK  Name = 
REMARK  1 active torsions:
REMARK  status: ('A' for Active; 'I' for Inactive)
REMARK    1  A    between atoms: C_5  and  C_6
REMARK                            x       y       z     vdW  Elec       q    Type
REMARK                         _______ _______ _______ _____ _____    ______ ____
ROOT
ATOM      1  C   UNL     1       7.578   6.102  18.907  0.00  0.00    +0.000 A 
ATOM      2  C   UNL     1       7.822   7.122  18.005  0.00  0.00    +0.000 A 
ATOM      3  N   UNL     1       6.967   7.469  17.022  0.00  0.00    +0.000 NA
ATOM      4  C   UNL     1       5.811   6.760  16.943  0.00  0.00    +0.000 A 
ATOM      5  C   UNL     1       5.458   5.715  17.796  0.00  0.00    +0.000 A 
ATOM      6  C   UNL     1       6.382   5.393  18.799  0.00  0.00    +0.000 A 
ENDROOT
BRANCH   5   7
ATOM      7  C   UNL     1       4.181   4.993  17.691  0.00  0.00    +0.000 A 
ATOM      8  C   UNL     1       3.941   3.729  17.173  0.00  0.00    +0.000 A 
ATOM      9  C   UNL     1       2.568   3.354  17.231  0.00  0.00    +0.000 A 
ATOM     10  C   UNL     1       1.791   4.342  17.785  0.00  0.00    +0.000 A 
ATOM     11  S   UNL     1       2.710   5.711  18.223  0.00  0.00    +0.000 S 
ENDBRANCH   5   7
TORSDOF 1
ENDMDL
MODEL 7
REMARK VINA RESULT:      -5.2      1.526      1.641
REMARK  Name = 
REMARK  1 active torsions:
REMARK  status: ('A' for Active; 'I' for Inactive)
REMARK    1  A    between atoms: C_5  and  C_6
REMARK                            x       y       z     vdW  Elec       q    Type
REMARK                         _______ _______ _______ _____ _____    ______ ____
ROOT
ATOM      1  C   UNL     1       5.196   4.522  15.925  0.00  0.00    +0.000 A 
ATOM      2  C   UNL     1       5.423   5.886  15.949  0.00  0.00    +0.000 A 
ATOM      3  N   UNL     1       4.771   6.736  16.767  0.00  0.00    +0.000 NA
ATOM      4  C   UNL     1       3.848   6.190  17.602  0.00  0.00    +0.000 A 
ATOM      5  C   UNL     1       3.537   4.832  17.666  0.00  0.00    +0.000 A 
ATOM      6  C   UNL     1       4.242   3.992  16.793  0.00  0.00    +0.000 A 
ENDROOT
BRANCH   5   7
ATOM      7  C   UNL     1       2.550   4.281  18.606  0.00  0.00    +0.000 A 
ATOM      8  C   UNL     1       1.637   3.257  18.401  0.00  0.00    +0.000 A 
ATOM      9  C   UNL     1       0.830   2.993  19.545  0.00  0.00    +0.000 A 
ATOM     10  C   UNL     1       1.141   3.825  20.594  0.00  0.00    +0.000 A 
ATOM     11  S   UNL     1       2.389   4.918  20.196  0.00  0.00    +0.000 S 
ENDBRANCH   5   7
TORSDOF 1
ENDMDL
MODEL 8
REMARK VINA RESULT:      -5.1      2.276      4.771
REMARK  Name = 
REMARK  1 active torsions:
REMARK  status: ('A' for Active; 'I' for Inactive)
REMARK    1  A    between atoms: C_5  and  C_6
REMARK                            x       y       z     vdW  Elec       q    Type
REMARK                         _______ _______ _______ _____ _____    ______ ____
ROOT
ATOM      1  C   UNL     1       2.307   1.884  18.844  0.00  0.00    +0.000 A 
ATOM      2  C   UNL     1       1.191   2.642  18.542  0.00  0.00    +0.000 A 
ATOM      3  N   UNL     1       1.238   3.799  17.853  0.00  0.00    +0.000 NA
ATOM      4  C   UNL     1       2.466   4.214  17.445  0.00  0.00    +0.000 A 
ATOM      5  C   UNL     1       3.659   3.534  17.690  0.00  0.00    +0.000 A 
ATOM      6  C   UNL     1       3.554   2.338  18.412  0.00  0.00    +0.000 A 
ENDROOT
BRANCH   5   7
ATOM      7  C   UNL     1       4.964   4.007  17.205  0.00  0.00    +0.000 A 
ATOM      8  C   UNL     1       5.486   3.940  15.922  0.00  0.00    +0.000 A 
ATOM      9  C   UNL     1       6.793   4.499  15.822  0.00  0.00    +0.000 A 
ATOM     10  C   UNL     1       7.240   4.974  17.032  0.00  0.00    +0.000 A 
ATOM     11  S   UNL     1       6.095   4.738  18.275  0.00  0.00    +0.000 S 
ENDBRANCH   5   7
TORSDOF 1
ENDMDL
MODEL 9
REMARK VINA RESULT:      -5.1      2.307      4.647
REMARK  Name = 
REMARK  1 active torsions:
REMARK  status: ('A' for Active; 'I' for Inactive)
REMARK    1  A    between atoms: C_5  and  C_6
REMARK                            x       y       z     vdW  Elec       q    Type
REMARK                         _______ _______ _______ _____ _____    ______ ____
ROOT
ATOM      1  C   UNL     1       0.984   3.019  19.234  0.00  0.00    +0.000 A 
ATOM      2  C   UNL     1       1.027   3.580  20.498  0.00  0.00    +0.000 A 
ATOM      3  N   UNL     1       1.903   4.538  20.859  0.00  0.00    +0.000 NA
ATOM      4  C   UNL     1       2.778   4.953  19.907  0.00  0.00    +0.000 A 
ATOM      5  C   UNL     1       2.828   4.461  18.602  0.00  0.00    +0.000 A 
ATOM      6  C   UNL     1       1.896   3.466  18.279  0.00  0.00    +0.000 A 
ENDROOT
BRANCH   5   7
ATOM      7  C   UNL     1       3.775   4.961  17.594  0.00  0.00    +0.000 A 
ATOM      8  C   UNL     1       4.492   4.242  16.650  0.00  0.00    +0.000 A 
ATOM      9  C   UNL     1       5.323   5.066  15.836  0.00  0.00    +0.000 A 
ATOM     10  C   UNL     1       5.225   6.392  16.182  0.00  0.00    +0.000 A 
ATOM     11  S   UNL     1       4.147   6.636  17.482  0.00  0.00    +0.000 S 
ENDBRANCH   5   7
TORSDOF 1
ENDMDL
