MODEL 1
REMARK VINA RESULT:      -7.0      0.000      0.000
REMARK  Name = 
REMARK  6 active torsions:
REMARK  status: ('A' for Active; 'I' for Inactive)
REMARK    1  A    between atoms: C_1  and  C_2
REMARK    2  A    between atoms: N_4  and  C_5
REMARK    3  A    between atoms: C_5  and  C_6
REMARK    4  A    between atoms: C_5  and  C_7
REMARK    5  A    between atoms: C_10  and  N_11
REMARK    6  A    between atoms: N_12  and  N_13
REMARK                            x       y       z     vdW  Elec       q    Type
REMARK                         _______ _______ _______ _____ _____    ______ ____
ROOT
ATOM      1  C   UNL     1       6.301   5.257  17.224  0.00  0.00    +0.000 A 
ATOM      2  C   UNL     1       6.435   6.512  16.613  0.00  0.00    +0.000 A 
ATOM      3  C   UNL     1       7.254   7.499  17.175  0.00  0.00    +0.000 A 
ATOM      4  C   UNL     1       7.956   7.264  18.361  0.00  0.00    +0.000 A 
ATOM      5  C   UNL     1       7.868   5.987  18.938  0.00  0.00    +0.000 A 
ATOM      6  C   UNL     1       7.044   5.000  18.387  0.00  0.00    +0.000 A 
ENDROOT
BRANCH   1   7
ATOM      7  C   UNL     1       5.356   4.226  16.632  0.00  0.00    +0.000 C 
ATOM      8  C   UNL     1       5.492   4.147  15.109  0.00  0.00    +0.000 C 
BRANCH   7  12
ATOM      9  C   UNL     1       1.764   4.029  17.803  0.00  0.00    +0.000 C 
ATOM     10  C   UNL     1       3.154   3.533  17.517  0.00  0.00    +0.000 C 
ATOM     11  O   UNL     1       3.499   2.377  17.725  0.00  0.00    +0.000 OA
ATOM     12  N   UNL     1       3.983   4.510  17.017  0.00  0.00    +0.000 N 
ATOM     13  H   UNL     1       3.595   5.414  16.790  0.00  0.00    +0.000 HD
ENDBRANCH   7  12
ENDBRANCH   1   7
BRANCH   4  14
ATOM     14  N   UNL     1       8.727   8.316  18.902  0.00  0.00    +0.000 NA
ATOM     15  N   UNL     1       8.568   9.377  18.267  0.00  0.00    +0.000 NA
BRANCH  15  16
ATOM     16  N   UNL     1       9.288  10.410  18.752  0.00  0.00    +0.000 N 
ATOM     17  C   UNL     1      10.033  11.384  17.994  0.00  0.00    +0.000 C 
ATOM     18  C   UNL     1      11.103  11.818  18.985  0.00  0.00    +0.000 C 
ATOM     19  C   UNL     1      10.385  11.756  20.335  0.00  0.00    +0.000 C 
ATOM     20  C   UNL     1       9.360  10.636  20.175  0.00  0.00    +0.000 C 
ENDBRANCH  15  16
ENDBRANCH   4  14
TORSDOF 4
ENDMDL
MODEL 2
REMARK VINA RESULT:      -6.7      0.489      1.196
REMARK  Name = 
REMARK  6 active torsions:
REMARK  status: ('A' for Active; 'I' for Inactive)
REMARK    1  A    between atoms: C_1  and  C_2
REMARK    2  A    between atoms: N_4  and  C_5
REMARK    3  A    between atoms: C_5  and  C_6
REMARK    4  A    between atoms: C_5  and  C_7
REMARK    5  A    between atoms: C_10  and  N_11
REMARK    6  A    between atoms: N_12  and  N_13
REMARK                            x       y       z     vdW  Elec       q    Type
REMARK                         _______ _______ _______ _____ _____    ______ ____
ROOT
ATOM      1  C   UNL     1       6.310   5.151  17.050  0.00  0.00    +0.000 A 
ATOM      2  C   UNL     1       7.182   4.974  18.135  0.00  0.00    +0.000 A 
ATOM      3  C   UNL     1       7.874   6.061  18.683  0.00  0.00    +0.000 A 
ATOM      4  C   UNL     1       7.720   7.350  18.165  0.00  0.00    +0.000 A 
ATOM      5  C   UNL     1       6.801   7.535  17.119  0.00  0.00    +0.000 A 
ATOM      6  C   UNL     1       6.115   6.452  16.560  0.00  0.00    +0.000 A 
ENDROOT
BRANCH   1   7
ATOM      7  C   UNL     1       5.622   3.947  16.430  0.00  0.00    +0.000 C 
ATOM      8  C   UNL     1       6.031   3.760  14.966  0.00  0.00    +0.000 C 
BRANCH   7  12
ATOM      9  C   UNL     1       2.012   3.718  17.537  0.00  0.00    +0.000 C 
ATOM     10  C   UNL     1       3.501   3.531  17.629  0.00  0.00    +0.000 C 
ATOM     11  O   UNL     1       4.040   2.972  18.575  0.00  0.00    +0.000 OA
ATOM     12  N   UNL     1       4.179   4.062  16.556  0.00  0.00    +0.000 N 
ATOM     13  H   UNL     1       3.653   4.426  15.775  0.00  0.00    +0.000 HD
ENDBRANCH   7  12
ENDBRANCH   1   7
BRANCH   4  14
ATOM     14  N   UNL     1       8.481   8.395  18.732  0.00  0.00    +0.000 NA
ATOM     15  N   UNL     1       8.474   9.413  18.011  0.00  0.00    +0.000 NA
BRANCH  15  16
ATOM     16  N   UNL     1       9.191  10.437  18.517  0.00  0.00    +0.000 N 
ATOM     17  C   UNL     1       9.604  11.636  17.829  0.00  0.00    +0.000 C 
ATOM     18  C   UNL     1      10.851  12.040  18.600  0.00  0.00    +0.000 C 
ATOM     19  C   UNL     1      10.533  11.624  20.038  0.00  0.00    +0.000 C 
ATOM     20  C   UNL     1       9.620  10.409  19.894  0.00  0.00    +0.000 C 
ENDBRANCH  15  16
ENDBRANCH   4  14
TORSDOF 4
ENDMDL
MODEL 3
REMARK VINA RESULT:      -6.6      4.954      7.076
REMARK  Name = 
REMARK  6 active torsions:
REMARK  status: ('A' for Active; 'I' for Inactive)
REMARK    1  A    between atoms: C_1  and  C_2
REMARK    2  A    between atoms: N_4  and  C_5
REMARK    3  A    between atoms: C_5  and  C_6
REMARK    4  A    between atoms: C_5  and  C_7
REMARK    5  A    between atoms: C_10  and  N_11
REMARK    6  A    between atoms: N_12  and  N_13
REMARK                            x       y       z     vdW  Elec       q    Type
REMARK                         _______ _______ _______ _____ _____    ______ ____
ROOT
ATOM      1  C   UNL     1       3.099   4.625  18.661  0.00  0.00    +0.000 A 
ATOM      2  C   UNL     1       2.459   4.268  19.857  0.00  0.00    +0.000 A 
ATOM      3  C   UNL     1       1.855   5.239  20.664  0.00  0.00    +0.000 A 
ATOM      4  C   UNL     1       1.873   6.590  20.304  0.00  0.00    +0.000 A 
ATOM      5  C   UNL     1       2.460   6.937  19.077  0.00  0.00    +0.000 A 
ATOM      6  C   UNL     1       3.076   5.974  18.271  0.00  0.00    +0.000 A 
ENDROOT
BRANCH   1   7
ATOM      7  C   UNL     1       3.806   3.564  17.836  0.00  0.00    +0.000 C 
ATOM      8  C   UNL     1       3.523   2.157  18.370  0.00  0.00    +0.000 C 
BRANCH   7  12
ATOM      9  C   UNL     1       7.323   4.516  16.817  0.00  0.00    +0.000 C 
ATOM     10  C   UNL     1       5.832   4.380  16.678  0.00  0.00    +0.000 C 
ATOM     11  O   UNL     1       5.225   4.744  15.680  0.00  0.00    +0.000 OA
ATOM     12  N   UNL     1       5.235   3.823  17.786  0.00  0.00    +0.000 N 
ATOM     13  H   UNL     1       5.817   3.467  18.530  0.00  0.00    +0.000 HD
ENDBRANCH   7  12
ENDBRANCH   1   7
BRANCH   4  14
ATOM     14  N   UNL     1       1.286   7.526  21.184  0.00  0.00    +0.000 NA
ATOM     15  N   UNL     1       1.162   8.645  20.649  0.00  0.00    +0.000 NA
BRANCH  15  16
ATOM     16  N   UNL     1       0.604   9.570  21.457  0.00  0.00    +0.000 N 
ATOM     17  C   UNL     1       0.281   9.426  22.854  0.00  0.00    +0.000 C 
ATOM     18  C   UNL     1      -0.854  10.423  23.031  0.00  0.00    +0.000 C 
ATOM     19  C   UNL     1      -0.483  11.560  22.076  0.00  0.00    +0.000 C 
ATOM     20  C   UNL     1       0.274  10.877  20.940  0.00  0.00    +0.000 C 
ENDBRANCH  15  16
ENDBRANCH   4  14
TORSDOF 4
ENDMDL
MODEL 4
REMARK VINA RESULT:      -6.6      0.500      1.048
REMARK  Name = 
REMARK  6 active torsions:
REMARK  status: ('A' for Active; 'I' for Inactive)
REMARK    1  A    between atoms: C_1  and  C_2
REMARK    2  A    between atoms: N_4  and  C_5
REMARK    3  A    between atoms: C_5  and  C_6
REMARK    4  A    between atoms: C_5  and  C_7
REMARK    5  A    between atoms: C_10  and  N_11
REMARK    6  A    between atoms: N_12  and  N_13
REMARK                            x       y       z     vdW  Elec       q    Type
REMARK                         _______ _______ _______ _____ _____    ______ ____
ROOT
ATOM      1  C   UNL     1       6.406   5.235  17.254  0.00  0.00    +0.000 A 
ATOM      2  C   UNL     1       6.477   6.507  16.670  0.00  0.00    +0.000 A 
ATOM      3  C   UNL     1       7.269   7.513  17.238  0.00  0.00    +0.000 A 
ATOM      4  C   UNL     1       8.006   7.280  18.402  0.00  0.00    +0.000 A 
ATOM      5  C   UNL     1       7.981   5.988  18.951  0.00  0.00    +0.000 A 
ATOM      6  C   UNL     1       7.184   4.982  18.395  0.00  0.00    +0.000 A 
ENDROOT
BRANCH   1   7
ATOM      7  C   UNL     1       5.488   4.180  16.659  0.00  0.00    +0.000 C 
ATOM      8  C   UNL     1       5.801   3.933  15.181  0.00  0.00    +0.000 C 
BRANCH   7  12
ATOM      9  C   UNL     1       1.910   4.517  17.840  0.00  0.00    +0.000 C 
ATOM     10  C   UNL     1       3.335   4.039  17.865  0.00  0.00    +0.000 C 
ATOM     11  O   UNL     1       3.763   3.279  18.724  0.00  0.00    +0.000 OA
ATOM     12  N   UNL     1       4.096   4.553  16.841  0.00  0.00    +0.000 N 
ATOM     13  H   UNL     1       3.644   5.101  16.122  0.00  0.00    +0.000 HD
ENDBRANCH   7  12
ENDBRANCH   1   7
BRANCH   4  14
ATOM     14  N   UNL     1       8.748   8.349  18.951  0.00  0.00    +0.000 NA
ATOM     15  N   UNL     1       8.549   9.413  18.330  0.00  0.00    +0.000 NA
BRANCH  15  16
ATOM     16  N   UNL     1       9.240  10.462  18.823  0.00  0.00    +0.000 N 
ATOM     17  C   UNL     1       9.376  10.843  20.207  0.00  0.00    +0.000 C 
ATOM     18  C   UNL     1       9.633  12.339  20.108  0.00  0.00    +0.000 C 
ATOM     19  C   UNL     1      10.448  12.477  18.821  0.00  0.00    +0.000 C 
ATOM     20  C   UNL     1       9.956  11.339  17.930  0.00  0.00    +0.000 C 
ENDBRANCH  15  16
ENDBRANCH   4  14
TORSDOF 4
ENDMDL
MODEL 5
REMARK VINA RESULT:      -6.6      1.240      1.296
REMARK  Name = 
REMARK  6 active torsions:
REMARK  status: ('A' for Active; 'I' for Inactive)
REMARK    1  A    between atoms: C_1  and  C_2
REMARK    2  A    between atoms: N_4  and  C_5
REMARK    3  A    between atoms: C_5  and  C_6
REMARK    4  A    between atoms: C_5  and  C_7
REMARK    5  A    between atoms: C_10  and  N_11
REMARK    6  A    between atoms: N_12  and  N_13
REMARK                            x       y       z     vdW  Elec       q    Type
REMARK                         _______ _______ _______ _____ _____    ______ ____
ROOT
ATOM      1  C   UNL     1       6.352   5.537  17.748  0.00  0.00    +0.000 A 
ATOM      2  C   UNL     1       6.048   6.642  16.939  0.00  0.00    +0.000 A 
ATOM      3  C   UNL     1       6.778   7.832  17.048  0.00  0.00    +0.000 A 
ATOM      4  C   UNL     1       7.825   7.955  17.965  0.00  0.00    +0.000 A 
ATOM      5  C   UNL     1       8.167   6.829  18.731  0.00  0.00    +0.000 A 
ATOM      6  C   UNL     1       7.435   5.641  18.635  0.00  0.00    +0.000 A 
ENDROOT
BRANCH   1   7
ATOM      7  C   UNL     1       5.504   4.280  17.660  0.00  0.00    +0.000 C 
ATOM      8  C   UNL     1       5.088   3.983  16.216  0.00  0.00    +0.000 C 
BRANCH   7  12
ATOM      9  C   UNL     1       2.850   3.775  20.308  0.00  0.00    +0.000 C 
ATOM     10  C   UNL     1       4.137   3.520  19.574  0.00  0.00    +0.000 C 
ATOM     11  O   UNL     1       4.918   2.635  19.897  0.00  0.00    +0.000 OA
ATOM     12  N   UNL     1       4.341   4.386  18.525  0.00  0.00    +0.000 N 
ATOM     13  H   UNL     1       3.605   5.028  18.269  0.00  0.00    +0.000 HD
ENDBRANCH   7  12
ENDBRANCH   1   7
BRANCH   4  14
ATOM     14  N   UNL     1       8.491   9.196  18.059  0.00  0.00    +0.000 NA
ATOM     15  N   UNL     1       8.950   9.388  19.202  0.00  0.00    +0.000 NA
BRANCH  15  16
ATOM     16  N   UNL     1       9.596  10.564  19.335  0.00  0.00    +0.000 N 
ATOM     17  C   UNL     1      10.250  11.322  18.296  0.00  0.00    +0.000 C 
ATOM     18  C   UNL     1      11.300  12.101  19.074  0.00  0.00    +0.000 C 
ATOM     19  C   UNL     1      10.614  12.390  20.410  0.00  0.00    +0.000 C 
ATOM     20  C   UNL     1       9.676  11.204  20.626  0.00  0.00    +0.000 C 
ENDBRANCH  15  16
ENDBRANCH   4  14
TORSDOF 4
ENDMDL
MODEL 6
REMARK VINA RESULT:      -6.6      4.994      7.006
REMARK  Name = 
REMARK  6 active torsions:
REMARK  status: ('A' for Active; 'I' for Inactive)
REMARK    1  A    between atoms: C_1  and  C_2
REMARK    2  A    between atoms: N_4  and  C_5
REMARK    3  A    between atoms: C_5  and  C_6
REMARK    4  A    between atoms: C_5  and  C_7
REMARK    5  A    between atoms: C_10  and  N_11
REMARK    6  A    between atoms: N_12  and  N_13
REMARK                            x       y       z     vdW  Elec       q    Type
REMARK                         _______ _______ _______ _____ _____    ______ ____
ROOT
ATOM      1  C   UNL     1       2.987   4.812  18.496  0.00  0.00    +0.000 A 
ATOM      2  C   UNL     1       3.097   6.198  18.317  0.00  0.00    +0.000 A 
ATOM      3  C   UNL     1       2.528   7.088  19.237  0.00  0.00    +0.000 A 
ATOM      4  C   UNL     1       1.831   6.621  20.355  0.00  0.00    +0.000 A 
ATOM      5  C   UNL     1       1.774   5.234  20.565  0.00  0.00    +0.000 A 
ATOM      6  C   UNL     1       2.331   4.340  19.644  0.00  0.00    +0.000 A 
ENDROOT
BRANCH   1   7
ATOM      7  C   UNL     1       3.554   3.867  17.451  0.00  0.00    +0.000 C 
ATOM      8  C   UNL     1       3.052   2.435  17.656  0.00  0.00    +0.000 C 
BRANCH   7  12
ATOM      9  C   UNL     1       7.204   4.414  16.618  0.00  0.00    +0.000 C 
ATOM     10  C   UNL     1       5.714   4.524  16.444  0.00  0.00    +0.000 C 
ATOM     11  O   UNL     1       5.200   5.110  15.501  0.00  0.00    +0.000 OA
ATOM     12  N   UNL     1       5.007   3.914  17.454  0.00  0.00    +0.000 N 
ATOM     13  H   UNL     1       5.506   3.375  18.146  0.00  0.00    +0.000 HD
ENDBRANCH   7  12
ENDBRANCH   1   7
BRANCH   4  14
ATOM     14  N   UNL     1       1.240   7.568  21.220  0.00  0.00    +0.000 NA
ATOM     15  N   UNL     1       1.139   8.686  20.676  0.00  0.00    +0.000 NA
BRANCH  15  16
ATOM     16  N   UNL     1       0.578   9.623  21.469  0.00  0.00    +0.000 N 
ATOM     17  C   UNL     1       0.129   9.458  22.830  0.00  0.00    +0.000 C 
ATOM     18  C   UNL     1      -0.947  10.526  22.949  0.00  0.00    +0.000 C 
ATOM     19  C   UNL     1      -0.421  11.663  22.071  0.00  0.00    +0.000 C 
ATOM     20  C   UNL     1       0.381  10.964  20.976  0.00  0.00    +0.000 C 
ENDBRANCH  15  16
ENDBRANCH   4  14
TORSDOF 4
ENDMDL
MODEL 7
REMARK VINA RESULT:      -6.5      1.304      1.725
REMARK  Name = 
REMARK  6 active torsions:
REMARK  status: ('A' for Active; 'I' for Inactive)
REMARK    1  A    between atoms: C_1  and  C_2
REMARK    2  A    between atoms: N_4  and  C_5
REMARK    3  A    between atoms: C_5  and  C_6
REMARK    4  A    between atoms: C_5  and  C_7
REMARK    5  A    between atoms: C_10  and  N_11
REMARK    6  A    between atoms: N_12  and  N_13
REMARK                            x       y       z     vdW  Elec       q    Type
REMARK                         _______ _______ _______ _____ _____    ______ ____
ROOT
ATOM      1  C   UNL     1       6.185   5.549  17.908  0.00  0.00    +0.000 A 
ATOM      2  C   UNL     1       7.383   5.656  18.630  0.00  0.00    +0.000 A 
ATOM      3  C   UNL     1       8.118   6.848  18.626  0.00  0.00    +0.000 A 
ATOM      4  C   UNL     1       7.682   7.962  17.902  0.00  0.00    +0.000 A 
ATOM      5  C   UNL     1       6.453   7.872  17.230  0.00  0.00    +0.000 A 
ATOM      6  C   UNL     1       5.719   6.681  17.221  0.00  0.00    +0.000 A 
ENDROOT
BRANCH   1   7
ATOM      7  C   UNL     1       5.439   4.226  17.873  0.00  0.00    +0.000 C 
ATOM      8  C   UNL     1       5.044   3.842  16.444  0.00  0.00    +0.000 C 
BRANCH   7  12
ATOM      9  C   UNL     1       2.773   3.536  20.466  0.00  0.00    +0.000 C 
ATOM     10  C   UNL     1       4.061   3.330  19.719  0.00  0.00    +0.000 C 
ATOM     11  O   UNL     1       4.837   2.420  19.978  0.00  0.00    +0.000 OA
ATOM     12  N   UNL     1       4.274   4.273  18.740  0.00  0.00    +0.000 N 
ATOM     13  H   UNL     1       3.542   4.936  18.531  0.00  0.00    +0.000 HD
ENDBRANCH   7  12
ENDBRANCH   1   7
BRANCH   4  14
ATOM     14  N   UNL     1       8.493   9.118  17.901  0.00  0.00    +0.000 NA
ATOM     15  N   UNL     1       8.807   9.461  19.058  0.00  0.00    +0.000 NA
BRANCH  15  16
ATOM     16  N   UNL     1       9.583  10.563  19.103  0.00  0.00    +0.000 N 
ATOM     17  C   UNL     1      10.193  11.245  17.989  0.00  0.00    +0.000 C 
ATOM     18  C   UNL     1      11.398  11.912  18.635  0.00  0.00    +0.000 C 
ATOM     19  C   UNL     1      10.898  12.273  20.035  0.00  0.00    +0.000 C 
ATOM     20  C   UNL     1       9.872  11.193  20.368  0.00  0.00    +0.000 C 
ENDBRANCH  15  16
ENDBRANCH   4  14
TORSDOF 4
ENDMDL
MODEL 8
REMARK VINA RESULT:      -6.4      5.530      7.123
REMARK  Name = 
REMARK  6 active torsions:
REMARK  status: ('A' for Active; 'I' for Inactive)
REMARK    1  A    between atoms: C_1  and  C_2
REMARK    2  A    between atoms: N_4  and  C_5
REMARK    3  A    between atoms: C_5  and  C_6
REMARK    4  A    between atoms: C_5  and  C_7
REMARK    5  A    between atoms: C_10  and  N_11
REMARK    6  A    between atoms: N_12  and  N_13
REMARK                            x       y       z     vdW  Elec       q    Type
REMARK                         _______ _______ _______ _____ _____    ______ ____
ROOT
ATOM      1  C   UNL     1       3.483   6.380  18.273  0.00  0.00    +0.000 A 
ATOM      2  C   UNL     1       2.882   6.281  19.536  0.00  0.00    +0.000 A 
ATOM      3  C   UNL     1       2.077   7.315  20.030  0.00  0.00    +0.000 A 
ATOM      4  C   UNL     1       1.853   8.474  19.282  0.00  0.00    +0.000 A 
ATOM      5  C   UNL     1       2.405   8.544  17.993  0.00  0.00    +0.000 A 
ATOM      6  C   UNL     1       3.219   7.520  17.498  0.00  0.00    +0.000 A 
ENDROOT
BRANCH   1   7
ATOM      7  C   UNL     1       4.407   5.276  17.787  0.00  0.00    +0.000 C 
ATOM      8  C   UNL     1       4.975   5.589  16.401  0.00  0.00    +0.000 C 
BRANCH   7  12
ATOM      9  C   UNL     1       3.269   1.729  18.453  0.00  0.00    +0.000 C 
ATOM     10  C   UNL     1       4.075   2.983  18.650  0.00  0.00    +0.000 C 
ATOM     11  O   UNL     1       4.947   3.081  19.504  0.00  0.00    +0.000 OA
ATOM     12  N   UNL     1       3.719   3.996  17.790  0.00  0.00    +0.000 N 
ATOM     13  H   UNL     1       3.052   3.804  17.057  0.00  0.00    +0.000 HD
ENDBRANCH   7  12
ENDBRANCH   1   7
BRANCH   4  14
ATOM     14  N   UNL     1       1.069   9.499  19.855  0.00  0.00    +0.000 NA
ATOM     15  N   UNL     1       0.406   9.084  20.826  0.00  0.00    +0.000 NA
BRANCH  15  16
ATOM     16  N   UNL     1      -0.357  10.034  21.404  0.00  0.00    +0.000 N 
ATOM     17  C   UNL     1      -0.943  11.188  20.768  0.00  0.00    +0.000 C 
ATOM     18  C   UNL     1      -1.074  12.166  21.926  0.00  0.00    +0.000 C 
ATOM     19  C   UNL     1      -1.386  11.264  23.122  0.00  0.00    +0.000 C 
ATOM     20  C   UNL     1      -0.676   9.950  22.809  0.00  0.00    +0.000 C 
ENDBRANCH  15  16
ENDBRANCH   4  14
TORSDOF 4
ENDMDL
MODEL 9
REMARK VINA RESULT:      -6.4      4.831      6.547
REMARK  Name = 
REMARK  6 active torsions:
REMARK  status: ('A' for Active; 'I' for Inactive)
REMARK    1  A    between atoms: C_1  and  C_2
REMARK    2  A    between atoms: N_4  and  C_5
REMARK    3  A    between atoms: C_5  and  C_6
REMARK    4  A    between atoms: C_5  and  C_7
REMARK    5  A    between atoms: C_10  and  N_11
REMARK    6  A    between atoms: N_12  and  N_13
REMARK                            x       y       z     vdW  Elec       q    Type
REMARK                         _______ _______ _______ _____ _____    ______ ____
ROOT
ATOM      1  C   UNL     1       2.751   5.735  18.822  0.00  0.00    +0.000 A 
ATOM      2  C   UNL     1       3.090   4.544  18.164  0.00  0.00    +0.000 A 
ATOM      3  C   UNL     1       3.981   4.549  17.085  0.00  0.00    +0.000 A 
ATOM      4  C   UNL     1       4.555   5.739  16.629  0.00  0.00    +0.000 A 
ATOM      5  C   UNL     1       4.263   6.922  17.327  0.00  0.00    +0.000 A 
ATOM      6  C   UNL     1       3.365   6.925  18.399  0.00  0.00    +0.000 A 
ENDROOT
BRANCH   1   7
ATOM      7  C   UNL     1       1.731   5.714  19.947  0.00  0.00    +0.000 C 
ATOM      8  C   UNL     1       1.649   7.069  20.656  0.00  0.00    +0.000 C 
BRANCH   7  12
ATOM      9  C   UNL     1       1.794   2.512  21.960  0.00  0.00    +0.000 C 
ATOM     10  C   UNL     1       1.362   3.450  20.868  0.00  0.00    +0.000 C 
ATOM     11  O   UNL     1       0.508   3.155  20.043  0.00  0.00    +0.000 OA
ATOM     12  N   UNL     1       2.033   4.651  20.891  0.00  0.00    +0.000 N 
ATOM     13  H   UNL     1       2.657   4.849  21.659  0.00  0.00    +0.000 HD
ENDBRANCH   7  12
ENDBRANCH   1   7
BRANCH   4  14
ATOM     14  N   UNL     1       5.410   5.683  15.507  0.00  0.00    +0.000 NA
ATOM     15  N   UNL     1       5.550   4.516  15.092  0.00  0.00    +0.000 NA
BRANCH  15  16
ATOM     16  N   UNL     1       6.361   4.417  14.018  0.00  0.00    +0.000 N 
ATOM     17  C   UNL     1       7.595   5.127  13.790  0.00  0.00    +0.000 C 
ATOM     18  C   UNL     1       7.681   5.150  12.272  0.00  0.00    +0.000 C 
ATOM     19  C   UNL     1       7.062   3.813  11.858  0.00  0.00    +0.000 C 
ATOM     20  C   UNL     1       6.028   3.516  12.942  0.00  0.00    +0.000 C 
ENDBRANCH  15  16
ENDBRANCH   4  14
TORSDOF 4
ENDMDL
