MODEL 1
REMARK VINA RESULT:      -7.5      0.000      0.000
REMARK  Name = 
REMARK  16 active torsions:
REMARK  status: ('A' for Active; 'I' for Inactive)
REMARK    1  A    between atoms: C_1  and  O_2
REMARK    2  A    between atoms: O_2  and  C_3
REMARK    3  A    between atoms: C_6  and  C_7
REMARK    4  A    between atoms: C_7  and  O_8
REMARK    5  A    between atoms: C_7  and  C_9
REMARK    6  A    between atoms: C_9  and  N_10
REMARK    7  A    between atoms: C_11  and  C_13
REMARK    8  A    between atoms: C_14  and  C_15
REMARK    9  A    between atoms: C_17  and  O_18
REMARK   10  A    between atoms: O_18  and  C_19
REMARK   11  A    between atoms: C_20  and  O_21
REMARK   12  A    between atoms: O_21  and  C_22
REMARK   13  A    between atoms: C_23  and  O_24
REMARK   14  A    between atoms: O_24  and  C_25
REMARK   15  A    between atoms: C_28  and  O_29
REMARK   16  A    between atoms: O_29  and  C_30
REMARK                            x       y       z     vdW  Elec       q    Type
REMARK                         _______ _______ _______ _____ _____    ______ ____
ROOT
ATOM      1  N   UNL     1       7.028   7.130  16.755  0.00  0.00    +0.000 N 
ATOM      2  C   UNL     1       7.729   7.437  17.895  0.00  0.00    +0.000 C 
ATOM      3  O   UNL     1       7.998   6.623  18.769  0.00  0.00    +0.000 OA
ATOM      4  H   UNL     1       6.868   7.824  16.034  0.00  0.00    +0.000 HD
ENDROOT
BRANCH   2   5
ATOM      5  C   UNL     1       8.120   8.864  17.981  0.00  0.00    +0.000 C 
ATOM      6  C   UNL     1       8.962   9.262  18.939  0.00  0.00    +0.000 C 
BRANCH   6   7
ATOM      7  C   UNL     1       9.287  10.675  19.148  0.00  0.00    +0.000 A 
ATOM      8  C   UNL     1       9.166  11.205  20.425  0.00  0.00    +0.000 A 
ATOM      9  C   UNL     1       9.482  12.548  20.675  0.00  0.00    +0.000 A 
ATOM     10  C   UNL     1       9.890  13.388  19.613  0.00  0.00    +0.000 A 
ATOM     11  C   UNL     1       9.979  12.854  18.307  0.00  0.00    +0.000 A 
ATOM     12  C   UNL     1       9.690  11.495  18.098  0.00  0.00    +0.000 A 
BRANCH   9  13
ATOM     13  O   UNL     1       9.382  13.095  21.937  0.00  0.00    +0.000 OA
ATOM     14  C   UNL     1       8.638  12.323  22.882  0.00  0.00    +0.000 C 
ENDBRANCH   9  13
BRANCH  10  15
ATOM     15  O   UNL     1      10.110  14.708  19.953  0.00  0.00    +0.000 OA
ATOM     16  C   UNL     1      11.453  15.125  20.165  0.00  0.00    +0.000 C 
ENDBRANCH  10  15
BRANCH  11  17
ATOM     17  O   UNL     1      10.309  13.700  17.279  0.00  0.00    +0.000 OA
ATOM     18  C   UNL     1      11.625  13.628  16.743  0.00  0.00    +0.000 C 
ENDBRANCH  11  17
ENDBRANCH   6   7
ENDBRANCH   2   5
BRANCH   1  19
ATOM     19  C   UNL     1       6.535   5.780  16.541  0.00  0.00    +0.000 C 
BRANCH  19  20
ATOM     20  C   UNL     1       5.002   5.698  16.383  0.00  0.00    +0.000 C 
BRANCH  20  24
ATOM     21  C   UNL     1       2.429   6.711  19.738  0.00  0.00    +0.000 A 
ATOM     22  C   UNL     1       2.696   7.659  18.742  0.00  0.00    +0.000 A 
ATOM     23  C   UNL     1       3.535   7.368  17.665  0.00  0.00    +0.000 A 
ATOM     24  C   UNL     1       4.193   6.138  17.591  0.00  0.00    +0.000 A 
ATOM     25  C   UNL     1       4.029   5.249  18.667  0.00  0.00    +0.000 A 
ATOM     26  C   UNL     1       3.152   5.512  19.739  0.00  0.00    +0.000 A 
BRANCH  21  28
ATOM     27  C   UNL     1       1.291   8.344  21.012  0.00  0.00    +0.000 C 
ATOM     28  O   UNL     1       1.487   6.960  20.703  0.00  0.00    +0.000 OA
ENDBRANCH  21  28
BRANCH  26  29
ATOM     29  O   UNL     1       3.125   4.475  20.632  0.00  0.00    +0.000 OA
ATOM     30  C   UNL     1       3.324   3.148  20.177  0.00  0.00    +0.000 C 
ENDBRANCH  26  29
ENDBRANCH  20  24
BRANCH  20  31
ATOM     31  O   UNL     1       4.639   4.362  16.022  0.00  0.00    +0.000 OA
ATOM     32  H   UNL     1       4.762   3.811  16.814  0.00  0.00    +0.000 HD
ENDBRANCH  20  31
ENDBRANCH  19  20
ENDBRANCH   1  19
TORSDOF 11
ENDMDL
MODEL 2
REMARK VINA RESULT:      -7.4      1.015      3.051
REMARK  Name = 
REMARK  16 active torsions:
REMARK  status: ('A' for Active; 'I' for Inactive)
REMARK    1  A    between atoms: C_1  and  O_2
REMARK    2  A    between atoms: O_2  and  C_3
REMARK    3  A    between atoms: C_6  and  C_7
REMARK    4  A    between atoms: C_7  and  O_8
REMARK    5  A    between atoms: C_7  and  C_9
REMARK    6  A    between atoms: C_9  and  N_10
REMARK    7  A    between atoms: C_11  and  C_13
REMARK    8  A    between atoms: C_14  and  C_15
REMARK    9  A    between atoms: C_17  and  O_18
REMARK   10  A    between atoms: O_18  and  C_19
REMARK   11  A    between atoms: C_20  and  O_21
REMARK   12  A    between atoms: O_21  and  C_22
REMARK   13  A    between atoms: C_23  and  O_24
REMARK   14  A    between atoms: O_24  and  C_25
REMARK   15  A    between atoms: C_28  and  O_29
REMARK   16  A    between atoms: O_29  and  C_30
REMARK                            x       y       z     vdW  Elec       q    Type
REMARK                         _______ _______ _______ _____ _____    ______ ____
ROOT
ATOM      1  N   UNL     1       7.006   7.529  16.939  0.00  0.00    +0.000 N 
ATOM      2  C   UNL     1       7.883   7.807  17.958  0.00  0.00    +0.000 C 
ATOM      3  O   UNL     1       8.287   6.970  18.756  0.00  0.00    +0.000 OA
ATOM      4  H   UNL     1       6.734   8.241  16.272  0.00  0.00    +0.000 HD
ENDROOT
BRANCH   2   5
ATOM      5  C   UNL     1       8.287   9.232  18.017  0.00  0.00    +0.000 C 
ATOM      6  C   UNL     1       9.169   9.631  18.938  0.00  0.00    +0.000 C 
BRANCH   6   7
ATOM      7  C   UNL     1       9.511  11.043  19.123  0.00  0.00    +0.000 A 
ATOM      8  C   UNL     1      10.046  11.746  18.054  0.00  0.00    +0.000 A 
ATOM      9  C   UNL     1      10.373  13.103  18.180  0.00  0.00    +0.000 A 
ATOM     10  C   UNL     1      10.195  13.760  19.420  0.00  0.00    +0.000 A 
ATOM     11  C   UNL     1       9.682  13.033  20.519  0.00  0.00    +0.000 A 
ATOM     12  C   UNL     1       9.331  11.683  20.347  0.00  0.00    +0.000 A 
BRANCH   9  13
ATOM     13  O   UNL     1      10.895  13.826  17.129  0.00  0.00    +0.000 OA
ATOM     14  C   UNL     1      12.265  13.555  16.819  0.00  0.00    +0.000 C 
ENDBRANCH   9  13
BRANCH  10  15
ATOM     15  O   UNL     1      10.613  15.076  19.459  0.00  0.00    +0.000 OA
ATOM     16  C   UNL     1       9.627  16.090  19.312  0.00  0.00    +0.000 C 
ENDBRANCH  10  15
BRANCH  11  17
ATOM     17  O   UNL     1       9.582  13.668  21.730  0.00  0.00    +0.000 OA
ATOM     18  C   UNL     1       8.795  13.059  22.748  0.00  0.00    +0.000 C 
ENDBRANCH  11  17
ENDBRANCH   6   7
ENDBRANCH   2   5
BRANCH   1  19
ATOM     19  C   UNL     1       6.481   6.185  16.772  0.00  0.00    +0.000 C 
BRANCH  19  20
ATOM     20  C   UNL     1       5.045   6.146  16.208  0.00  0.00    +0.000 C 
BRANCH  20  24
ATOM     21  C   UNL     1       2.174   5.197  19.332  0.00  0.00    +0.000 A 
ATOM     22  C   UNL     1       2.620   4.199  18.457  0.00  0.00    +0.000 A 
ATOM     23  C   UNL     1       3.525   4.480  17.432  0.00  0.00    +0.000 A 
ATOM     24  C   UNL     1       3.957   5.789  17.206  0.00  0.00    +0.000 A 
ATOM     25  C   UNL     1       3.394   6.803  17.999  0.00  0.00    +0.000 A 
ATOM     26  C   UNL     1       2.513   6.529  19.065  0.00  0.00    +0.000 A 
BRANCH  21  28
ATOM     27  C   UNL     1       1.667   3.587  20.985  0.00  0.00    +0.000 C 
ATOM     28  O   UNL     1       1.407   4.877  20.422  0.00  0.00    +0.000 OA
ENDBRANCH  21  28
BRANCH  26  29
ATOM     29  O   UNL     1       2.146   7.674  19.720  0.00  0.00    +0.000 OA
ATOM     30  C   UNL     1       1.727   8.807  18.979  0.00  0.00    +0.000 C 
ENDBRANCH  26  29
ENDBRANCH  20  24
BRANCH  20  31
ATOM     31  O   UNL     1       5.000   5.238  15.102  0.00  0.00    +0.000 OA
ATOM     32  H   UNL     1       4.159   5.396  14.639  0.00  0.00    +0.000 HD
ENDBRANCH  20  31
ENDBRANCH  19  20
ENDBRANCH   1  19
TORSDOF 11
ENDMDL
MODEL 3
REMARK VINA RESULT:      -7.4      1.239      1.595
REMARK  Name = 
REMARK  16 active torsions:
REMARK  status: ('A' for Active; 'I' for Inactive)
REMARK    1  A    between atoms: C_1  and  O_2
REMARK    2  A    between atoms: O_2  and  C_3
REMARK    3  A    between atoms: C_6  and  C_7
REMARK    4  A    between atoms: C_7  and  O_8
REMARK    5  A    between atoms: C_7  and  C_9
REMARK    6  A    between atoms: C_9  and  N_10
REMARK    7  A    between atoms: C_11  and  C_13
REMARK    8  A    between atoms: C_14  and  C_15
REMARK    9  A    between atoms: C_17  and  O_18
REMARK   10  A    between atoms: O_18  and  C_19
REMARK   11  A    between atoms: C_20  and  O_21
REMARK   12  A    between atoms: O_21  and  C_22
REMARK   13  A    between atoms: C_23  and  O_24
REMARK   14  A    between atoms: O_24  and  C_25
REMARK   15  A    between atoms: C_28  and  O_29
REMARK   16  A    between atoms: O_29  and  C_30
REMARK                            x       y       z     vdW  Elec       q    Type
REMARK                         _______ _______ _______ _____ _____    ______ ____
ROOT
ATOM      1  N   UNL     1       7.128   7.085  16.494  0.00  0.00    +0.000 N 
ATOM      2  C   UNL     1       7.678   7.359  17.721  0.00  0.00    +0.000 C 
ATOM      3  O   UNL     1       7.972   6.501  18.543  0.00  0.00    +0.000 OA
ATOM      4  H   UNL     1       6.944   7.823  15.824  0.00  0.00    +0.000 HD
ENDROOT
BRANCH   2   5
ATOM      5  C   UNL     1       7.870   8.808  17.972  0.00  0.00    +0.000 C 
ATOM      6  C   UNL     1       8.891   9.218  18.729  0.00  0.00    +0.000 C 
BRANCH   6   7
ATOM      7  C   UNL     1       9.058  10.622  19.112  0.00  0.00    +0.000 A 
ATOM      8  C   UNL     1       9.316  10.926  20.440  0.00  0.00    +0.000 A 
ATOM      9  C   UNL     1       9.499  12.254  20.849  0.00  0.00    +0.000 A 
ATOM     10  C   UNL     1       9.382  13.305  19.909  0.00  0.00    +0.000 A 
ATOM     11  C   UNL     1       9.085  12.996  18.562  0.00  0.00    +0.000 A 
ATOM     12  C   UNL     1       8.943  11.651  18.180  0.00  0.00    +0.000 A 
BRANCH   9  13
ATOM     13  O   UNL     1       9.769  12.581  22.161  0.00  0.00    +0.000 OA
ATOM     14  C   UNL     1       8.679  12.410  23.071  0.00  0.00    +0.000 C 
ENDBRANCH   9  13
BRANCH  10  15
ATOM     15  O   UNL     1       9.512  14.579  20.426  0.00  0.00    +0.000 OA
ATOM     16  C   UNL     1      10.770  15.227  20.289  0.00  0.00    +0.000 C 
ENDBRANCH  10  15
BRANCH  11  17
ATOM     17  O   UNL     1       8.907  14.030  17.681  0.00  0.00    +0.000 OA
ATOM     18  C   UNL     1       7.625  14.642  17.609  0.00  0.00    +0.000 C 
ENDBRANCH  11  17
ENDBRANCH   6   7
ENDBRANCH   2   5
BRANCH   1  19
ATOM     19  C   UNL     1       6.837   5.713  16.113  0.00  0.00    +0.000 C 
BRANCH  19  20
ATOM     20  C   UNL     1       5.328   5.399  16.034  0.00  0.00    +0.000 C 
BRANCH  20  24
ATOM     21  C   UNL     1       3.022   4.846  19.678  0.00  0.00    +0.000 A 
ATOM     22  C   UNL     1       3.179   6.125  19.130  0.00  0.00    +0.000 A 
ATOM     23  C   UNL     1       3.931   6.334  17.973  0.00  0.00    +0.000 A 
ATOM     24  C   UNL     1       4.612   5.276  17.369  0.00  0.00    +0.000 A 
ATOM     25  C   UNL     1       4.563   4.025  18.007  0.00  0.00    +0.000 A 
ATOM     26  C   UNL     1       3.774   3.789  19.151  0.00  0.00    +0.000 A 
BRANCH  21  28
ATOM     27  C   UNL     1       0.909   4.039  20.364  0.00  0.00    +0.000 C 
ATOM     28  O   UNL     1       2.159   4.636  20.723  0.00  0.00    +0.000 OA
ENDBRANCH  21  28
BRANCH  26  29
ATOM     29  O   UNL     1       3.850   2.483  19.554  0.00  0.00    +0.000 OA
ATOM     30  C   UNL     1       3.691   1.443  18.606  0.00  0.00    +0.000 C 
ENDBRANCH  26  29
ENDBRANCH  20  24
BRANCH  20  31
ATOM     31  O   UNL     1       5.138   4.202  15.274  0.00  0.00    +0.000 OA
ATOM     32  H   UNL     1       5.645   4.305  14.450  0.00  0.00    +0.000 HD
ENDBRANCH  20  31
ENDBRANCH  19  20
ENDBRANCH   1  19
TORSDOF 11
ENDMDL
MODEL 4
REMARK VINA RESULT:      -7.3      1.531      2.410
REMARK  Name = 
REMARK  16 active torsions:
REMARK  status: ('A' for Active; 'I' for Inactive)
REMARK    1  A    between atoms: C_1  and  O_2
REMARK    2  A    between atoms: O_2  and  C_3
REMARK    3  A    between atoms: C_6  and  C_7
REMARK    4  A    between atoms: C_7  and  O_8
REMARK    5  A    between atoms: C_7  and  C_9
REMARK    6  A    between atoms: C_9  and  N_10
REMARK    7  A    between atoms: C_11  and  C_13
REMARK    8  A    between atoms: C_14  and  C_15
REMARK    9  A    between atoms: C_17  and  O_18
REMARK   10  A    between atoms: O_18  and  C_19
REMARK   11  A    between atoms: C_20  and  O_21
REMARK   12  A    between atoms: O_21  and  C_22
REMARK   13  A    between atoms: C_23  and  O_24
REMARK   14  A    between atoms: O_24  and  C_25
REMARK   15  A    between atoms: C_28  and  O_29
REMARK   16  A    between atoms: O_29  and  C_30
REMARK                            x       y       z     vdW  Elec       q    Type
REMARK                         _______ _______ _______ _____ _____    ______ ____
ROOT
ATOM      1  N   UNL     1       8.073   6.625  17.603  0.00  0.00    +0.000 N 
ATOM      2  C   UNL     1       7.314   7.753  17.415  0.00  0.00    +0.000 C 
ATOM      3  O   UNL     1       6.154   7.736  17.024  0.00  0.00    +0.000 OA
ATOM      4  H   UNL     1       9.014   6.681  17.974  0.00  0.00    +0.000 HD
ENDROOT
BRANCH   2   5
ATOM      5  C   UNL     1       8.040   9.010  17.716  0.00  0.00    +0.000 C 
ATOM      6  C   UNL     1       8.817   9.082  18.800  0.00  0.00    +0.000 C 
BRANCH   6   7
ATOM      7  C   UNL     1       9.459  10.332  19.213  0.00  0.00    +0.000 A 
ATOM      8  C   UNL     1       9.169  10.848  20.468  0.00  0.00    +0.000 A 
ATOM      9  C   UNL     1       9.772  12.033  20.912  0.00  0.00    +0.000 A 
ATOM     10  C   UNL     1      10.656  12.737  20.061  0.00  0.00    +0.000 A 
ATOM     11  C   UNL     1      10.923  12.228  18.770  0.00  0.00    +0.000 A 
ATOM     12  C   UNL     1      10.329  11.018  18.371  0.00  0.00    +0.000 A 
BRANCH   9  13
ATOM     13  O   UNL     1       9.510  12.559  22.159  0.00  0.00    +0.000 OA
ATOM     14  C   UNL     1       8.131  12.581  22.537  0.00  0.00    +0.000 C 
ENDBRANCH   9  13
BRANCH  10  15
ATOM     15  O   UNL     1      11.141  13.927  20.566  0.00  0.00    +0.000 OA
ATOM     16  C   UNL     1      10.436  15.120  20.249  0.00  0.00    +0.000 C 
ENDBRANCH  10  15
BRANCH  11  17
ATOM     17  O   UNL     1      11.728  12.960  17.935  0.00  0.00    +0.000 OA
ATOM     18  C   UNL     1      11.127  13.619  16.826  0.00  0.00    +0.000 C 
ENDBRANCH  11  17
ENDBRANCH   6   7
ENDBRANCH   2   5
BRANCH   1  19
ATOM     19  C   UNL     1       7.519   5.314  17.311  0.00  0.00    +0.000 C 
BRANCH  19  20
ATOM     20  C   UNL     1       6.737   4.695  18.489  0.00  0.00    +0.000 C 
BRANCH  20  24
ATOM     21  C   UNL     1       2.444   4.071  18.199  0.00  0.00    +0.000 A 
ATOM     22  C   UNL     1       3.306   3.492  17.259  0.00  0.00    +0.000 A 
ATOM     23  C   UNL     1       4.687   3.693  17.316  0.00  0.00    +0.000 A 
ATOM     24  C   UNL     1       5.240   4.542  18.276  0.00  0.00    +0.000 A 
ATOM     25  C   UNL     1       4.354   5.228  19.124  0.00  0.00    +0.000 A 
ATOM     26  C   UNL     1       2.963   5.003  19.106  0.00  0.00    +0.000 A 
BRANCH  21  28
ATOM     27  C   UNL     1       0.774   2.651  19.082  0.00  0.00    +0.000 C 
ATOM     28  O   UNL     1       1.113   3.742  18.219  0.00  0.00    +0.000 OA
ENDBRANCH  21  28
BRANCH  26  29
ATOM     29  O   UNL     1       2.321   5.747  20.059  0.00  0.00    +0.000 OA
ATOM     30  C   UNL     1       2.204   7.150  19.897  0.00  0.00    +0.000 C 
ENDBRANCH  26  29
ENDBRANCH  20  24
BRANCH  20  31
ATOM     31  O   UNL     1       6.978   5.468  19.669  0.00  0.00    +0.000 OA
ATOM     32  H   UNL     1       7.900   5.301  19.934  0.00  0.00    +0.000 HD
ENDBRANCH  20  31
ENDBRANCH  19  20
ENDBRANCH   1  19
TORSDOF 11
ENDMDL
MODEL 5
REMARK VINA RESULT:      -7.1      4.610      9.371
REMARK  Name = 
REMARK  16 active torsions:
REMARK  status: ('A' for Active; 'I' for Inactive)
REMARK    1  A    between atoms: C_1  and  O_2
REMARK    2  A    between atoms: O_2  and  C_3
REMARK    3  A    between atoms: C_6  and  C_7
REMARK    4  A    between atoms: C_7  and  O_8
REMARK    5  A    between atoms: C_7  and  C_9
REMARK    6  A    between atoms: C_9  and  N_10
REMARK    7  A    between atoms: C_11  and  C_13
REMARK    8  A    between atoms: C_14  and  C_15
REMARK    9  A    between atoms: C_17  and  O_18
REMARK   10  A    between atoms: O_18  and  C_19
REMARK   11  A    between atoms: C_20  and  O_21
REMARK   12  A    between atoms: O_21  and  C_22
REMARK   13  A    between atoms: C_23  and  O_24
REMARK   14  A    between atoms: O_24  and  C_25
REMARK   15  A    between atoms: C_28  and  O_29
REMARK   16  A    between atoms: O_29  and  C_30
REMARK                            x       y       z     vdW  Elec       q    Type
REMARK                         _______ _______ _______ _____ _____    ______ ____
ROOT
ATOM      1  N   UNL     1       2.414   6.716  18.931  0.00  0.00    +0.000 N 
ATOM      2  C   UNL     1       2.503   7.835  18.142  0.00  0.00    +0.000 C 
ATOM      3  O   UNL     1       3.559   8.285  17.715  0.00  0.00    +0.000 OA
ATOM      4  H   UNL     1       1.515   6.349  19.223  0.00  0.00    +0.000 HD
ENDROOT
BRANCH   2   5
ATOM      5  C   UNL     1       1.191   8.467  17.863  0.00  0.00    +0.000 C 
ATOM      6  C   UNL     1       0.866   9.610  18.472  0.00  0.00    +0.000 C 
BRANCH   6   7
ATOM      7  C   UNL     1      -0.462  10.214  18.331  0.00  0.00    +0.000 A 
ATOM      8  C   UNL     1      -0.895  11.106  19.300  0.00  0.00    +0.000 A 
ATOM      9  C   UNL     1      -2.151  11.721  19.198  0.00  0.00    +0.000 A 
ATOM     10  C   UNL     1      -3.007  11.403  18.117  0.00  0.00    +0.000 A 
ATOM     11  C   UNL     1      -2.576  10.467  17.148  0.00  0.00    +0.000 A 
ATOM     12  C   UNL     1      -1.297   9.898  17.263  0.00  0.00    +0.000 A 
BRANCH   9  13
ATOM     13  O   UNL     1      -2.600  12.620  20.141  0.00  0.00    +0.000 OA
ATOM     14  C   UNL     1      -2.103  12.417  21.467  0.00  0.00    +0.000 C 
ENDBRANCH   9  13
BRANCH  10  15
ATOM     15  O   UNL     1      -4.248  12.009  18.146  0.00  0.00    +0.000 OA
ATOM     16  C   UNL     1      -5.359  11.227  18.566  0.00  0.00    +0.000 C 
ENDBRANCH  10  15
BRANCH  11  17
ATOM     17  O   UNL     1      -3.447  10.120  16.147  0.00  0.00    +0.000 OA
ATOM     18  C   UNL     1      -2.981  10.163  14.804  0.00  0.00    +0.000 C 
ENDBRANCH  11  17
ENDBRANCH   6   7
ENDBRANCH   2   5
BRANCH   1  19
ATOM     19  C   UNL     1       3.616   6.004  19.330  0.00  0.00    +0.000 C 
BRANCH  19  20
ATOM     20  C   UNL     1       3.833   4.679  18.571  0.00  0.00    +0.000 C 
BRANCH  20  24
ATOM     21  C   UNL     1       6.764   5.064  15.383  0.00  0.00    +0.000 A 
ATOM     22  C   UNL     1       5.865   3.990  15.389  0.00  0.00    +0.000 A 
ATOM     23  C   UNL     1       4.928   3.830  16.411  0.00  0.00    +0.000 A 
ATOM     24  C   UNL     1       4.910   4.704  17.500  0.00  0.00    +0.000 A 
ATOM     25  C   UNL     1       5.907   5.693  17.553  0.00  0.00    +0.000 A 
ATOM     26  C   UNL     1       6.832   5.893  16.509  0.00  0.00    +0.000 A 
BRANCH  21  28
ATOM     27  C   UNL     1       7.206   4.578  13.113  0.00  0.00    +0.000 C 
ATOM     28  O   UNL     1       7.572   5.290  14.299  0.00  0.00    +0.000 OA
ENDBRANCH  21  28
BRANCH  26  29
ATOM     29  O   UNL     1       7.665   6.948  16.770  0.00  0.00    +0.000 OA
ATOM     30  C   UNL     1       7.858   7.380  18.105  0.00  0.00    +0.000 C 
ENDBRANCH  26  29
ENDBRANCH  20  24
BRANCH  20  31
ATOM     31  O   UNL     1       2.591   4.262  17.993  0.00  0.00    +0.000 OA
ATOM     32  H   UNL     1       2.771   4.039  17.063  0.00  0.00    +0.000 HD
ENDBRANCH  20  31
ENDBRANCH  19  20
ENDBRANCH   1  19
TORSDOF 11
ENDMDL
MODEL 6
REMARK VINA RESULT:      -7.1      1.538      2.399
REMARK  Name = 
REMARK  16 active torsions:
REMARK  status: ('A' for Active; 'I' for Inactive)
REMARK    1  A    between atoms: C_1  and  O_2
REMARK    2  A    between atoms: O_2  and  C_3
REMARK    3  A    between atoms: C_6  and  C_7
REMARK    4  A    between atoms: C_7  and  O_8
REMARK    5  A    between atoms: C_7  and  C_9
REMARK    6  A    between atoms: C_9  and  N_10
REMARK    7  A    between atoms: C_11  and  C_13
REMARK    8  A    between atoms: C_14  and  C_15
REMARK    9  A    between atoms: C_17  and  O_18
REMARK   10  A    between atoms: O_18  and  C_19
REMARK   11  A    between atoms: C_20  and  O_21
REMARK   12  A    between atoms: O_21  and  C_22
REMARK   13  A    between atoms: C_23  and  O_24
REMARK   14  A    between atoms: O_24  and  C_25
REMARK   15  A    between atoms: C_28  and  O_29
REMARK   16  A    between atoms: O_29  and  C_30
REMARK                            x       y       z     vdW  Elec       q    Type
REMARK                         _______ _______ _______ _____ _____    ______ ____
ROOT
ATOM      1  N   UNL     1       7.899   6.514  18.757  0.00  0.00    +0.000 N 
ATOM      2  C   UNL     1       8.036   7.639  17.983  0.00  0.00    +0.000 C 
ATOM      3  O   UNL     1       7.719   7.695  16.801  0.00  0.00    +0.000 OA
ATOM      4  H   UNL     1       8.130   6.525  19.744  0.00  0.00    +0.000 HD
ENDROOT
BRANCH   2   5
ATOM      5  C   UNL     1       8.625   8.789  18.710  0.00  0.00    +0.000 C 
ATOM      6  C   UNL     1       8.804   9.951  18.076  0.00  0.00    +0.000 C 
BRANCH   6   7
ATOM      7  C   UNL     1       9.493  11.080  18.705  0.00  0.00    +0.000 A 
ATOM      8  C   UNL     1       9.205  11.384  20.028  0.00  0.00    +0.000 A 
ATOM      9  C   UNL     1       9.853  12.445  20.676  0.00  0.00    +0.000 A 
ATOM     10  C   UNL     1      10.781  13.244  19.968  0.00  0.00    +0.000 A 
ATOM     11  C   UNL     1      11.048  12.953  18.610  0.00  0.00    +0.000 A 
ATOM     12  C   UNL     1      10.408  11.860  18.003  0.00  0.00    +0.000 A 
BRANCH   9  13
ATOM     13  O   UNL     1       9.593  12.760  21.993  0.00  0.00    +0.000 OA
ATOM     14  C   UNL     1       8.501  12.055  22.587  0.00  0.00    +0.000 C 
ENDBRANCH   9  13
BRANCH  10  15
ATOM     15  O   UNL     1      11.311  14.305  20.676  0.00  0.00    +0.000 OA
ATOM     16  C   UNL     1      10.679  15.572  20.543  0.00  0.00    +0.000 C 
ENDBRANCH  10  15
BRANCH  11  17
ATOM     17  O   UNL     1      11.898  13.780  17.923  0.00  0.00    +0.000 OA
ATOM     18  C   UNL     1      11.343  14.662  16.953  0.00  0.00    +0.000 C 
ENDBRANCH  11  17
ENDBRANCH   6   7
ENDBRANCH   2   5
BRANCH   1  19
ATOM     19  C   UNL     1       7.375   5.288  18.180  0.00  0.00    +0.000 C 
BRANCH  19  20
ATOM     20  C   UNL     1       6.095   5.495  17.343  0.00  0.00    +0.000 C 
BRANCH  20  24
ATOM     21  C   UNL     1       2.878   2.958  18.799  0.00  0.00    +0.000 A 
ATOM     22  C   UNL     1       3.451   2.720  17.544  0.00  0.00    +0.000 A 
ATOM     23  C   UNL     1       4.471   3.532  17.043  0.00  0.00    +0.000 A 
ATOM     24  C   UNL     1       4.898   4.653  17.755  0.00  0.00    +0.000 A 
ATOM     25  C   UNL     1       4.220   4.963  18.946  0.00  0.00    +0.000 A 
ATOM     26  C   UNL     1       3.219   4.131  19.485  0.00  0.00    +0.000 A 
BRANCH  21  28
ATOM     27  C   UNL     1       0.628   2.247  18.930  0.00  0.00    +0.000 C 
ATOM     28  O   UNL     1       1.988   2.067  19.340  0.00  0.00    +0.000 OA
ENDBRANCH  21  28
BRANCH  26  29
ATOM     29  O   UNL     1       2.748   4.617  20.675  0.00  0.00    +0.000 OA
ATOM     30  C   UNL     1       1.761   5.633  20.681  0.00  0.00    +0.000 C 
ENDBRANCH  26  29
ENDBRANCH  20  24
BRANCH  20  31
ATOM     31  O   UNL     1       6.394   5.262  15.963  0.00  0.00    +0.000 OA
ATOM     32  H   UNL     1       6.798   4.378  15.905  0.00  0.00    +0.000 HD
ENDBRANCH  20  31
ENDBRANCH  19  20
ENDBRANCH   1  19
TORSDOF 11
ENDMDL
MODEL 7
REMARK VINA RESULT:      -7.0      1.732      2.806
REMARK  Name = 
REMARK  16 active torsions:
REMARK  status: ('A' for Active; 'I' for Inactive)
REMARK    1  A    between atoms: C_1  and  O_2
REMARK    2  A    between atoms: O_2  and  C_3
REMARK    3  A    between atoms: C_6  and  C_7
REMARK    4  A    between atoms: C_7  and  O_8
REMARK    5  A    between atoms: C_7  and  C_9
REMARK    6  A    between atoms: C_9  and  N_10
REMARK    7  A    between atoms: C_11  and  C_13
REMARK    8  A    between atoms: C_14  and  C_15
REMARK    9  A    between atoms: C_17  and  O_18
REMARK   10  A    between atoms: O_18  and  C_19
REMARK   11  A    between atoms: C_20  and  O_21
REMARK   12  A    between atoms: O_21  and  C_22
REMARK   13  A    between atoms: C_23  and  O_24
REMARK   14  A    between atoms: O_24  and  C_25
REMARK   15  A    between atoms: C_28  and  O_29
REMARK   16  A    between atoms: O_29  and  C_30
REMARK                            x       y       z     vdW  Elec       q    Type
REMARK                         _______ _______ _______ _____ _____    ______ ____
ROOT
ATOM      1  N   UNL     1       7.442   6.883  16.786  0.00  0.00    +0.000 N 
ATOM      2  C   UNL     1       7.954   7.498  17.901  0.00  0.00    +0.000 C 
ATOM      3  O   UNL     1       8.154   6.925  18.964  0.00  0.00    +0.000 OA
ATOM      4  H   UNL     1       7.337   7.383  15.912  0.00  0.00    +0.000 HD
ENDROOT
BRANCH   2   5
ATOM      5  C   UNL     1       8.229   8.942  17.705  0.00  0.00    +0.000 C 
ATOM      6  C   UNL     1       8.918   9.616  18.629  0.00  0.00    +0.000 C 
BRANCH   6   7
ATOM      7  C   UNL     1       9.113  11.065  18.549  0.00  0.00    +0.000 A 
ATOM      8  C   UNL     1       8.175  11.827  17.868  0.00  0.00    +0.000 A 
ATOM      9  C   UNL     1       8.312  13.220  17.779  0.00  0.00    +0.000 A 
ATOM     10  C   UNL     1       9.436  13.857  18.354  0.00  0.00    +0.000 A 
ATOM     11  C   UNL     1      10.408  13.074  19.018  0.00  0.00    +0.000 A 
ATOM     12  C   UNL     1      10.221  11.685  19.119  0.00  0.00    +0.000 A 
BRANCH   9  13
ATOM     13  O   UNL     1       7.387  14.001  17.119  0.00  0.00    +0.000 OA
ATOM     14  C   UNL     1       6.295  14.464  17.917  0.00  0.00    +0.000 C 
ENDBRANCH   9  13
BRANCH  10  15
ATOM     15  O   UNL     1       9.512  15.221  18.151  0.00  0.00    +0.000 OA
ATOM     16  C   UNL     1      10.399  15.694  17.145  0.00  0.00    +0.000 C 
ENDBRANCH  10  15
BRANCH  11  17
ATOM     17  O   UNL     1      11.525  13.701  19.508  0.00  0.00    +0.000 OA
ATOM     18  C   UNL     1      11.363  14.639  20.565  0.00  0.00    +0.000 C 
ENDBRANCH  11  17
ENDBRANCH   6   7
ENDBRANCH   2   5
BRANCH   1  19
ATOM     19  C   UNL     1       7.080   5.476  16.829  0.00  0.00    +0.000 C 
BRANCH  19  20
ATOM     20  C   UNL     1       5.837   5.131  15.982  0.00  0.00    +0.000 C 
BRANCH  20  24
ATOM     21  C   UNL     1       2.336   4.644  18.515  0.00  0.00    +0.000 A 
ATOM     22  C   UNL     1       2.811   3.569  17.753  0.00  0.00    +0.000 A 
ATOM     23  C   UNL     1       3.920   3.703  16.915  0.00  0.00    +0.000 A 
ATOM     24  C   UNL     1       4.545   4.942  16.760  0.00  0.00    +0.000 A 
ATOM     25  C   UNL     1       3.974   6.044  17.419  0.00  0.00    +0.000 A 
ATOM     26  C   UNL     1       2.881   5.916  18.301  0.00  0.00    +0.000 A 
BRANCH  21  28
ATOM     27  C   UNL     1       1.762   4.582  20.806  0.00  0.00    +0.000 C 
ATOM     28  O   UNL     1       1.345   4.456  19.443  0.00  0.00    +0.000 OA
ENDBRANCH  21  28
BRANCH  26  29
ATOM     29  O   UNL     1       2.543   7.119  18.859  0.00  0.00    +0.000 OA
ATOM     30  C   UNL     1       2.285   8.235  18.027  0.00  0.00    +0.000 C 
ENDBRANCH  26  29
ENDBRANCH  20  24
BRANCH  20  31
ATOM     31  O   UNL     1       6.108   3.958  15.208  0.00  0.00    +0.000 OA
ATOM     32  H   UNL     1       6.952   3.595  15.529  0.00  0.00    +0.000 HD
ENDBRANCH  20  31
ENDBRANCH  19  20
ENDBRANCH   1  19
TORSDOF 11
ENDMDL
MODEL 8
REMARK VINA RESULT:      -7.0      5.896      9.398
REMARK  Name = 
REMARK  16 active torsions:
REMARK  status: ('A' for Active; 'I' for Inactive)
REMARK    1  A    between atoms: C_1  and  O_2
REMARK    2  A    between atoms: O_2  and  C_3
REMARK    3  A    between atoms: C_6  and  C_7
REMARK    4  A    between atoms: C_7  and  O_8
REMARK    5  A    between atoms: C_7  and  C_9
REMARK    6  A    between atoms: C_9  and  N_10
REMARK    7  A    between atoms: C_11  and  C_13
REMARK    8  A    between atoms: C_14  and  C_15
REMARK    9  A    between atoms: C_17  and  O_18
REMARK   10  A    between atoms: O_18  and  C_19
REMARK   11  A    between atoms: C_20  and  O_21
REMARK   12  A    between atoms: O_21  and  C_22
REMARK   13  A    between atoms: C_23  and  O_24
REMARK   14  A    between atoms: O_24  and  C_25
REMARK   15  A    between atoms: C_28  and  O_29
REMARK   16  A    between atoms: O_29  and  C_30
REMARK                            x       y       z     vdW  Elec       q    Type
REMARK                         _______ _______ _______ _____ _____    ______ ____
ROOT
ATOM      1  N   UNL     1       0.233  10.059  18.640  0.00  0.00    +0.000 N 
ATOM      2  C   UNL     1       1.495   9.719  18.218  0.00  0.00    +0.000 C 
ATOM      3  O   UNL     1       2.196  10.438  17.519  0.00  0.00    +0.000 OA
ATOM      4  H   UNL     1      -0.295   9.454  19.257  0.00  0.00    +0.000 HD
ENDROOT
BRANCH   2   5
ATOM      5  C   UNL     1       1.928   8.377  18.676  0.00  0.00    +0.000 C 
ATOM      6  C   UNL     1       2.879   7.724  18.003  0.00  0.00    +0.000 C 
BRANCH   6   7
ATOM      7  C   UNL     1       3.259   6.349  18.335  0.00  0.00    +0.000 A 
ATOM      8  C   UNL     1       2.286   5.485  18.816  0.00  0.00    +0.000 A 
ATOM      9  C   UNL     1       2.601   4.156  19.132  0.00  0.00    +0.000 A 
ATOM     10  C   UNL     1       3.931   3.694  18.997  0.00  0.00    +0.000 A 
ATOM     11  C   UNL     1       4.928   4.586  18.539  0.00  0.00    +0.000 A 
ATOM     12  C   UNL     1       4.570   5.901  18.198  0.00  0.00    +0.000 A 
BRANCH   9  13
ATOM     13  O   UNL     1       1.650   3.275  19.600  0.00  0.00    +0.000 OA
ATOM     14  C   UNL     1       1.286   3.439  20.973  0.00  0.00    +0.000 C 
ENDBRANCH   9  13
BRANCH  10  15
ATOM     15  O   UNL     1       4.150   2.391  19.400  0.00  0.00    +0.000 OA
ATOM     16  C   UNL     1       3.857   1.352  18.473  0.00  0.00    +0.000 C 
ENDBRANCH  10  15
BRANCH  11  17
ATOM     17  O   UNL     1       6.223   4.140  18.482  0.00  0.00    +0.000 OA
ATOM     18  C   UNL     1       7.237   5.060  18.091  0.00  0.00    +0.000 C 
ENDBRANCH  11  17
ENDBRANCH   6   7
ENDBRANCH   2   5
BRANCH   1  19
ATOM     19  C   UNL     1      -0.355  11.326  18.239  0.00  0.00    +0.000 C 
BRANCH  19  20
ATOM     20  C   UNL     1      -0.085  12.476  19.232  0.00  0.00    +0.000 C 
BRANCH  20  24
ATOM     21  C   UNL     1      -2.602  12.102  22.758  0.00  0.00    +0.000 A 
ATOM     22  C   UNL     1      -2.947  12.996  21.736  0.00  0.00    +0.000 A 
ATOM     23  C   UNL     1      -2.146  13.152  20.603  0.00  0.00    +0.000 A 
ATOM     24  C   UNL     1      -0.934  12.468  20.492  0.00  0.00    +0.000 A 
ATOM     25  C   UNL     1      -0.530  11.682  21.586  0.00  0.00    +0.000 A 
ATOM     26  C   UNL     1      -1.347  11.482  22.717  0.00  0.00    +0.000 A 
BRANCH  21  28
ATOM     27  C   UNL     1      -3.901  13.008  24.512  0.00  0.00    +0.000 C 
ATOM     28  O   UNL     1      -3.472  11.851  23.787  0.00  0.00    +0.000 OA
ENDBRANCH  21  28
BRANCH  26  29
ATOM     29  O   UNL     1      -0.759  10.637  23.619  0.00  0.00    +0.000 OA
ATOM     30  C   UNL     1      -0.033   9.510  23.160  0.00  0.00    +0.000 C 
ENDBRANCH  26  29
ENDBRANCH  20  24
BRANCH  20  31
ATOM     31  O   UNL     1      -0.243  13.727  18.555  0.00  0.00    +0.000 OA
ATOM     32  H   UNL     1       0.572  14.236  18.707  0.00  0.00    +0.000 HD
ENDBRANCH  20  31
ENDBRANCH  19  20
ENDBRANCH   1  19
TORSDOF 11
ENDMDL
MODEL 9
REMARK VINA RESULT:      -7.0      5.147      9.638
REMARK  Name = 
REMARK  16 active torsions:
REMARK  status: ('A' for Active; 'I' for Inactive)
REMARK    1  A    between atoms: C_1  and  O_2
REMARK    2  A    between atoms: O_2  and  C_3
REMARK    3  A    between atoms: C_6  and  C_7
REMARK    4  A    between atoms: C_7  and  O_8
REMARK    5  A    between atoms: C_7  and  C_9
REMARK    6  A    between atoms: C_9  and  N_10
REMARK    7  A    between atoms: C_11  and  C_13
REMARK    8  A    between atoms: C_14  and  C_15
REMARK    9  A    between atoms: C_17  and  O_18
REMARK   10  A    between atoms: O_18  and  C_19
REMARK   11  A    between atoms: C_20  and  O_21
REMARK   12  A    between atoms: O_21  and  C_22
REMARK   13  A    between atoms: C_23  and  O_24
REMARK   14  A    between atoms: O_24  and  C_25
REMARK   15  A    between atoms: C_28  and  O_29
REMARK   16  A    between atoms: O_29  and  C_30
REMARK                            x       y       z     vdW  Elec       q    Type
REMARK                         _______ _______ _______ _____ _____    ______ ____
ROOT
ATOM      1  N   UNL     1       0.778  10.571  18.089  0.00  0.00    +0.000 N 
ATOM      2  C   UNL     1       1.222   9.522  18.854  0.00  0.00    +0.000 C 
ATOM      3  O   UNL     1       0.912   9.356  20.027  0.00  0.00    +0.000 OA
ATOM      4  H   UNL     1       1.020  10.645  17.108  0.00  0.00    +0.000 HD
ENDROOT
BRANCH   2   5
ATOM      5  C   UNL     1       2.136   8.607  18.129  0.00  0.00    +0.000 C 
ATOM      6  C   UNL     1       2.322   7.364  18.580  0.00  0.00    +0.000 C 
BRANCH   6   7
ATOM      7  C   UNL     1       3.304   6.459  17.978  0.00  0.00    +0.000 A 
ATOM      8  C   UNL     1       4.479   6.993  17.470  0.00  0.00    +0.000 A 
ATOM      9  C   UNL     1       5.454   6.163  16.899  0.00  0.00    +0.000 A 
ATOM     10  C   UNL     1       5.228   4.770  16.801  0.00  0.00    +0.000 A 
ATOM     11  C   UNL     1       4.014   4.233  17.289  0.00  0.00    +0.000 A 
ATOM     12  C   UNL     1       3.074   5.089  17.887  0.00  0.00    +0.000 A 
BRANCH   9  13
ATOM     13  O   UNL     1       6.636   6.667  16.398  0.00  0.00    +0.000 OA
ATOM     14  C   UNL     1       7.517   7.240  17.368  0.00  0.00    +0.000 C 
ENDBRANCH   9  13
BRANCH  10  15
ATOM     15  O   UNL     1       6.218   4.052  16.161  0.00  0.00    +0.000 OA
ATOM     16  C   UNL     1       6.093   3.853  14.759  0.00  0.00    +0.000 C 
ENDBRANCH  10  15
BRANCH  11  17
ATOM     17  O   UNL     1       3.783   2.892  17.122  0.00  0.00    +0.000 OA
ATOM     18  C   UNL     1       3.514   2.105  18.277  0.00  0.00    +0.000 C 
ENDBRANCH  11  17
ENDBRANCH   6   7
ENDBRANCH   2   5
BRANCH   1  19
ATOM     19  C   UNL     1      -0.093  11.581  18.667  0.00  0.00    +0.000 C 
BRANCH  19  20
ATOM     20  C   UNL     1      -1.434  11.744  17.920  0.00  0.00    +0.000 C 
BRANCH  20  24
ATOM     21  C   UNL     1      -5.045  12.551  20.202  0.00  0.00    +0.000 A 
ATOM     22  C   UNL     1      -3.787  12.827  20.752  0.00  0.00    +0.000 A 
ATOM     23  C   UNL     1      -2.611  12.558  20.050  0.00  0.00    +0.000 A 
ATOM     24  C   UNL     1      -2.657  11.935  18.801  0.00  0.00    +0.000 A 
ATOM     25  C   UNL     1      -3.916  11.535  18.322  0.00  0.00    +0.000 A 
ATOM     26  C   UNL     1      -5.114  11.838  19.000  0.00  0.00    +0.000 A 
BRANCH  21  28
ATOM     27  C   UNL     1      -5.983  13.571  22.117  0.00  0.00    +0.000 C 
ATOM     28  O   UNL     1      -6.189  12.959  20.839  0.00  0.00    +0.000 OA
ENDBRANCH  21  28
BRANCH  26  29
ATOM     29  O   UNL     1      -6.208  11.390  18.309  0.00  0.00    +0.000 OA
ATOM     30  C   UNL     1      -6.938  10.275  18.790  0.00  0.00    +0.000 C 
ENDBRANCH  26  29
ENDBRANCH  20  24
BRANCH  20  31
ATOM     31  O   UNL     1      -1.632  10.617  17.061  0.00  0.00    +0.000 OA
ATOM     32  H   UNL     1      -2.584  10.418  17.068  0.00  0.00    +0.000 HD
ENDBRANCH  20  31
ENDBRANCH  19  20
ENDBRANCH   1  19
TORSDOF 11
ENDMDL
