MODEL 1
REMARK VINA RESULT:      -7.2      0.000      0.000
REMARK  Name = 
REMARK  16 active torsions:
REMARK  status: ('A' for Active; 'I' for Inactive)
REMARK    1  A    between atoms: C_1  and  O_2
REMARK    2  A    between atoms: O_2  and  C_3
REMARK    3  A    between atoms: C_6  and  C_7
REMARK    4  A    between atoms: C_7  and  C_8
REMARK    5  A    between atoms: C_8  and  N_9
REMARK    6  A    between atoms: N_9  and  C_10
REMARK    7  A    between atoms: N_9  and  C_11
REMARK    8  A    between atoms: C_11  and  C_12
REMARK    9  A    between atoms: C_12  and  C_13
REMARK   10  A    between atoms: C_13  and  N_14
REMARK   11  A    between atoms: C_20  and  O_21
REMARK   12  A    between atoms: O_21  and  C_22
REMARK   13  A    between atoms: C_23  and  O_24
REMARK   14  A    between atoms: O_24  and  C_25
REMARK   15  A    between atoms: C_31  and  O_32
REMARK   16  A    between atoms: O_32  and  C_33
REMARK                            x       y       z     vdW  Elec       q    Type
REMARK                         _______ _______ _______ _____ _____    ______ ____
ROOT
ATOM      1  C   UNL     1       2.270   5.901  17.897  0.00  0.00    +0.000 C 
ENDROOT
BRANCH   1   2
ATOM      2  N   UNL     1       1.880   7.094  18.738  0.00  0.00    +0.000 N 
ATOM      3  C   UNL     1       2.226   7.025  20.153  0.00  0.00    +0.000 C 
ATOM      4  C   UNL     1       1.418   7.782  21.205  0.00  0.00    +0.000 C 
ATOM      5  C   UNL     1       0.690   9.076  20.922  0.00  0.00    +0.000 C 
ATOM      6  C   UNL     1       0.341   9.423  19.482  0.00  0.00    +0.000 A 
ATOM      7  C   UNL     1      -0.713  10.350  19.352  0.00  0.00    +0.000 A 
ATOM      8  C   UNL     1      -0.434  11.660  18.961  0.00  0.00    +0.000 A 
ATOM      9  C   UNL     1       0.902  11.990  18.703  0.00  0.00    +0.000 A 
ATOM     10  C   UNL     1       1.823  10.939  18.436  0.00  0.00    +0.000 A 
ATOM     11  C   UNL     1       1.467   9.604  18.695  0.00  0.00    +0.000 A 
ATOM     12  C   UNL     1       2.148   8.378  18.128  0.00  0.00    +0.000 C 
ATOM     13  O   UNL     1       2.814   8.511  17.115  0.00  0.00    +0.000 OA
BRANCH   8  14
ATOM     14  O   UNL     1      -1.382  12.639  18.861  0.00  0.00    +0.000 OA
ATOM     15  C   UNL     1      -2.517  12.566  19.713  0.00  0.00    +0.000 C 
ENDBRANCH   8  14
BRANCH   9  16
ATOM     16  O   UNL     1       1.426  13.261  18.670  0.00  0.00    +0.000 OA
ATOM     17  C   UNL     1       2.701  13.480  18.052  0.00  0.00    +0.000 C 
ENDBRANCH   9  16
ENDBRANCH   1   2
BRANCH   1  18
ATOM     18  C   UNL     1       1.406   4.606  17.997  0.00  0.00    +0.000 C 
BRANCH  18  19
ATOM     19  C   UNL     1       2.119   3.216  17.953  0.00  0.00    +0.000 C 
BRANCH  19  20
ATOM     20  N   UNL     1       2.612   2.609  19.207  0.00  0.00    +0.000 NA
ATOM     21  C   UNL     1       2.088   3.328  20.378  0.00  0.00    +0.000 C 
BRANCH  20  22
ATOM     22  C   UNL     1       4.088   2.508  19.295  0.00  0.00    +0.000 C 
BRANCH  22  23
ATOM     23  C   UNL     1       4.864   3.866  19.250  0.00  0.00    +0.000 C 
BRANCH  23  27
ATOM     24  C   UNL     1       6.541   5.168  15.448  0.00  0.00    +0.000 A 
ATOM     25  C   UNL     1       5.651   4.095  15.510  0.00  0.00    +0.000 A 
ATOM     26  C   UNL     1       5.135   3.671  16.726  0.00  0.00    +0.000 A 
ATOM     27  C   UNL     1       5.482   4.281  17.927  0.00  0.00    +0.000 A 
ATOM     28  C   UNL     1       6.438   5.302  17.875  0.00  0.00    +0.000 A 
ATOM     29  C   UNL     1       6.982   5.747  16.652  0.00  0.00    +0.000 A 
BRANCH  24  31
ATOM     30  C   UNL     1       7.251   4.618  13.263  0.00  0.00    +0.000 C 
ATOM     31  O   UNL     1       7.002   5.626  14.244  0.00  0.00    +0.000 OA
ENDBRANCH  24  31
BRANCH  29  32
ATOM     32  O   UNL     1       7.897   6.758  16.818  0.00  0.00    +0.000 OA
ATOM     33  C   UNL     1       7.470   7.954  17.456  0.00  0.00    +0.000 C 
ENDBRANCH  29  32
ENDBRANCH  23  27
ENDBRANCH  22  23
ENDBRANCH  20  22
ENDBRANCH  19  20
ENDBRANCH  18  19
ENDBRANCH   1  18
TORSDOF 11
ENDMDL
MODEL 2
REMARK VINA RESULT:      -7.2      1.489      2.088
REMARK  Name = 
REMARK  16 active torsions:
REMARK  status: ('A' for Active; 'I' for Inactive)
REMARK    1  A    between atoms: C_1  and  O_2
REMARK    2  A    between atoms: O_2  and  C_3
REMARK    3  A    between atoms: C_6  and  C_7
REMARK    4  A    between atoms: C_7  and  C_8
REMARK    5  A    between atoms: C_8  and  N_9
REMARK    6  A    between atoms: N_9  and  C_10
REMARK    7  A    between atoms: N_9  and  C_11
REMARK    8  A    between atoms: C_11  and  C_12
REMARK    9  A    between atoms: C_12  and  C_13
REMARK   10  A    between atoms: C_13  and  N_14
REMARK   11  A    between atoms: C_20  and  O_21
REMARK   12  A    between atoms: O_21  and  C_22
REMARK   13  A    between atoms: C_23  and  O_24
REMARK   14  A    between atoms: O_24  and  C_25
REMARK   15  A    between atoms: C_31  and  O_32
REMARK   16  A    between atoms: O_32  and  C_33
REMARK                            x       y       z     vdW  Elec       q    Type
REMARK                         _______ _______ _______ _____ _____    ______ ____
ROOT
ATOM      1  C   UNL     1       2.418   6.858  19.523  0.00  0.00    +0.000 C 
ENDROOT
BRANCH   1   2
ATOM      2  N   UNL     1       1.552   8.027  19.933  0.00  0.00    +0.000 N 
ATOM      3  C   UNL     1       1.604   8.406  21.339  0.00  0.00    +0.000 C 
ATOM      4  C   UNL     1       0.422   9.091  22.022  0.00  0.00    +0.000 C 
ATOM      5  C   UNL     1      -0.558   9.981  21.291  0.00  0.00    +0.000 C 
ATOM      6  C   UNL     1      -0.685   9.849  19.780  0.00  0.00    +0.000 A 
ATOM      7  C   UNL     1      -1.903  10.333  19.260  0.00  0.00    +0.000 A 
ATOM      8  C   UNL     1      -1.919  11.533  18.548  0.00  0.00    +0.000 A 
ATOM      9  C   UNL     1      -0.701  12.202  18.374  0.00  0.00    +0.000 A 
ATOM     10  C   UNL     1       0.507  11.468  18.536  0.00  0.00    +0.000 A 
ATOM     11  C   UNL     1       0.485  10.190  19.120  0.00  0.00    +0.000 A 
ATOM     12  C   UNL     1       1.577   9.148  19.018  0.00  0.00    +0.000 C 
ATOM     13  O   UNL     1       2.375   9.243  18.100  0.00  0.00    +0.000 OA
BRANCH   8  14
ATOM     14  O   UNL     1      -3.057  12.106  18.054  0.00  0.00    +0.000 OA
ATOM     15  C   UNL     1      -4.254  11.987  18.813  0.00  0.00    +0.000 C 
ENDBRANCH   8  14
BRANCH   9  16
ATOM     16  O   UNL     1      -0.550  13.528  18.044  0.00  0.00    +0.000 OA
ATOM     17  C   UNL     1       0.196  14.389  18.913  0.00  0.00    +0.000 C 
ENDBRANCH   9  16
ENDBRANCH   1   2
BRANCH   1  18
ATOM     18  C   UNL     1       2.363   5.556  20.380  0.00  0.00    +0.000 C 
BRANCH  18  19
ATOM     19  C   UNL     1       1.559   4.329  19.842  0.00  0.00    +0.000 C 
BRANCH  19  20
ATOM     20  N   UNL     1       2.124   2.970  19.977  0.00  0.00    +0.000 NA
ATOM     21  C   UNL     1       2.234   2.587  21.394  0.00  0.00    +0.000 C 
BRANCH  20  22
ATOM     22  C   UNL     1       3.429   2.783  19.300  0.00  0.00    +0.000 C 
BRANCH  22  23
ATOM     23  C   UNL     1       3.508   3.304  17.827  0.00  0.00    +0.000 C 
BRANCH  23  27
ATOM     24  C   UNL     1       6.742   6.072  16.912  0.00  0.00    +0.000 A 
ATOM     25  C   UNL     1       5.570   6.063  16.154  0.00  0.00    +0.000 A 
ATOM     26  C   UNL     1       4.550   5.165  16.437  0.00  0.00    +0.000 A 
ATOM     27  C   UNL     1       4.650   4.238  17.470  0.00  0.00    +0.000 A 
ATOM     28  C   UNL     1       5.858   4.191  18.176  0.00  0.00    +0.000 A 
ATOM     29  C   UNL     1       6.912   5.089  17.903  0.00  0.00    +0.000 A 
BRANCH  24  31
ATOM     30  C   UNL     1       7.670   8.166  17.492  0.00  0.00    +0.000 C 
ATOM     31  O   UNL     1       7.721   6.998  16.673  0.00  0.00    +0.000 OA
ENDBRANCH  24  31
BRANCH  29  32
ATOM     32  O   UNL     1       8.004   4.880  18.709  0.00  0.00    +0.000 OA
ATOM     33  C   UNL     1       8.011   5.471  20.001  0.00  0.00    +0.000 C 
ENDBRANCH  29  32
ENDBRANCH  23  27
ENDBRANCH  22  23
ENDBRANCH  20  22
ENDBRANCH  19  20
ENDBRANCH  18  19
ENDBRANCH   1  18
TORSDOF 11
ENDMDL
MODEL 3
REMARK VINA RESULT:      -7.0      1.389      2.364
REMARK  Name = 
REMARK  16 active torsions:
REMARK  status: ('A' for Active; 'I' for Inactive)
REMARK    1  A    between atoms: C_1  and  O_2
REMARK    2  A    between atoms: O_2  and  C_3
REMARK    3  A    between atoms: C_6  and  C_7
REMARK    4  A    between atoms: C_7  and  C_8
REMARK    5  A    between atoms: C_8  and  N_9
REMARK    6  A    between atoms: N_9  and  C_10
REMARK    7  A    between atoms: N_9  and  C_11
REMARK    8  A    between atoms: C_11  and  C_12
REMARK    9  A    between atoms: C_12  and  C_13
REMARK   10  A    between atoms: C_13  and  N_14
REMARK   11  A    between atoms: C_20  and  O_21
REMARK   12  A    between atoms: O_21  and  C_22
REMARK   13  A    between atoms: C_23  and  O_24
REMARK   14  A    between atoms: O_24  and  C_25
REMARK   15  A    between atoms: C_31  and  O_32
REMARK   16  A    between atoms: O_32  and  C_33
REMARK                            x       y       z     vdW  Elec       q    Type
REMARK                         _______ _______ _______ _____ _____    ______ ____
ROOT
ATOM      1  C   UNL     1       1.915   7.590  17.908  0.00  0.00    +0.000 C 
ENDROOT
BRANCH   1   2
ATOM      2  N   UNL     1       1.460   8.559  18.974  0.00  0.00    +0.000 N 
ATOM      3  C   UNL     1       1.793   8.207  20.349  0.00  0.00    +0.000 C 
ATOM      4  C   UNL     1       0.938   8.688  21.521  0.00  0.00    +0.000 C 
ATOM      5  C   UNL     1       0.154   9.980  21.502  0.00  0.00    +0.000 C 
ATOM      6  C   UNL     1      -0.195  10.609  20.161  0.00  0.00    +0.000 A 
ATOM      7  C   UNL     1      -1.291  11.495  20.208  0.00  0.00    +0.000 A 
ATOM      8  C   UNL     1      -1.069  12.870  20.108  0.00  0.00    +0.000 A 
ATOM      9  C   UNL     1       0.253  13.304  19.954  0.00  0.00    +0.000 A 
ATOM     10  C   UNL     1       1.225  12.375  19.490  0.00  0.00    +0.000 A 
ATOM     11  C   UNL     1       0.929  11.002  19.454  0.00  0.00    +0.000 A 
ATOM     12  C   UNL     1       1.674   9.955  18.655  0.00  0.00    +0.000 C 
ATOM     13  O   UNL     1       2.344  10.328  17.706  0.00  0.00    +0.000 OA
BRANCH   8  14
ATOM     14  O   UNL     1      -2.061  13.805  20.197  0.00  0.00    +0.000 OA
ATOM     15  C   UNL     1      -2.775  13.914  21.422  0.00  0.00    +0.000 C 
ENDBRANCH   8  14
BRANCH   9  16
ATOM     16  O   UNL     1       0.717  14.575  20.201  0.00  0.00    +0.000 OA
ATOM     17  C   UNL     1       1.069  14.948  21.539  0.00  0.00    +0.000 C 
ENDBRANCH   9  16
ENDBRANCH   1   2
BRANCH   1  18
ATOM     18  C   UNL     1       2.308   6.143  18.337  0.00  0.00    +0.000 C 
BRANCH  18  19
ATOM     19  C   UNL     1       1.542   4.934  17.710  0.00  0.00    +0.000 C 
BRANCH  19  20
ATOM     20  N   UNL     1       1.566   3.622  18.392  0.00  0.00    +0.000 NA
ATOM     21  C   UNL     1       1.819   3.785  19.832  0.00  0.00    +0.000 C 
BRANCH  20  22
ATOM     22  C   UNL     1       2.528   2.654  17.815  0.00  0.00    +0.000 C 
BRANCH  22  23
ATOM     23  C   UNL     1       3.976   2.702  18.408  0.00  0.00    +0.000 C 
BRANCH  23  27
ATOM     24  C   UNL     1       6.691   5.840  17.091  0.00  0.00    +0.000 A 
ATOM     25  C   UNL     1       6.466   5.609  18.449  0.00  0.00    +0.000 A 
ATOM     26  C   UNL     1       5.584   4.621  18.863  0.00  0.00    +0.000 A 
ATOM     27  C   UNL     1       4.885   3.830  17.958  0.00  0.00    +0.000 A 
ATOM     28  C   UNL     1       5.047   4.117  16.597  0.00  0.00    +0.000 A 
ATOM     29  C   UNL     1       5.933   5.120  16.150  0.00  0.00    +0.000 A 
BRANCH  24  31
ATOM     30  C   UNL     1       7.742   7.909  17.536  0.00  0.00    +0.000 C 
ATOM     31  O   UNL     1       7.606   6.772  16.683  0.00  0.00    +0.000 OA
ENDBRANCH  24  31
BRANCH  29  32
ATOM     32  O   UNL     1       5.949   5.238  14.782  0.00  0.00    +0.000 OA
ATOM     33  C   UNL     1       6.357   4.115  14.014  0.00  0.00    +0.000 C 
ENDBRANCH  29  32
ENDBRANCH  23  27
ENDBRANCH  22  23
ENDBRANCH  20  22
ENDBRANCH  19  20
ENDBRANCH  18  19
ENDBRANCH   1  18
TORSDOF 11
ENDMDL
MODEL 4
REMARK VINA RESULT:      -6.8      1.267      2.332
REMARK  Name = 
REMARK  16 active torsions:
REMARK  status: ('A' for Active; 'I' for Inactive)
REMARK    1  A    between atoms: C_1  and  O_2
REMARK    2  A    between atoms: O_2  and  C_3
REMARK    3  A    between atoms: C_6  and  C_7
REMARK    4  A    between atoms: C_7  and  C_8
REMARK    5  A    between atoms: C_8  and  N_9
REMARK    6  A    between atoms: N_9  and  C_10
REMARK    7  A    between atoms: N_9  and  C_11
REMARK    8  A    between atoms: C_11  and  C_12
REMARK    9  A    between atoms: C_12  and  C_13
REMARK   10  A    between atoms: C_13  and  N_14
REMARK   11  A    between atoms: C_20  and  O_21
REMARK   12  A    between atoms: O_21  and  C_22
REMARK   13  A    between atoms: C_23  and  O_24
REMARK   14  A    between atoms: O_24  and  C_25
REMARK   15  A    between atoms: C_31  and  O_32
REMARK   16  A    between atoms: O_32  and  C_33
REMARK                            x       y       z     vdW  Elec       q    Type
REMARK                         _______ _______ _______ _____ _____    ______ ____
ROOT
ATOM      1  C   UNL     1       2.114   6.432  20.270  0.00  0.00    +0.000 C 
ENDROOT
BRANCH   1   2
ATOM      2  N   UNL     1       1.471   7.772  20.545  0.00  0.00    +0.000 N 
ATOM      3  C   UNL     1       1.650   8.308  21.889  0.00  0.00    +0.000 C 
ATOM      4  C   UNL     1       0.628   9.262  22.506  0.00  0.00    +0.000 C 
ATOM      5  C   UNL     1      -0.225  10.207  21.690  0.00  0.00    +0.000 C 
ATOM      6  C   UNL     1      -0.442   9.912  20.212  0.00  0.00    +0.000 A 
ATOM      7  C   UNL     1      -1.586  10.526  19.664  0.00  0.00    +0.000 A 
ATOM      8  C   UNL     1      -1.438  11.614  18.803  0.00  0.00    +0.000 A 
ATOM      9  C   UNL     1      -0.136  12.041  18.514  0.00  0.00    +0.000 A 
ATOM     10  C   UNL     1       0.942  11.140  18.740  0.00  0.00    +0.000 A 
ATOM     11  C   UNL     1       0.737   9.966  19.486  0.00  0.00    +0.000 A 
ATOM     12  C   UNL     1       1.638   8.751  19.493  0.00  0.00    +0.000 C 
ATOM     13  O   UNL     1       2.397   8.596  18.551  0.00  0.00    +0.000 OA
BRANCH   8  14
ATOM     14  O   UNL     1      -2.488  12.305  18.267  0.00  0.00    +0.000 OA
ATOM     15  C   UNL     1      -3.461  11.580  17.525  0.00  0.00    +0.000 C 
ENDBRANCH   8  14
BRANCH   9  16
ATOM     16  O   UNL     1       0.216  13.272  18.010  0.00  0.00    +0.000 OA
ATOM     17  C   UNL     1       0.064  14.437  18.831  0.00  0.00    +0.000 C 
ENDBRANCH   9  16
ENDBRANCH   1   2
BRANCH   1  18
ATOM     18  C   UNL     1       1.647   5.198  21.102  0.00  0.00    +0.000 C 
BRANCH  18  19
ATOM     19  C   UNL     1       2.231   3.790  20.760  0.00  0.00    +0.000 C 
BRANCH  19  20
ATOM     20  N   UNL     1       2.200   3.307  19.364  0.00  0.00    +0.000 NA
ATOM     21  C   UNL     1       1.007   2.481  19.122  0.00  0.00    +0.000 C 
BRANCH  20  22
ATOM     22  C   UNL     1       3.418   2.573  18.946  0.00  0.00    +0.000 C 
BRANCH  22  23
ATOM     23  C   UNL     1       3.921   2.868  17.494  0.00  0.00    +0.000 C 
BRANCH  23  27
ATOM     24  C   UNL     1       6.831   6.059  16.944  0.00  0.00    +0.000 A 
ATOM     25  C   UNL     1       6.360   5.730  18.215  0.00  0.00    +0.000 A 
ATOM     26  C   UNL     1       5.417   4.726  18.383  0.00  0.00    +0.000 A 
ATOM     27  C   UNL     1       4.898   4.014  17.306  0.00  0.00    +0.000 A 
ATOM     28  C   UNL     1       5.308   4.400  16.025  0.00  0.00    +0.000 A 
ATOM     29  C   UNL     1       6.261   5.422  15.827  0.00  0.00    +0.000 A 
BRANCH  24  31
ATOM     30  C   UNL     1       7.663   8.172  17.596  0.00  0.00    +0.000 C 
ATOM     31  O   UNL     1       7.806   7.007  16.783  0.00  0.00    +0.000 OA
ENDBRANCH  24  31
BRANCH  29  32
ATOM     32  O   UNL     1       6.530   5.642  14.498  0.00  0.00    +0.000 OA
ATOM     33  C   UNL     1       7.092   4.581  13.740  0.00  0.00    +0.000 C 
ENDBRANCH  29  32
ENDBRANCH  23  27
ENDBRANCH  22  23
ENDBRANCH  20  22
ENDBRANCH  19  20
ENDBRANCH  18  19
ENDBRANCH   1  18
TORSDOF 11
ENDMDL
MODEL 5
REMARK VINA RESULT:      -6.8      4.047      9.652
REMARK  Name = 
REMARK  16 active torsions:
REMARK  status: ('A' for Active; 'I' for Inactive)
REMARK    1  A    between atoms: C_1  and  O_2
REMARK    2  A    between atoms: O_2  and  C_3
REMARK    3  A    between atoms: C_6  and  C_7
REMARK    4  A    between atoms: C_7  and  C_8
REMARK    5  A    between atoms: C_8  and  N_9
REMARK    6  A    between atoms: N_9  and  C_10
REMARK    7  A    between atoms: N_9  and  C_11
REMARK    8  A    between atoms: C_11  and  C_12
REMARK    9  A    between atoms: C_12  and  C_13
REMARK   10  A    between atoms: C_13  and  N_14
REMARK   11  A    between atoms: C_20  and  O_21
REMARK   12  A    between atoms: O_21  and  C_22
REMARK   13  A    between atoms: C_23  and  O_24
REMARK   14  A    between atoms: O_24  and  C_25
REMARK   15  A    between atoms: C_31  and  O_32
REMARK   16  A    between atoms: O_32  and  C_33
REMARK                            x       y       z     vdW  Elec       q    Type
REMARK                         _______ _______ _______ _____ _____    ______ ____
ROOT
ATOM      1  C   UNL     1       8.231   7.768  18.471  0.00  0.00    +0.000 C 
ENDROOT
BRANCH   1   2
ATOM      2  N   UNL     1       7.137   6.840  17.995  0.00  0.00    +0.000 N 
ATOM      3  C   UNL     1       7.222   6.403  16.607  0.00  0.00    +0.000 C 
ATOM      4  C   UNL     1       5.973   6.012  15.819  0.00  0.00    +0.000 C 
ATOM      5  C   UNL     1       4.735   5.428  16.462  0.00  0.00    +0.000 C 
ATOM      6  C   UNL     1       4.506   5.648  17.950  0.00  0.00    +0.000 A 
ATOM      7  C   UNL     1       3.162   5.508  18.353  0.00  0.00    +0.000 A 
ATOM      8  C   UNL     1       2.774   4.381  19.078  0.00  0.00    +0.000 A 
ATOM      9  C   UNL     1       3.760   3.434  19.383  0.00  0.00    +0.000 A 
ATOM     10  C   UNL     1       5.125   3.833  19.332  0.00  0.00    +0.000 A 
ATOM     11  C   UNL     1       5.484   5.051  18.729  0.00  0.00    +0.000 A 
ATOM     12  C   UNL     1       6.791   5.786  18.924  0.00  0.00    +0.000 C 
ATOM     13  O   UNL     1       7.449   5.530  19.919  0.00  0.00    +0.000 OA
BRANCH   8  14
ATOM     14  O   UNL     1       1.487   4.134  19.464  0.00  0.00    +0.000 OA
ATOM     15  C   UNL     1       0.737   3.176  18.730  0.00  0.00    +0.000 C 
ENDBRANCH   8  14
BRANCH   9  16
ATOM     16  O   UNL     1       3.537   2.127  19.748  0.00  0.00    +0.000 OA
ATOM     17  C   UNL     1       3.789   1.080  18.801  0.00  0.00    +0.000 C 
ENDBRANCH   9  16
ENDBRANCH   1   2
BRANCH   1  18
ATOM     18  C   UNL     1       8.250   9.233  17.933  0.00  0.00    +0.000 C 
BRANCH  18  19
ATOM     19  C   UNL     1       9.098  10.305  18.688  0.00  0.00    +0.000 C 
BRANCH  19  20
ATOM     20  N   UNL     1       9.950  11.236  17.919  0.00  0.00    +0.000 NA
ATOM     21  C   UNL     1      11.364  11.081  18.290  0.00  0.00    +0.000 C 
BRANCH  20  22
ATOM     22  C   UNL     1       9.551  12.659  18.029  0.00  0.00    +0.000 C 
BRANCH  22  23
ATOM     23  C   UNL     1       8.127  13.008  17.483  0.00  0.00    +0.000 C 
BRANCH  23  27
ATOM     24  C   UNL     1       6.198  16.666  18.845  0.00  0.00    +0.000 A 
ATOM     25  C   UNL     1       7.586  16.527  18.889  0.00  0.00    +0.000 A 
ATOM     26  C   UNL     1       8.194  15.352  18.473  0.00  0.00    +0.000 A 
ATOM     27  C   UNL     1       7.460  14.267  18.006  0.00  0.00    +0.000 A 
ATOM     28  C   UNL     1       6.065  14.375  18.039  0.00  0.00    +0.000 A 
ATOM     29  C   UNL     1       5.422  15.557  18.464  0.00  0.00    +0.000 A 
BRANCH  24  31
ATOM     30  C   UNL     1       5.467  18.066  20.602  0.00  0.00    +0.000 C 
ATOM     31  O   UNL     1       5.602  17.846  19.198  0.00  0.00    +0.000 OA
ENDBRANCH  24  31
BRANCH  29  32
ATOM     32  O   UNL     1       4.053  15.459  18.416  0.00  0.00    +0.000 OA
ATOM     33  C   UNL     1       3.394  15.812  17.209  0.00  0.00    +0.000 C 
ENDBRANCH  29  32
ENDBRANCH  23  27
ENDBRANCH  22  23
ENDBRANCH  20  22
ENDBRANCH  19  20
ENDBRANCH  18  19
ENDBRANCH   1  18
TORSDOF 11
ENDMDL
MODEL 6
REMARK VINA RESULT:      -6.8      4.710      9.351
REMARK  Name = 
REMARK  16 active torsions:
REMARK  status: ('A' for Active; 'I' for Inactive)
REMARK    1  A    between atoms: C_1  and  O_2
REMARK    2  A    between atoms: O_2  and  C_3
REMARK    3  A    between atoms: C_6  and  C_7
REMARK    4  A    between atoms: C_7  and  C_8
REMARK    5  A    between atoms: C_8  and  N_9
REMARK    6  A    between atoms: N_9  and  C_10
REMARK    7  A    between atoms: N_9  and  C_11
REMARK    8  A    between atoms: C_11  and  C_12
REMARK    9  A    between atoms: C_12  and  C_13
REMARK   10  A    between atoms: C_13  and  N_14
REMARK   11  A    between atoms: C_20  and  O_21
REMARK   12  A    between atoms: O_21  and  C_22
REMARK   13  A    between atoms: C_23  and  O_24
REMARK   14  A    between atoms: O_24  and  C_25
REMARK   15  A    between atoms: C_31  and  O_32
REMARK   16  A    between atoms: O_32  and  C_33
REMARK                            x       y       z     vdW  Elec       q    Type
REMARK                         _______ _______ _______ _____ _____    ______ ____
ROOT
ATOM      1  C   UNL     1       8.077   7.423  18.199  0.00  0.00    +0.000 C 
ENDROOT
BRANCH   1   2
ATOM      2  N   UNL     1       7.020   6.416  17.808  0.00  0.00    +0.000 N 
ATOM      3  C   UNL     1       7.251   5.688  16.567  0.00  0.00    +0.000 C 
ATOM      4  C   UNL     1       6.090   5.138  15.740  0.00  0.00    +0.000 C 
ATOM      5  C   UNL     1       4.771   4.710  16.342  0.00  0.00    +0.000 C 
ATOM      6  C   UNL     1       4.379   5.249  17.711  0.00  0.00    +0.000 A 
ATOM      7  C   UNL     1       2.995   5.203  17.973  0.00  0.00    +0.000 A 
ATOM      8  C   UNL     1       2.495   4.260  18.873  0.00  0.00    +0.000 A 
ATOM      9  C   UNL     1       3.413   3.400  19.488  0.00  0.00    +0.000 A 
ATOM     10  C   UNL     1       4.785   3.775  19.514  0.00  0.00    +0.000 A 
ATOM     11  C   UNL     1       5.244   4.832  18.710  0.00  0.00    +0.000 A 
ATOM     12  C   UNL     1       6.540   5.590  18.895  0.00  0.00    +0.000 C 
ATOM     13  O   UNL     1       7.073   5.554  19.992  0.00  0.00    +0.000 OA
BRANCH   8  14
ATOM     14  O   UNL     1       1.166   4.106  19.149  0.00  0.00    +0.000 OA
ATOM     15  C   UNL     1       0.527   2.906  18.731  0.00  0.00    +0.000 C 
ENDBRANCH   8  14
BRANCH   9  16
ATOM     16  O   UNL     1       3.113   2.204  20.097  0.00  0.00    +0.000 OA
ATOM     17  C   UNL     1       2.926   2.165  21.518  0.00  0.00    +0.000 C 
ENDBRANCH   9  16
ENDBRANCH   1   2
BRANCH   1  18
ATOM     18  C   UNL     1       7.808   8.933  17.913  0.00  0.00    +0.000 C 
BRANCH  18  19
ATOM     19  C   UNL     1       8.988   9.948  18.037  0.00  0.00    +0.000 C 
BRANCH  19  20
ATOM     20  N   UNL     1       8.905  11.046  19.024  0.00  0.00    +0.000 NA
ATOM     21  C   UNL     1       9.356  12.316  18.434  0.00  0.00    +0.000 C 
BRANCH  20  22
ATOM     22  C   UNL     1       9.637  10.787  20.286  0.00  0.00    +0.000 C 
BRANCH  22  23
ATOM     23  C   UNL     1       9.726  11.994  21.277  0.00  0.00    +0.000 C 
BRANCH  23  27
ATOM     24  C   UNL     1       6.257  13.065  23.680  0.00  0.00    +0.000 A 
ATOM     25  C   UNL     1       6.967  11.890  23.929  0.00  0.00    +0.000 A 
ATOM     26  C   UNL     1       8.060  11.543  23.148  0.00  0.00    +0.000 A 
ATOM     27  C   UNL     1       8.489  12.335  22.087  0.00  0.00    +0.000 A 
ATOM     28  C   UNL     1       7.728  13.470  21.785  0.00  0.00    +0.000 A 
ATOM     29  C   UNL     1       6.609  13.841  22.560  0.00  0.00    +0.000 A 
BRANCH  24  31
ATOM     30  C   UNL     1       5.513  13.475  25.884  0.00  0.00    +0.000 C 
ATOM     31  O   UNL     1       5.218  13.439  24.488  0.00  0.00    +0.000 OA
ENDBRANCH  24  31
BRANCH  29  32
ATOM     32  O   UNL     1       6.006  14.986  22.101  0.00  0.00    +0.000 OA
ATOM     33  C   UNL     1       6.761  15.861  21.275  0.00  0.00    +0.000 C 
ENDBRANCH  29  32
ENDBRANCH  23  27
ENDBRANCH  22  23
ENDBRANCH  20  22
ENDBRANCH  19  20
ENDBRANCH  18  19
ENDBRANCH   1  18
TORSDOF 11
ENDMDL
MODEL 7
REMARK VINA RESULT:      -6.8      2.122      3.504
REMARK  Name = 
REMARK  16 active torsions:
REMARK  status: ('A' for Active; 'I' for Inactive)
REMARK    1  A    between atoms: C_1  and  O_2
REMARK    2  A    between atoms: O_2  and  C_3
REMARK    3  A    between atoms: C_6  and  C_7
REMARK    4  A    between atoms: C_7  and  C_8
REMARK    5  A    between atoms: C_8  and  N_9
REMARK    6  A    between atoms: N_9  and  C_10
REMARK    7  A    between atoms: N_9  and  C_11
REMARK    8  A    between atoms: C_11  and  C_12
REMARK    9  A    between atoms: C_12  and  C_13
REMARK   10  A    between atoms: C_13  and  N_14
REMARK   11  A    between atoms: C_20  and  O_21
REMARK   12  A    between atoms: O_21  and  C_22
REMARK   13  A    between atoms: C_23  and  O_24
REMARK   14  A    between atoms: O_24  and  C_25
REMARK   15  A    between atoms: C_31  and  O_32
REMARK   16  A    between atoms: O_32  and  C_33
REMARK                            x       y       z     vdW  Elec       q    Type
REMARK                         _______ _______ _______ _____ _____    ______ ____
ROOT
ATOM      1  C   UNL     1       2.529   8.139  18.511  0.00  0.00    +0.000 C 
ENDROOT
BRANCH   1   2
ATOM      2  N   UNL     1       1.410   9.100  18.843  0.00  0.00    +0.000 N 
ATOM      3  C   UNL     1       0.257   9.078  17.953  0.00  0.00    +0.000 C 
ATOM      4  C   UNL     1      -0.622  10.313  17.760  0.00  0.00    +0.000 C 
ATOM      5  C   UNL     1      -0.824  11.363  18.828  0.00  0.00    +0.000 C 
ATOM      6  C   UNL     1       0.201  11.480  19.948  0.00  0.00    +0.000 A 
ATOM      7  C   UNL     1       0.210  12.734  20.591  0.00  0.00    +0.000 A 
ATOM      8  C   UNL     1      -0.313  12.850  21.880  0.00  0.00    +0.000 A 
ATOM      9  C   UNL     1      -0.819  11.692  22.482  0.00  0.00    +0.000 A 
ATOM     10  C   UNL     1      -0.414  10.427  21.973  0.00  0.00    +0.000 A 
ATOM     11  C   UNL     1       0.251  10.343  20.737  0.00  0.00    +0.000 A 
ATOM     12  C   UNL     1       1.069   9.168  20.248  0.00  0.00    +0.000 C 
ATOM     13  O   UNL     1       1.495   8.381  21.078  0.00  0.00    +0.000 OA
BRANCH   8  14
ATOM     14  O   UNL     1      -0.395  14.032  22.561  0.00  0.00    +0.000 OA
ATOM     15  C   UNL     1      -0.852  15.181  21.860  0.00  0.00    +0.000 C 
ENDBRANCH   8  14
BRANCH   9  16
ATOM     16  O   UNL     1      -1.684  11.651  23.551  0.00  0.00    +0.000 OA
ATOM     17  C   UNL     1      -3.012  12.171  23.402  0.00  0.00    +0.000 C 
ENDBRANCH   9  16
ENDBRANCH   1   2
BRANCH   1  18
ATOM     18  C   UNL     1       2.182   6.630  18.323  0.00  0.00    +0.000 C 
BRANCH  18  19
ATOM     19  C   UNL     1       2.330   5.663  19.541  0.00  0.00    +0.000 C 
BRANCH  19  20
ATOM     20  N   UNL     1       2.242   4.203  19.328  0.00  0.00    +0.000 NA
ATOM     21  C   UNL     1       0.934   3.688  19.763  0.00  0.00    +0.000 C 
BRANCH  20  22
ATOM     22  C   UNL     1       3.330   3.427  19.968  0.00  0.00    +0.000 C 
BRANCH  22  23
ATOM     23  C   UNL     1       4.548   3.083  19.048  0.00  0.00    +0.000 C 
BRANCH  23  27
ATOM     24  C   UNL     1       6.936   6.304  17.352  0.00  0.00    +0.000 A 
ATOM     25  C   UNL     1       6.917   6.073  18.728  0.00  0.00    +0.000 A 
ATOM     26  C   UNL     1       6.139   5.058  19.266  0.00  0.00    +0.000 A 
ATOM     27  C   UNL     1       5.344   4.239  18.470  0.00  0.00    +0.000 A 
ATOM     28  C   UNL     1       5.298   4.523  17.101  0.00  0.00    +0.000 A 
ATOM     29  C   UNL     1       6.076   5.554  16.531  0.00  0.00    +0.000 A 
BRANCH  24  31
ATOM     30  C   UNL     1       7.883   8.455  17.592  0.00  0.00    +0.000 C 
ATOM     31  O   UNL     1       7.751   7.264  16.816  0.00  0.00    +0.000 OA
ENDBRANCH  24  31
BRANCH  29  32
ATOM     32  O   UNL     1       5.891   5.665  15.174  0.00  0.00    +0.000 OA
ATOM     33  C   UNL     1       5.672   4.478  14.425  0.00  0.00    +0.000 C 
ENDBRANCH  29  32
ENDBRANCH  23  27
ENDBRANCH  22  23
ENDBRANCH  20  22
ENDBRANCH  19  20
ENDBRANCH  18  19
ENDBRANCH   1  18
TORSDOF 11
ENDMDL
MODEL 8
REMARK VINA RESULT:      -6.7      1.783      2.786
REMARK  Name = 
REMARK  16 active torsions:
REMARK  status: ('A' for Active; 'I' for Inactive)
REMARK    1  A    between atoms: C_1  and  O_2
REMARK    2  A    between atoms: O_2  and  C_3
REMARK    3  A    between atoms: C_6  and  C_7
REMARK    4  A    between atoms: C_7  and  C_8
REMARK    5  A    between atoms: C_8  and  N_9
REMARK    6  A    between atoms: N_9  and  C_10
REMARK    7  A    between atoms: N_9  and  C_11
REMARK    8  A    between atoms: C_11  and  C_12
REMARK    9  A    between atoms: C_12  and  C_13
REMARK   10  A    between atoms: C_13  and  N_14
REMARK   11  A    between atoms: C_20  and  O_21
REMARK   12  A    between atoms: O_21  and  C_22
REMARK   13  A    between atoms: C_23  and  O_24
REMARK   14  A    between atoms: O_24  and  C_25
REMARK   15  A    between atoms: C_31  and  O_32
REMARK   16  A    between atoms: O_32  and  C_33
REMARK                            x       y       z     vdW  Elec       q    Type
REMARK                         _______ _______ _______ _____ _____    ______ ____
ROOT
ATOM      1  C   UNL     1       2.012   7.089  20.766  0.00  0.00    +0.000 C 
ENDROOT
BRANCH   1   2
ATOM      2  N   UNL     1       1.633   8.388  20.093  0.00  0.00    +0.000 N 
ATOM      3  C   UNL     1       1.694   8.400  18.637  0.00  0.00    +0.000 C 
ATOM      4  C   UNL     1       1.946   9.693  17.863  0.00  0.00    +0.000 C 
ATOM      5  C   UNL     1       1.532  11.057  18.366  0.00  0.00    +0.000 C 
ATOM      6  C   UNL     1       1.280  11.246  19.856  0.00  0.00    +0.000 A 
ATOM      7  C   UNL     1       1.376  12.583  20.291  0.00  0.00    +0.000 A 
ATOM      8  C   UNL     1       0.215  13.283  20.624  0.00  0.00    +0.000 A 
ATOM      9  C   UNL     1      -1.005  12.606  20.517  0.00  0.00    +0.000 A 
ATOM     10  C   UNL     1      -0.994  11.184  20.496  0.00  0.00    +0.000 A 
ATOM     11  C   UNL     1       0.213  10.488  20.311  0.00  0.00    +0.000 A 
ATOM     12  C   UNL     1       0.458   9.032  20.639  0.00  0.00    +0.000 C 
ATOM     13  O   UNL     1      -0.290   8.491  21.436  0.00  0.00    +0.000 OA
BRANCH   8  14
ATOM     14  O   UNL     1       0.206  14.596  21.004  0.00  0.00    +0.000 OA
ATOM     15  C   UNL     1       0.091  14.894  22.389  0.00  0.00    +0.000 C 
ENDBRANCH   8  14
BRANCH   9  16
ATOM     16  O   UNL     1      -2.247  13.191  20.439  0.00  0.00    +0.000 OA
ATOM     17  C   UNL     1      -3.183  13.001  21.508  0.00  0.00    +0.000 C 
ENDBRANCH   9  16
ENDBRANCH   1   2
BRANCH   1  18
ATOM     18  C   UNL     1       1.918   5.769  19.941  0.00  0.00    +0.000 C 
BRANCH  18  19
ATOM     19  C   UNL     1       1.120   4.562  20.531  0.00  0.00    +0.000 C 
BRANCH  19  20
ATOM     20  N   UNL     1       1.647   3.191  20.371  0.00  0.00    +0.000 NA
ATOM     21  C   UNL     1       2.380   2.768  21.575  0.00  0.00    +0.000 C 
BRANCH  20  22
ATOM     22  C   UNL     1       2.493   2.999  19.170  0.00  0.00    +0.000 C 
BRANCH  22  23
ATOM     23  C   UNL     1       4.016   3.304  19.358  0.00  0.00    +0.000 C 
BRANCH  23  27
ATOM     24  C   UNL     1       6.127   5.036  15.967  0.00  0.00    +0.000 A 
ATOM     25  C   UNL     1       5.004   4.231  15.777  0.00  0.00    +0.000 A 
ATOM     26  C   UNL     1       4.347   3.664  16.860  0.00  0.00    +0.000 A 
ATOM     27  C   UNL     1       4.775   3.863  18.169  0.00  0.00    +0.000 A 
ATOM     28  C   UNL     1       5.949   4.602  18.354  0.00  0.00    +0.000 A 
ATOM     29  C   UNL     1       6.640   5.183  17.270  0.00  0.00    +0.000 A 
BRANCH  24  31
ATOM     30  C   UNL     1       7.097   4.778  13.829  0.00  0.00    +0.000 C 
ATOM     31  O   UNL     1       6.739   5.645  14.906  0.00  0.00    +0.000 OA
ENDBRANCH  24  31
BRANCH  29  32
ATOM     32  O   UNL     1       7.761   5.869  17.665  0.00  0.00    +0.000 OA
ATOM     33  C   UNL     1       7.921   6.158  19.047  0.00  0.00    +0.000 C 
ENDBRANCH  29  32
ENDBRANCH  23  27
ENDBRANCH  22  23
ENDBRANCH  20  22
ENDBRANCH  19  20
ENDBRANCH  18  19
ENDBRANCH   1  18
TORSDOF 11
ENDMDL
MODEL 9
REMARK VINA RESULT:      -6.6      1.946      2.804
REMARK  Name = 
REMARK  16 active torsions:
REMARK  status: ('A' for Active; 'I' for Inactive)
REMARK    1  A    between atoms: C_1  and  O_2
REMARK    2  A    between atoms: O_2  and  C_3
REMARK    3  A    between atoms: C_6  and  C_7
REMARK    4  A    between atoms: C_7  and  C_8
REMARK    5  A    between atoms: C_8  and  N_9
REMARK    6  A    between atoms: N_9  and  C_10
REMARK    7  A    between atoms: N_9  and  C_11
REMARK    8  A    between atoms: C_11  and  C_12
REMARK    9  A    between atoms: C_12  and  C_13
REMARK   10  A    between atoms: C_13  and  N_14
REMARK   11  A    between atoms: C_20  and  O_21
REMARK   12  A    between atoms: O_21  and  C_22
REMARK   13  A    between atoms: C_23  and  O_24
REMARK   14  A    between atoms: O_24  and  C_25
REMARK   15  A    between atoms: C_31  and  O_32
REMARK   16  A    between atoms: O_32  and  C_33
REMARK                            x       y       z     vdW  Elec       q    Type
REMARK                         _______ _______ _______ _____ _____    ______ ____
ROOT
ATOM      1  C   UNL     1       1.315   8.999  17.801  0.00  0.00    +0.000 C 
ENDROOT
BRANCH   1   2
ATOM      2  N   UNL     1       0.943  10.113  18.752  0.00  0.00    +0.000 N 
ATOM      3  C   UNL     1       0.743   9.732  20.144  0.00  0.00    +0.000 C 
ATOM      4  C   UNL     1      -0.183  10.530  21.060  0.00  0.00    +0.000 C 
ATOM      5  C   UNL     1      -0.441  12.010  20.896  0.00  0.00    +0.000 C 
ATOM      6  C   UNL     1      -0.170  12.659  19.546  0.00  0.00    +0.000 A 
ATOM      7  C   UNL     1      -0.863  13.868  19.338  0.00  0.00    +0.000 A 
ATOM      8  C   UNL     1      -0.166  15.077  19.377  0.00  0.00    +0.000 A 
ATOM      9  C   UNL     1       1.212  15.024  19.615  0.00  0.00    +0.000 A 
ATOM     10  C   UNL     1       1.896  13.798  19.387  0.00  0.00    +0.000 A 
ATOM     11  C   UNL     1       1.170  12.609  19.197  0.00  0.00    +0.000 A 
ATOM     12  C   UNL     1       1.701  11.334  18.579  0.00  0.00    +0.000 C 
ATOM     13  O   UNL     1       2.692  11.411  17.872  0.00  0.00    +0.000 OA
BRANCH   8  14
ATOM     14  O   UNL     1      -0.762  16.299  19.240  0.00  0.00    +0.000 OA
ATOM     15  C   UNL     1      -0.535  17.026  18.040  0.00  0.00    +0.000 C 
ENDBRANCH   8  14
BRANCH   9  16
ATOM     16  O   UNL     1       1.996  16.068  20.047  0.00  0.00    +0.000 OA
ATOM     17  C   UNL     1       2.995  16.607  19.171  0.00  0.00    +0.000 C 
ENDBRANCH   9  16
ENDBRANCH   1   2
BRANCH   1  18
ATOM     18  C   UNL     1       2.570   8.132  18.126  0.00  0.00    +0.000 C 
BRANCH  18  19
ATOM     19  C   UNL     1       2.544   7.204  19.382  0.00  0.00    +0.000 C 
BRANCH  19  20
ATOM     20  N   UNL     1       1.952   5.854  19.280  0.00  0.00    +0.000 NA
ATOM     21  C   UNL     1       2.265   5.053  20.474  0.00  0.00    +0.000 C 
BRANCH  20  22
ATOM     22  C   UNL     1       2.337   5.111  18.057  0.00  0.00    +0.000 C 
BRANCH  22  23
ATOM     23  C   UNL     1       3.628   4.234  18.175  0.00  0.00    +0.000 C 
BRANCH  23  27
ATOM     24  C   UNL     1       6.818   5.174  15.366  0.00  0.00    +0.000 A 
ATOM     25  C   UNL     1       6.061   4.010  15.228  0.00  0.00    +0.000 A 
ATOM     26  C   UNL     1       5.059   3.705  16.138  0.00  0.00    +0.000 A 
ATOM     27  C   UNL     1       4.770   4.529  17.221  0.00  0.00    +0.000 A 
ATOM     28  C   UNL     1       5.583   5.653  17.406  0.00  0.00    +0.000 A 
ATOM     29  C   UNL     1       6.613   5.982  16.499  0.00  0.00    +0.000 A 
BRANCH  24  31
ATOM     30  C   UNL     1       7.564   4.951  13.136  0.00  0.00    +0.000 C 
ATOM     31  O   UNL     1       7.765   5.507  14.435  0.00  0.00    +0.000 OA
ENDBRANCH  24  31
BRANCH  29  32
ATOM     32  O   UNL     1       7.288   7.123  16.859  0.00  0.00    +0.000 OA
ATOM     33  C   UNL     1       7.869   7.182  18.153  0.00  0.00    +0.000 C 
ENDBRANCH  29  32
ENDBRANCH  23  27
ENDBRANCH  22  23
ENDBRANCH  20  22
ENDBRANCH  19  20
ENDBRANCH  18  19
ENDBRANCH   1  18
TORSDOF 11
ENDMDL
