MODEL 1
REMARK VINA RESULT:      -5.8      0.000      0.000
REMARK  Name = 
REMARK  6 active torsions:
REMARK  status: ('A' for Active; 'I' for Inactive)
REMARK    1  A    between atoms: C_1  and  C_2
REMARK    2  A    between atoms: C_10  and  C_11
REMARK    3  A    between atoms: C_11  and  C_12
REMARK    4  A    between atoms: C_12  and  C_13
REMARK    5  A    between atoms: C_13  and  C_14
REMARK    6  A    between atoms: C_14  and  N_15
REMARK                            x       y       z     vdW  Elec       q    Type
REMARK                         _______ _______ _______ _____ _____    ______ ____
ROOT
ATOM      1  C   UNL     1       4.105   7.581  17.240  0.00  0.00    +0.000 C 
ATOM      2  C   UNL     1       3.457   6.394  17.896  0.00  0.00    +0.000 C 
ATOM      3  O   UNL     1       2.239   6.399  18.097  0.00  0.00    +0.000 OA
ATOM      4  N   UNL     1       4.267   5.318  18.292  0.00  0.00    +0.000 N 
ATOM      5  C   UNL     1       5.672   5.090  18.258  0.00  0.00    +0.000 C 
ATOM      6  S   UNL     1       6.918   5.981  17.622  0.00  0.00    +0.000 S 
ATOM      7  N   UNL     1       5.935   3.916  18.899  0.00  0.00    +0.000 N 
ATOM      8  C   UNL     1       4.805   3.327  19.361  0.00  0.00    +0.000 C 
ATOM      9  O   UNL     1       4.764   2.267  19.962  0.00  0.00    +0.000 OA
ATOM     10  C   UNL     1       3.612   4.186  18.963  0.00  0.00    +0.000 C 
ATOM     11  H   UNL     1       6.855   3.521  19.018  0.00  0.00    +0.000 HD
ENDROOT
BRANCH  10  12
ATOM     12  C   UNL     1       2.627   3.374  18.105  0.00  0.00    +0.000 C 
BRANCH  12  13
ATOM     13  C   UNL     1       1.265   3.190  18.779  0.00  0.00    +0.000 C 
BRANCH  13  14
ATOM     14  C   UNL     1       1.301   2.190  19.936  0.00  0.00    +0.000 C 
BRANCH  14  15
ATOM     15  C   UNL     1       1.312   2.905  21.290  0.00  0.00    +0.000 C 
BRANCH  15  16
ATOM     16  N   UNL     1       2.503   2.561  22.060  0.00  0.00    +0.000 NA
ATOM     17  H   UNL     1       2.435   1.597  22.385  0.00  0.00    +0.000 HD
ATOM     18  H   UNL     1       2.555   3.145  22.894  0.00  0.00    +0.000 HD
ENDBRANCH  15  16
ENDBRANCH  14  15
ENDBRANCH  13  14
ENDBRANCH  12  13
ENDBRANCH  10  12
TORSDOF 5
ENDMDL
MODEL 2
REMARK VINA RESULT:      -5.7      2.680      5.304
REMARK  Name = 
REMARK  6 active torsions:
REMARK  status: ('A' for Active; 'I' for Inactive)
REMARK    1  A    between atoms: C_1  and  C_2
REMARK    2  A    between atoms: C_10  and  C_11
REMARK    3  A    between atoms: C_11  and  C_12
REMARK    4  A    between atoms: C_12  and  C_13
REMARK    5  A    between atoms: C_13  and  C_14
REMARK    6  A    between atoms: C_14  and  N_15
REMARK                            x       y       z     vdW  Elec       q    Type
REMARK                         _______ _______ _______ _____ _____    ______ ____
ROOT
ATOM      1  C   UNL     1       4.448   2.052  20.116  0.00  0.00    +0.000 C 
ATOM      2  C   UNL     1       4.536   3.444  19.553  0.00  0.00    +0.000 C 
ATOM      3  O   UNL     1       5.531   3.777  18.904  0.00  0.00    +0.000 OA
ATOM      4  N   UNL     1       3.488   4.342  19.811  0.00  0.00    +0.000 N 
ATOM      5  C   UNL     1       2.292   4.251  20.579  0.00  0.00    +0.000 C 
ATOM      6  S   UNL     1       1.601   2.984  21.396  0.00  0.00    +0.000 S 
ATOM      7  N   UNL     1       1.694   5.475  20.593  0.00  0.00    +0.000 N 
ATOM      8  C   UNL     1       2.397   6.391  19.882  0.00  0.00    +0.000 C 
ATOM      9  O   UNL     1       2.075   7.557  19.732  0.00  0.00    +0.000 OA
ATOM     10  C   UNL     1       3.615   5.705  19.279  0.00  0.00    +0.000 C 
ATOM     11  H   UNL     1       0.829   5.686  21.068  0.00  0.00    +0.000 HD
ENDROOT
BRANCH  10  12
ATOM     12  C   UNL     1       3.600   5.834  17.746  0.00  0.00    +0.000 C 
BRANCH  12  13
ATOM     13  C   UNL     1       4.665   6.800  17.221  0.00  0.00    +0.000 C 
BRANCH  13  14
ATOM     14  C   UNL     1       5.641   6.140  16.245  0.00  0.00    +0.000 C 
BRANCH  14  15
ATOM     15  C   UNL     1       7.052   6.063  16.838  0.00  0.00    +0.000 C 
BRANCH  15  16
ATOM     16  N   UNL     1       7.566   4.697  16.803  0.00  0.00    +0.000 NA
ATOM     17  H   UNL     1       8.585   4.712  16.828  0.00  0.00    +0.000 HD
ATOM     18  H   UNL     1       7.304   4.253  15.923  0.00  0.00    +0.000 HD
ENDBRANCH  15  16
ENDBRANCH  14  15
ENDBRANCH  13  14
ENDBRANCH  12  13
ENDBRANCH  10  12
TORSDOF 5
ENDMDL
MODEL 3
REMARK VINA RESULT:      -5.6      2.083      2.880
REMARK  Name = 
REMARK  6 active torsions:
REMARK  status: ('A' for Active; 'I' for Inactive)
REMARK    1  A    between atoms: C_1  and  C_2
REMARK    2  A    between atoms: C_10  and  C_11
REMARK    3  A    between atoms: C_11  and  C_12
REMARK    4  A    between atoms: C_12  and  C_13
REMARK    5  A    between atoms: C_13  and  C_14
REMARK    6  A    between atoms: C_14  and  N_15
REMARK                            x       y       z     vdW  Elec       q    Type
REMARK                         _______ _______ _______ _____ _____    ______ ____
ROOT
ATOM      1  C   UNL     1       7.536   5.204  18.086  0.00  0.00    +0.000 C 
ATOM      2  C   UNL     1       6.185   4.983  18.710  0.00  0.00    +0.000 C 
ATOM      3  O   UNL     1       6.033   5.179  19.918  0.00  0.00    +0.000 OA
ATOM      4  N   UNL     1       5.136   4.526  17.897  0.00  0.00    +0.000 N 
ATOM      5  C   UNL     1       5.056   4.150  16.527  0.00  0.00    +0.000 C 
ATOM      6  S   UNL     1       6.171   4.210  15.300  0.00  0.00    +0.000 S 
ATOM      7  N   UNL     1       3.809   3.653  16.287  0.00  0.00    +0.000 N 
ATOM      8  C   UNL     1       3.034   3.671  17.400  0.00  0.00    +0.000 C 
ATOM      9  O   UNL     1       1.878   3.289  17.452  0.00  0.00    +0.000 OA
ATOM     10  C   UNL     1       3.836   4.284  18.539  0.00  0.00    +0.000 C 
ATOM     11  H   UNL     1       3.489   3.313  15.393  0.00  0.00    +0.000 HD
ENDROOT
BRANCH  10  12
ATOM     12  C   UNL     1       3.119   5.527  19.094  0.00  0.00    +0.000 C 
BRANCH  12  13
ATOM     13  C   UNL     1       2.316   5.232  20.363  0.00  0.00    +0.000 C 
BRANCH  13  14
ATOM     14  C   UNL     1       2.647   3.870  20.977  0.00  0.00    +0.000 C 
BRANCH  14  15
ATOM     15  C   UNL     1       1.377   3.052  21.232  0.00  0.00    +0.000 C 
BRANCH  15  16
ATOM     16  N   UNL     1       0.477   3.101  20.084  0.00  0.00    +0.000 NA
ATOM     17  H   UNL     1       0.733   2.375  19.416  0.00  0.00    +0.000 HD
ATOM     18  H   UNL     1       0.585   3.991  19.600  0.00  0.00    +0.000 HD
ENDBRANCH  15  16
ENDBRANCH  14  15
ENDBRANCH  13  14
ENDBRANCH  12  13
ENDBRANCH  10  12
TORSDOF 5
ENDMDL
MODEL 4
REMARK VINA RESULT:      -5.6      2.161      2.810
REMARK  Name = 
REMARK  6 active torsions:
REMARK  status: ('A' for Active; 'I' for Inactive)
REMARK    1  A    between atoms: C_1  and  C_2
REMARK    2  A    between atoms: C_10  and  C_11
REMARK    3  A    between atoms: C_11  and  C_12
REMARK    4  A    between atoms: C_12  and  C_13
REMARK    5  A    between atoms: C_13  and  C_14
REMARK    6  A    between atoms: C_14  and  N_15
REMARK                            x       y       z     vdW  Elec       q    Type
REMARK                         _______ _______ _______ _____ _____    ______ ____
ROOT
ATOM      1  C   UNL     1       7.461   6.426  17.929  0.00  0.00    +0.000 C 
ATOM      2  C   UNL     1       6.652   5.452  18.740  0.00  0.00    +0.000 C 
ATOM      3  O   UNL     1       6.959   5.237  19.916  0.00  0.00    +0.000 OA
ATOM      4  N   UNL     1       5.581   4.787  18.122  0.00  0.00    +0.000 N 
ATOM      5  C   UNL     1       5.072   4.784  16.793  0.00  0.00    +0.000 C 
ATOM      6  S   UNL     1       5.486   5.667  15.451  0.00  0.00    +0.000 S 
ATOM      7  N   UNL     1       4.086   3.846  16.710  0.00  0.00    +0.000 N 
ATOM      8  C   UNL     1       3.885   3.216  17.895  0.00  0.00    +0.000 C 
ATOM      9  O   UNL     1       3.058   2.343  18.090  0.00  0.00    +0.000 OA
ATOM     10  C   UNL     1       4.830   3.815  18.928  0.00  0.00    +0.000 C 
ATOM     11  H   UNL     1       3.559   3.639  15.876  0.00  0.00    +0.000 HD
ENDROOT
BRANCH  10  12
ATOM     12  C   UNL     1       4.035   4.393  20.111  0.00  0.00    +0.000 C 
BRANCH  12  13
ATOM     13  C   UNL     1       3.114   5.545  19.702  0.00  0.00    +0.000 C 
BRANCH  13  14
ATOM     14  C   UNL     1       1.655   5.313  20.097  0.00  0.00    +0.000 C 
BRANCH  14  15
ATOM     15  C   UNL     1       1.485   3.986  20.844  0.00  0.00    +0.000 C 
BRANCH  15  16
ATOM     16  N   UNL     1       0.572   3.095  20.135  0.00  0.00    +0.000 NA
ATOM     17  H   UNL     1       0.433   2.243  20.679  0.00  0.00    +0.000 HD
ATOM     18  H   UNL     1       0.987   2.809  19.249  0.00  0.00    +0.000 HD
ENDBRANCH  15  16
ENDBRANCH  14  15
ENDBRANCH  13  14
ENDBRANCH  12  13
ENDBRANCH  10  12
TORSDOF 5
ENDMDL
MODEL 5
REMARK VINA RESULT:      -5.5      2.258      2.734
REMARK  Name = 
REMARK  6 active torsions:
REMARK  status: ('A' for Active; 'I' for Inactive)
REMARK    1  A    between atoms: C_1  and  C_2
REMARK    2  A    between atoms: C_10  and  C_11
REMARK    3  A    between atoms: C_11  and  C_12
REMARK    4  A    between atoms: C_12  and  C_13
REMARK    5  A    between atoms: C_13  and  C_14
REMARK    6  A    between atoms: C_14  and  N_15
REMARK                            x       y       z     vdW  Elec       q    Type
REMARK                         _______ _______ _______ _____ _____    ______ ____
ROOT
ATOM      1  C   UNL     1       7.226   6.275  18.057  0.00  0.00    +0.000 C 
ATOM      2  C   UNL     1       6.350   5.287  18.776  0.00  0.00    +0.000 C 
ATOM      3  O   UNL     1       6.525   5.081  19.980  0.00  0.00    +0.000 OA
ATOM      4  N   UNL     1       5.371   4.597  18.043  0.00  0.00    +0.000 N 
ATOM      5  C   UNL     1       5.017   4.580  16.665  0.00  0.00    +0.000 C 
ATOM      6  S   UNL     1       5.562   5.468  15.375  0.00  0.00    +0.000 S 
ATOM      7  N   UNL     1       4.066   3.621  16.475  0.00  0.00    +0.000 N 
ATOM      8  C   UNL     1       3.745   2.990  17.632  0.00  0.00    +0.000 C 
ATOM      9  O   UNL     1       2.919   2.100  17.737  0.00  0.00    +0.000 OA
ATOM     10  C   UNL     1       4.553   3.612  18.763  0.00  0.00    +0.000 C 
ATOM     11  H   UNL     1       3.642   3.401  15.587  0.00  0.00    +0.000 HD
ENDROOT
BRANCH  10  12
ATOM     12  C   UNL     1       3.616   4.176  19.845  0.00  0.00    +0.000 C 
BRANCH  12  13
ATOM     13  C   UNL     1       3.180   3.120  20.863  0.00  0.00    +0.000 C 
BRANCH  13  14
ATOM     14  C   UNL     1       1.702   3.229  21.243  0.00  0.00    +0.000 C 
BRANCH  14  15
ATOM     15  C   UNL     1       0.863   3.742  20.068  0.00  0.00    +0.000 C 
BRANCH  15  16
ATOM     16  N   UNL     1       0.279   2.637  19.314  0.00  0.00    +0.000 NA
ATOM     17  H   UNL     1      -0.458   2.197  19.866  0.00  0.00    +0.000 HD
ATOM     18  H   UNL     1       0.985   1.920  19.150  0.00  0.00    +0.000 HD
ENDBRANCH  15  16
ENDBRANCH  14  15
ENDBRANCH  13  14
ENDBRANCH  12  13
ENDBRANCH  10  12
TORSDOF 5
ENDMDL
MODEL 6
REMARK VINA RESULT:      -5.5      2.846      5.096
REMARK  Name = 
REMARK  6 active torsions:
REMARK  status: ('A' for Active; 'I' for Inactive)
REMARK    1  A    between atoms: C_1  and  C_2
REMARK    2  A    between atoms: C_10  and  C_11
REMARK    3  A    between atoms: C_11  and  C_12
REMARK    4  A    between atoms: C_12  and  C_13
REMARK    5  A    between atoms: C_13  and  C_14
REMARK    6  A    between atoms: C_14  and  N_15
REMARK                            x       y       z     vdW  Elec       q    Type
REMARK                         _______ _______ _______ _____ _____    ______ ____
ROOT
ATOM      1  C   UNL     1       1.367   2.180  19.383  0.00  0.00    +0.000 C 
ATOM      2  C   UNL     1       2.633   2.483  18.631  0.00  0.00    +0.000 C 
ATOM      3  O   UNL     1       3.085   1.651  17.839  0.00  0.00    +0.000 OA
ATOM      4  N   UNL     1       3.288   3.700  18.878  0.00  0.00    +0.000 N 
ATOM      5  C   UNL     1       3.039   4.777  19.775  0.00  0.00    +0.000 C 
ATOM      6  S   UNL     1       1.790   5.070  20.826  0.00  0.00    +0.000 S 
ATOM      7  N   UNL     1       4.075   5.659  19.689  0.00  0.00    +0.000 N 
ATOM      8  C   UNL     1       5.007   5.259  18.789  0.00  0.00    +0.000 C 
ATOM      9  O   UNL     1       6.026   5.872  18.519  0.00  0.00    +0.000 OA
ATOM     10  C   UNL     1       4.542   3.955  18.156  0.00  0.00    +0.000 C 
ATOM     11  H   UNL     1       4.148   6.512  20.221  0.00  0.00    +0.000 HD
ENDROOT
BRANCH  10  12
ATOM     12  C   UNL     1       4.420   4.112  16.631  0.00  0.00    +0.000 C 
BRANCH  12  13
ATOM     13  C   UNL     1       5.496   3.336  15.867  0.00  0.00    +0.000 C 
BRANCH  13  14
ATOM     14  C   UNL     1       6.064   4.115  14.678  0.00  0.00    +0.000 C 
BRANCH  14  15
ATOM     15  C   UNL     1       7.211   5.032  15.112  0.00  0.00    +0.000 C 
BRANCH  15  16
ATOM     16  N   UNL     1       7.799   4.585  16.371  0.00  0.00    +0.000 NA
ATOM     17  H   UNL     1       7.621   5.277  17.098  0.00  0.00    +0.000 HD
ATOM     18  H   UNL     1       8.812   4.519  16.274  0.00  0.00    +0.000 HD
ENDBRANCH  15  16
ENDBRANCH  14  15
ENDBRANCH  13  14
ENDBRANCH  12  13
ENDBRANCH  10  12
TORSDOF 5
ENDMDL
MODEL 7
REMARK VINA RESULT:      -5.5      2.017      2.709
REMARK  Name = 
REMARK  6 active torsions:
REMARK  status: ('A' for Active; 'I' for Inactive)
REMARK    1  A    between atoms: C_1  and  C_2
REMARK    2  A    between atoms: C_10  and  C_11
REMARK    3  A    between atoms: C_11  and  C_12
REMARK    4  A    between atoms: C_12  and  C_13
REMARK    5  A    between atoms: C_13  and  C_14
REMARK    6  A    between atoms: C_14  and  N_15
REMARK                            x       y       z     vdW  Elec       q    Type
REMARK                         _______ _______ _______ _____ _____    ______ ____
ROOT
ATOM      1  C   UNL     1       7.121   4.626  16.189  0.00  0.00    +0.000 C 
ATOM      2  C   UNL     1       5.619   4.644  16.269  0.00  0.00    +0.000 C 
ATOM      3  O   UNL     1       4.953   4.409  15.257  0.00  0.00    +0.000 OA
ATOM      4  N   UNL     1       5.014   4.960  17.495  0.00  0.00    +0.000 N 
ATOM      5  C   UNL     1       5.527   5.343  18.766  0.00  0.00    +0.000 C 
ATOM      6  S   UNL     1       7.080   5.460  19.338  0.00  0.00    +0.000 S 
ATOM      7  N   UNL     1       4.479   5.662  19.577  0.00  0.00    +0.000 N 
ATOM      8  C   UNL     1       3.288   5.517  18.946  0.00  0.00    +0.000 C 
ATOM      9  O   UNL     1       2.199   5.731  19.451  0.00  0.00    +0.000 OA
ATOM     10  C   UNL     1       3.546   5.005  17.535  0.00  0.00    +0.000 C 
ATOM     11  H   UNL     1       4.566   5.968  20.534  0.00  0.00    +0.000 HD
ENDROOT
BRANCH  10  12
ATOM     12  C   UNL     1       2.825   3.666  17.310  0.00  0.00    +0.000 C 
BRANCH  12  13
ATOM     13  C   UNL     1       3.427   2.522  18.129  0.00  0.00    +0.000 C 
BRANCH  13  14
ATOM     14  C   UNL     1       2.488   2.010  19.222  0.00  0.00    +0.000 C 
BRANCH  14  15
ATOM     15  C   UNL     1       1.045   2.459  18.971  0.00  0.00    +0.000 C 
BRANCH  15  16
ATOM     16  N   UNL     1       0.508   3.180  20.121  0.00  0.00    +0.000 NA
ATOM     17  H   UNL     1       0.653   4.181  19.998  0.00  0.00    +0.000 HD
ATOM     18  H   UNL     1       1.018   2.914  20.963  0.00  0.00    +0.000 HD
ENDBRANCH  15  16
ENDBRANCH  14  15
ENDBRANCH  13  14
ENDBRANCH  12  13
ENDBRANCH  10  12
TORSDOF 5
ENDMDL
MODEL 8
REMARK VINA RESULT:      -5.5      2.576      5.176
REMARK  Name = 
REMARK  6 active torsions:
REMARK  status: ('A' for Active; 'I' for Inactive)
REMARK    1  A    between atoms: C_1  and  C_2
REMARK    2  A    between atoms: C_10  and  C_11
REMARK    3  A    between atoms: C_11  and  C_12
REMARK    4  A    between atoms: C_12  and  C_13
REMARK    5  A    between atoms: C_13  and  C_14
REMARK    6  A    between atoms: C_14  and  N_15
REMARK                            x       y       z     vdW  Elec       q    Type
REMARK                         _______ _______ _______ _____ _____    ______ ____
ROOT
ATOM      1  C   UNL     1       4.314   2.229  19.646  0.00  0.00    +0.000 C 
ATOM      2  C   UNL     1       4.678   3.645  19.293  0.00  0.00    +0.000 C 
ATOM      3  O   UNL     1       5.831   4.042  19.481  0.00  0.00    +0.000 OA
ATOM      4  N   UNL     1       3.678   4.490  18.786  0.00  0.00    +0.000 N 
ATOM      5  C   UNL     1       2.284   4.321  18.553  0.00  0.00    +0.000 C 
ATOM      6  S   UNL     1       1.296   2.996  18.690  0.00  0.00    +0.000 S 
ATOM      7  N   UNL     1       1.762   5.520  18.168  0.00  0.00    +0.000 N 
ATOM      8  C   UNL     1       2.708   6.491  18.116  0.00  0.00    +0.000 C 
ATOM      9  O   UNL     1       2.504   7.649  17.794  0.00  0.00    +0.000 OA
ATOM     10  C   UNL     1       4.052   5.878  18.483  0.00  0.00    +0.000 C 
ATOM     11  H   UNL     1       0.792   5.678  17.941  0.00  0.00    +0.000 HD
ENDROOT
BRANCH  10  12
ATOM     12  C   UNL     1       5.060   6.069  17.337  0.00  0.00    +0.000 C 
BRANCH  12  13
ATOM     13  C   UNL     1       4.803   5.128  16.158  0.00  0.00    +0.000 C 
BRANCH  13  14
ATOM     14  C   UNL     1       6.029   4.295  15.779  0.00  0.00    +0.000 C 
BRANCH  14  15
ATOM     15  C   UNL     1       7.322   4.958  16.261  0.00  0.00    +0.000 C 
BRANCH  15  16
ATOM     16  N   UNL     1       8.001   4.131  17.254  0.00  0.00    +0.000 NA
ATOM     17  H   UNL     1       8.287   3.249  16.830  0.00  0.00    +0.000 HD
ATOM     18  H   UNL     1       7.355   3.896  18.006  0.00  0.00    +0.000 HD
ENDBRANCH  15  16
ENDBRANCH  14  15
ENDBRANCH  13  14
ENDBRANCH  12  13
ENDBRANCH  10  12
TORSDOF 5
ENDMDL
MODEL 9
REMARK VINA RESULT:      -5.4      3.687      5.517
REMARK  Name = 
REMARK  6 active torsions:
REMARK  status: ('A' for Active; 'I' for Inactive)
REMARK    1  A    between atoms: C_1  and  C_2
REMARK    2  A    between atoms: C_10  and  C_11
REMARK    3  A    between atoms: C_11  and  C_12
REMARK    4  A    between atoms: C_12  and  C_13
REMARK    5  A    between atoms: C_13  and  C_14
REMARK    6  A    between atoms: C_14  and  N_15
REMARK                            x       y       z     vdW  Elec       q    Type
REMARK                         _______ _______ _______ _____ _____    ______ ____
ROOT
ATOM      1  C   UNL     1       1.812   4.574  17.893  0.00  0.00    +0.000 C 
ATOM      2  C   UNL     1       3.193   4.049  17.611  0.00  0.00    +0.000 C 
ATOM      3  O   UNL     1       3.388   2.831  17.586  0.00  0.00    +0.000 OA
ATOM      4  N   UNL     1       4.235   4.969  17.414  0.00  0.00    +0.000 N 
ATOM      5  C   UNL     1       4.305   6.390  17.469  0.00  0.00    +0.000 C 
ATOM      6  S   UNL     1       3.134   7.544  17.683  0.00  0.00    +0.000 S 
ATOM      7  N   UNL     1       5.608   6.764  17.323  0.00  0.00    +0.000 N 
ATOM      8  C   UNL     1       6.428   5.695  17.166  0.00  0.00    +0.000 C 
ATOM      9  O   UNL     1       7.635   5.757  17.009  0.00  0.00    +0.000 OA
ATOM     10  C   UNL     1       5.580   4.430  17.175  0.00  0.00    +0.000 C 
ATOM     11  H   UNL     1       5.935   7.718  17.325  0.00  0.00    +0.000 HD
ENDROOT
BRANCH  10  12
ATOM     12  C   UNL     1       5.769   3.647  15.864  0.00  0.00    +0.000 C 
BRANCH  12  13
ATOM     13  C   UNL     1       5.584   4.520  14.620  0.00  0.00    +0.000 C 
BRANCH  13  14
ATOM     14  C   UNL     1       6.422   4.049  13.430  0.00  0.00    +0.000 C 
BRANCH  14  15
ATOM     15  C   UNL     1       5.548   3.374  12.368  0.00  0.00    +0.000 C 
BRANCH  15  16
ATOM     16  N   UNL     1       6.174   2.155  11.866  0.00  0.00    +0.000 NA
ATOM     17  H   UNL     1       6.183   2.167  10.847  0.00  0.00    +0.000 HD
ATOM     18  H   UNL     1       5.620   1.345  12.142  0.00  0.00    +0.000 HD
ENDBRANCH  15  16
ENDBRANCH  14  15
ENDBRANCH  13  14
ENDBRANCH  12  13
ENDBRANCH  10  12
TORSDOF 5
ENDMDL
