MODEL 1
REMARK VINA RESULT:      -8.0      0.000      0.000
REMARK  Name = 
REMARK  4 active torsions:
REMARK  status: ('A' for Active; 'I' for Inactive)
REMARK    1  A    between atoms: C_2  and  C_3
REMARK    2  A    between atoms: C_9  and  C_10
REMARK    3  A    between atoms: C_21  and  N_22
REMARK    4  A    between atoms: C_26  and  C_27
REMARK                            x       y       z     vdW  Elec       q    Type
REMARK                         _______ _______ _______ _____ _____    ______ ____
ROOT
ATOM      1  O   UNL     1       0.206   9.652  18.254  0.00  0.00    +0.000 OA
ATOM      2  C   UNL     1       0.358  10.371  19.239  0.00  0.00    +0.000 C 
ATOM      3  N   UNL     1       0.274   9.877  20.525  0.00  0.00    +0.000 N 
ATOM      4  C   UNL     1       0.825  10.323  21.792  0.00  0.00    +0.000 C 
ATOM      5  C   UNL     1      -0.319   9.965  22.747  0.00  0.00    +0.000 C 
ATOM      6  C   UNL     1      -0.890   8.679  22.113  0.00  0.00    +0.000 C 
ATOM      7  C   UNL     1      -0.004   8.487  20.867  0.00  0.00    +0.000 C 
ATOM      8  C   UNL     1       1.393   7.998  21.346  0.00  0.00    +0.000 C 
ATOM      9  C   UNL     1       1.965   9.298  21.996  0.00  0.00    +0.000 C 
ENDROOT
BRANCH   8  10
ATOM     10  N   UNL     1       2.252   7.619  20.217  0.00  0.00    +0.000 N 
ATOM     11  C   UNL     1       2.247   6.267  19.832  0.00  0.00    +0.000 A 
ATOM     12  C   UNL     1       3.028   5.867  18.748  0.00  0.00    +0.000 A 
ATOM     13  N   UNL     1       3.155   4.583  18.324  0.00  0.00    +0.000 NA
ATOM     14  C   UNL     1       2.468   3.656  19.044  0.00  0.00    +0.000 A 
ATOM     15  C   UNL     1       1.690   4.045  20.128  0.00  0.00    +0.000 A 
ATOM     16  N   UNL     1       1.568   5.338  20.542  0.00  0.00    +0.000 NA
ATOM     17  H   UNL     1       2.044   8.194  19.395  0.00  0.00    +0.000 HD
BRANCH  14  18
ATOM     18  C   UNL     1       2.541   2.184  18.696  0.00  0.00    +0.000 C 
ATOM     19  F   UNL     1       2.411   1.909  17.367  0.00  0.00    +0.000 F 
ATOM     20  F   UNL     1       3.724   1.616  19.076  0.00  0.00    +0.000 F 
ATOM     21  F   UNL     1       1.573   1.451  19.320  0.00  0.00    +0.000 F 
ENDBRANCH  14  18
ENDBRANCH   8  10
BRANCH   2  22
ATOM     22  C   UNL     1       0.701  11.811  19.032  0.00  0.00    +0.000 A 
ATOM     23  C   UNL     1       2.062  12.109  18.807  0.00  0.00    +0.000 A 
ATOM     24  C   UNL     1       2.496  13.418  18.626  0.00  0.00    +0.000 A 
ATOM     25  C   UNL     1       1.563  14.438  18.595  0.00  0.00    +0.000 A 
ATOM     26  C   UNL     1       0.205  14.143  18.740  0.00  0.00    +0.000 A 
ATOM     27  F   UNL     1      -0.632  15.189  18.690  0.00  0.00    +0.000 F 
ATOM     28  C   UNL     1      -0.277  12.833  18.960  0.00  0.00    +0.000 A 
BRANCH  28  29
ATOM     29  C   UNL     1      -1.727  12.627  19.108  0.00  0.00    +0.000 A 
ATOM     30  N   UNL     1      -2.301  13.051  20.256  0.00  0.00    +0.000 NA
ATOM     31  C   UNL     1      -3.607  12.781  20.431  0.00  0.00    +0.000 A 
ATOM     32  C   UNL     1      -4.373  12.141  19.492  0.00  0.00    +0.000 A 
ATOM     33  C   UNL     1      -3.706  11.762  18.350  0.00  0.00    +0.000 A 
ATOM     34  N   UNL     1      -2.386  11.956  18.149  0.00  0.00    +0.000 NA
ENDBRANCH  28  29
ENDBRANCH   2  22
TORSDOF 4
ENDMDL
MODEL 2
REMARK VINA RESULT:      -8.0      0.206      1.071
REMARK  Name = 
REMARK  4 active torsions:
REMARK  status: ('A' for Active; 'I' for Inactive)
REMARK    1  A    between atoms: C_2  and  C_3
REMARK    2  A    between atoms: C_9  and  C_10
REMARK    3  A    between atoms: C_21  and  N_22
REMARK    4  A    between atoms: C_26  and  C_27
REMARK                            x       y       z     vdW  Elec       q    Type
REMARK                         _______ _______ _______ _____ _____    ______ ____
ROOT
ATOM      1  O   UNL     1       0.044   9.653  18.318  0.00  0.00    +0.000 OA
ATOM      2  C   UNL     1       0.238  10.375  19.293  0.00  0.00    +0.000 C 
ATOM      3  N   UNL     1       0.216   9.883  20.583  0.00  0.00    +0.000 N 
ATOM      4  C   UNL     1       0.822  10.334  21.822  0.00  0.00    +0.000 C 
ATOM      5  C   UNL     1      -0.275   9.973  22.829  0.00  0.00    +0.000 C 
ATOM      6  C   UNL     1      -0.870   8.684  22.225  0.00  0.00    +0.000 C 
ATOM      7  C   UNL     1      -0.041   8.493  20.940  0.00  0.00    +0.000 C 
ATOM      8  C   UNL     1       1.379   8.010  21.355  0.00  0.00    +0.000 C 
ATOM      9  C   UNL     1       1.975   9.313  21.975  0.00  0.00    +0.000 C 
ENDROOT
BRANCH   8  10
ATOM     10  N   UNL     1       2.186   7.632  20.187  0.00  0.00    +0.000 N 
ATOM     11  C   UNL     1       2.199   6.273  19.828  0.00  0.00    +0.000 A 
ATOM     12  C   UNL     1       2.931   5.873  18.711  0.00  0.00    +0.000 A 
ATOM     13  N   UNL     1       3.072   4.585  18.305  0.00  0.00    +0.000 NA
ATOM     14  C   UNL     1       2.450   3.654  19.078  0.00  0.00    +0.000 A 
ATOM     15  C   UNL     1       1.722   4.043  20.196  0.00  0.00    +0.000 A 
ATOM     16  N   UNL     1       1.585   5.341  20.591  0.00  0.00    +0.000 NA
ATOM     17  H   UNL     1       1.918   8.185  19.368  0.00  0.00    +0.000 HD
BRANCH  14  18
ATOM     18  C   UNL     1       2.547   2.178  18.754  0.00  0.00    +0.000 C 
ATOM     19  F   UNL     1       3.703   1.583  19.161  0.00  0.00    +0.000 F 
ATOM     20  F   UNL     1       1.538   1.452  19.319  0.00  0.00    +0.000 F 
ATOM     21  F   UNL     1       2.459   1.932  17.413  0.00  0.00    +0.000 F 
ENDBRANCH  14  18
ENDBRANCH   8  10
BRANCH   2  22
ATOM     22  C   UNL     1       0.566  11.816  19.068  0.00  0.00    +0.000 A 
ATOM     23  C   UNL     1       1.896  12.110  18.697  0.00  0.00    +0.000 A 
ATOM     24  C   UNL     1       2.315  13.419  18.485  0.00  0.00    +0.000 A 
ATOM     25  C   UNL     1       1.391  14.444  18.572  0.00  0.00    +0.000 A 
ATOM     26  C   UNL     1       0.056  14.154  18.864  0.00  0.00    +0.000 A 
ATOM     27  F   UNL     1      -0.775  15.206  18.921  0.00  0.00    +0.000 F 
ATOM     28  C   UNL     1      -0.408  12.844  19.119  0.00  0.00    +0.000 A 
BRANCH  28  29
ATOM     29  C   UNL     1      -1.833  12.644  19.425  0.00  0.00    +0.000 A 
ATOM     30  N   UNL     1      -2.586  12.015  18.493  0.00  0.00    +0.000 NA
ATOM     31  C   UNL     1      -3.906  11.914  18.731  0.00  0.00    +0.000 A 
ATOM     32  C   UNL     1      -4.500  12.378  19.876  0.00  0.00    +0.000 A 
ATOM     33  C   UNL     1      -3.652  12.988  20.770  0.00  0.00    +0.000 A 
ATOM     34  N   UNL     1      -2.333  13.168  20.556  0.00  0.00    +0.000 NA
ENDBRANCH  28  29
ENDBRANCH   2  22
TORSDOF 4
ENDMDL
MODEL 3
REMARK VINA RESULT:      -7.1      1.567      1.980
REMARK  Name = 
REMARK  4 active torsions:
REMARK  status: ('A' for Active; 'I' for Inactive)
REMARK    1  A    between atoms: C_2  and  C_3
REMARK    2  A    between atoms: C_9  and  C_10
REMARK    3  A    between atoms: C_21  and  N_22
REMARK    4  A    between atoms: C_26  and  C_27
REMARK                            x       y       z     vdW  Elec       q    Type
REMARK                         _______ _______ _______ _____ _____    ______ ____
ROOT
ATOM      1  O   UNL     1      -0.780  10.529  18.525  0.00  0.00    +0.000 OA
ATOM      2  C   UNL     1      -0.436  11.078  19.568  0.00  0.00    +0.000 C 
ATOM      3  N   UNL     1      -0.203  10.366  20.728  0.00  0.00    +0.000 N 
ATOM      4  C   UNL     1       0.605  10.630  21.904  0.00  0.00    +0.000 C 
ATOM      5  C   UNL     1      -0.275  10.023  23.002  0.00  0.00    +0.000 C 
ATOM      6  C   UNL     1      -0.926   8.824  22.281  0.00  0.00    +0.000 C 
ATOM      7  C   UNL     1      -0.341   8.920  20.859  0.00  0.00    +0.000 C 
ATOM      8  C   UNL     1       1.146   8.469  20.922  0.00  0.00    +0.000 C 
ATOM      9  C   UNL     1       1.801   9.679  21.661  0.00  0.00    +0.000 C 
ENDROOT
BRANCH   8  10
ATOM     10  N   UNL     1       1.738   8.359  19.583  0.00  0.00    +0.000 N 
ATOM     11  C   UNL     1       2.402   7.160  19.270  0.00  0.00    +0.000 A 
ATOM     12  C   UNL     1       2.957   7.002  18.001  0.00  0.00    +0.000 A 
ATOM     13  N   UNL     1       3.676   5.921  17.605  0.00  0.00    +0.000 NA
ATOM     14  C   UNL     1       3.854   4.956  18.548  0.00  0.00    +0.000 A 
ATOM     15  C   UNL     1       3.309   5.107  19.817  0.00  0.00    +0.000 A 
ATOM     16  N   UNL     1       2.586   6.197  20.202  0.00  0.00    +0.000 NA
ATOM     17  H   UNL     1       1.035   8.541  18.861  0.00  0.00    +0.000 HD
BRANCH  14  18
ATOM     18  C   UNL     1       4.658   3.708  18.248  0.00  0.00    +0.000 C 
ATOM     19  F   UNL     1       4.108   2.894  17.304  0.00  0.00    +0.000 F 
ATOM     20  F   UNL     1       5.917   3.993  17.802  0.00  0.00    +0.000 F 
ATOM     21  F   UNL     1       4.836   2.924  19.352  0.00  0.00    +0.000 F 
ENDBRANCH  14  18
ENDBRANCH   8  10
BRANCH   2  22
ATOM     22  C   UNL     1      -0.205  12.555  19.562  0.00  0.00    +0.000 A 
ATOM     23  C   UNL     1       0.911  13.016  18.831  0.00  0.00    +0.000 A 
ATOM     24  C   UNL     1       1.232  14.369  18.777  0.00  0.00    +0.000 A 
ATOM     25  C   UNL     1       0.399  15.283  19.395  0.00  0.00    +0.000 A 
ATOM     26  C   UNL     1      -0.749  14.841  20.056  0.00  0.00    +0.000 A 
ATOM     27  F   UNL     1      -1.506  15.795  20.621  0.00  0.00    +0.000 F 
ATOM     28  C   UNL     1      -1.096  13.476  20.165  0.00  0.00    +0.000 A 
BRANCH  28  29
ATOM     29  C   UNL     1      -2.325  13.113  20.890  0.00  0.00    +0.000 A 
ATOM     30  N   UNL     1      -3.461  12.996  20.166  0.00  0.00    +0.000 NA
ATOM     31  C   UNL     1      -4.600  12.754  20.840  0.00  0.00    +0.000 A 
ATOM     32  C   UNL     1      -4.647  12.586  22.199  0.00  0.00    +0.000 A 
ATOM     33  C   UNL     1      -3.440  12.707  22.847  0.00  0.00    +0.000 A 
ATOM     34  N   UNL     1      -2.279  13.006  22.228  0.00  0.00    +0.000 NA
ENDBRANCH  28  29
ENDBRANCH   2  22
TORSDOF 4
ENDMDL
MODEL 4
REMARK VINA RESULT:      -7.0      1.541      1.936
REMARK  Name = 
REMARK  4 active torsions:
REMARK  status: ('A' for Active; 'I' for Inactive)
REMARK    1  A    between atoms: C_2  and  C_3
REMARK    2  A    between atoms: C_9  and  C_10
REMARK    3  A    between atoms: C_21  and  N_22
REMARK    4  A    between atoms: C_26  and  C_27
REMARK                            x       y       z     vdW  Elec       q    Type
REMARK                         _______ _______ _______ _____ _____    ______ ____
ROOT
ATOM      1  O   UNL     1      -0.782  10.578  18.582  0.00  0.00    +0.000 OA
ATOM      2  C   UNL     1      -0.393  11.112  19.618  0.00  0.00    +0.000 C 
ATOM      3  N   UNL     1      -0.166  10.389  20.773  0.00  0.00    +0.000 N 
ATOM      4  C   UNL     1       0.675  10.619  21.932  0.00  0.00    +0.000 C 
ATOM      5  C   UNL     1      -0.206  10.048  23.048  0.00  0.00    +0.000 C 
ATOM      6  C   UNL     1      -0.920   8.877  22.340  0.00  0.00    +0.000 C 
ATOM      7  C   UNL     1      -0.361   8.951  20.906  0.00  0.00    +0.000 C 
ATOM      8  C   UNL     1       1.108   8.439  20.939  0.00  0.00    +0.000 C 
ATOM      9  C   UNL     1       1.826   9.621  21.664  0.00  0.00    +0.000 C 
ENDROOT
BRANCH   8  10
ATOM     10  N   UNL     1       1.667   8.306  19.587  0.00  0.00    +0.000 N 
ATOM     11  C   UNL     1       2.353   7.116  19.290  0.00  0.00    +0.000 A 
ATOM     12  C   UNL     1       2.878   6.936  18.011  0.00  0.00    +0.000 A 
ATOM     13  N   UNL     1       3.615   5.862  17.626  0.00  0.00    +0.000 NA
ATOM     14  C   UNL     1       3.842   4.929  18.590  0.00  0.00    +0.000 A 
ATOM     15  C   UNL     1       3.327   5.102  19.869  0.00  0.00    +0.000 A 
ATOM     16  N   UNL     1       2.586   6.184  20.242  0.00  0.00    +0.000 NA
ATOM     17  H   UNL     1       0.940   8.450  18.880  0.00  0.00    +0.000 HD
BRANCH  14  18
ATOM     18  C   UNL     1       4.670   3.694  18.303  0.00  0.00    +0.000 C 
ATOM     19  F   UNL     1       4.540   2.699  19.224  0.00  0.00    +0.000 F 
ATOM     20  F   UNL     1       4.361   3.127  17.099  0.00  0.00    +0.000 F 
ATOM     21  F   UNL     1       6.007   3.965  18.239  0.00  0.00    +0.000 F 
ENDBRANCH  14  18
ENDBRANCH   8  10
BRANCH   2  22
ATOM     22  C   UNL     1      -0.102  12.578  19.607  0.00  0.00    +0.000 A 
ATOM     23  C   UNL     1       1.042  12.989  18.890  0.00  0.00    +0.000 A 
ATOM     24  C   UNL     1       1.418  14.327  18.834  0.00  0.00    +0.000 A 
ATOM     25  C   UNL     1       0.614  15.279  19.435  0.00  0.00    +0.000 A 
ATOM     26  C   UNL     1      -0.560  14.888  20.082  0.00  0.00    +0.000 A 
ATOM     27  F   UNL     1      -1.285  15.874  20.630  0.00  0.00    +0.000 F 
ATOM     28  C   UNL     1      -0.964  13.538  20.193  0.00  0.00    +0.000 A 
BRANCH  28  29
ATOM     29  C   UNL     1      -2.216  13.229  20.901  0.00  0.00    +0.000 A 
ATOM     30  N   UNL     1      -2.141  13.027  22.236  0.00  0.00    +0.000 NA
ATOM     31  C   UNL     1      -3.268  12.654  22.870  0.00  0.00    +0.000 A 
ATOM     32  C   UNL     1      -4.474  12.514  22.234  0.00  0.00    +0.000 A 
ATOM     33  C   UNL     1      -4.456  12.756  20.881  0.00  0.00    +0.000 A 
ATOM     34  N   UNL     1      -3.343  13.075  20.187  0.00  0.00    +0.000 NA
ENDBRANCH  28  29
ENDBRANCH   2  22
TORSDOF 4
ENDMDL
MODEL 5
REMARK VINA RESULT:      -7.0      3.000      4.891
REMARK  Name = 
REMARK  4 active torsions:
REMARK  status: ('A' for Active; 'I' for Inactive)
REMARK    1  A    between atoms: C_2  and  C_3
REMARK    2  A    between atoms: C_9  and  C_10
REMARK    3  A    between atoms: C_21  and  N_22
REMARK    4  A    between atoms: C_26  and  C_27
REMARK                            x       y       z     vdW  Elec       q    Type
REMARK                         _______ _______ _______ _____ _____    ______ ____
ROOT
ATOM      1  O   UNL     1       1.090  11.773  22.102  0.00  0.00    +0.000 OA
ATOM      2  C   UNL     1       0.136  12.287  21.523  0.00  0.00    +0.000 C 
ATOM      3  N   UNL     1       0.100  12.419  20.149  0.00  0.00    +0.000 N 
ATOM      4  C   UNL     1      -0.989  12.538  19.197  0.00  0.00    +0.000 C 
ATOM      5  C   UNL     1      -0.381  13.512  18.182  0.00  0.00    +0.000 C 
ATOM      6  C   UNL     1       1.112  13.123  18.201  0.00  0.00    +0.000 C 
ATOM      7  C   UNL     1       1.157  11.988  19.243  0.00  0.00    +0.000 C 
ATOM      8  C   UNL     1       0.520  10.723  18.598  0.00  0.00    +0.000 C 
ATOM      9  C   UNL     1      -0.989  11.123  18.570  0.00  0.00    +0.000 C 
ENDROOT
BRANCH   8  10
ATOM     10  N   UNL     1       0.678   9.540  19.454  0.00  0.00    +0.000 N 
ATOM     11  C   UNL     1       1.650   8.598  19.074  0.00  0.00    +0.000 A 
ATOM     12  C   UNL     1       1.852   7.472  19.871  0.00  0.00    +0.000 A 
ATOM     13  N   UNL     1       2.712   6.464  19.575  0.00  0.00    +0.000 NA
ATOM     14  C   UNL     1       3.392   6.597  18.404  0.00  0.00    +0.000 A 
ATOM     15  C   UNL     1       3.194   7.714  17.601  0.00  0.00    +0.000 A 
ATOM     16  N   UNL     1       2.329   8.721  17.912  0.00  0.00    +0.000 NA
ATOM     17  H   UNL     1       0.851   9.816  20.424  0.00  0.00    +0.000 HD
BRANCH  14  18
ATOM     18  C   UNL     1       4.365   5.534  17.939  0.00  0.00    +0.000 C 
ATOM     19  F   UNL     1       5.028   5.837  16.789  0.00  0.00    +0.000 F 
ATOM     20  F   UNL     1       5.333   5.271  18.866  0.00  0.00    +0.000 F 
ATOM     21  F   UNL     1       3.754   4.334  17.708  0.00  0.00    +0.000 F 
ENDBRANCH  14  18
ENDBRANCH   8  10
BRANCH   2  22
ATOM     22  C   UNL     1      -1.043  12.726  22.329  0.00  0.00    +0.000 A 
ATOM     23  C   UNL     1      -1.886  11.707  22.821  0.00  0.00    +0.000 A 
ATOM     24  C   UNL     1      -3.025  12.005  23.564  0.00  0.00    +0.000 A 
ATOM     25  C   UNL     1      -3.294  13.324  23.882  0.00  0.00    +0.000 A 
ATOM     26  C   UNL     1      -2.423  14.332  23.463  0.00  0.00    +0.000 A 
ATOM     27  F   UNL     1      -2.754  15.582  23.822  0.00  0.00    +0.000 F 
ATOM     28  C   UNL     1      -1.274  14.079  22.680  0.00  0.00    +0.000 A 
BRANCH  28  29
ATOM     29  C   UNL     1      -0.424  15.213  22.282  0.00  0.00    +0.000 A 
ATOM     30  N   UNL     1      -0.681  15.794  21.089  0.00  0.00    +0.000 NA
ATOM     31  C   UNL     1       0.152  16.769  20.684  0.00  0.00    +0.000 A 
ATOM     32  C   UNL     1       1.208  17.215  21.436  0.00  0.00    +0.000 A 
ATOM     33  C   UNL     1       1.381  16.575  22.641  0.00  0.00    +0.000 A 
ATOM     34  N   UNL     1       0.610  15.552  23.069  0.00  0.00    +0.000 NA
ENDBRANCH  28  29
ENDBRANCH   2  22
TORSDOF 4
ENDMDL
MODEL 6
REMARK VINA RESULT:      -6.9      2.191      2.656
REMARK  Name = 
REMARK  4 active torsions:
REMARK  status: ('A' for Active; 'I' for Inactive)
REMARK    1  A    between atoms: C_2  and  C_3
REMARK    2  A    between atoms: C_9  and  C_10
REMARK    3  A    between atoms: C_21  and  N_22
REMARK    4  A    between atoms: C_26  and  C_27
REMARK                            x       y       z     vdW  Elec       q    Type
REMARK                         _______ _______ _______ _____ _____    ______ ____
ROOT
ATOM      1  O   UNL     1       0.074  11.336  19.096  0.00  0.00    +0.000 OA
ATOM      2  C   UNL     1       0.349  11.427  20.290  0.00  0.00    +0.000 C 
ATOM      3  N   UNL     1       0.278  10.344  21.142  0.00  0.00    +0.000 N 
ATOM      4  C   UNL     1       0.934  10.031  22.398  0.00  0.00    +0.000 C 
ATOM      5  C   UNL     1      -0.192   9.303  23.140  0.00  0.00    +0.000 C 
ATOM      6  C   UNL     1      -0.926   8.573  21.995  0.00  0.00    +0.000 C 
ATOM      7  C   UNL     1      -0.127   9.000  20.748  0.00  0.00    +0.000 C 
ATOM      8  C   UNL     1       1.233   8.245  20.771  0.00  0.00    +0.000 C 
ATOM      9  C   UNL     1       1.970   8.978  21.937  0.00  0.00    +0.000 C 
ENDROOT
BRANCH   8  10
ATOM     10  N   UNL     1       1.991   8.453  19.530  0.00  0.00    +0.000 N 
ATOM     11  C   UNL     1       2.596   7.325  18.950  0.00  0.00    +0.000 A 
ATOM     12  C   UNL     1       3.303   7.472  17.757  0.00  0.00    +0.000 A 
ATOM     13  N   UNL     1       3.983   6.473  17.138  0.00  0.00    +0.000 NA
ATOM     14  C   UNL     1       3.956   5.267  17.766  0.00  0.00    +0.000 A 
ATOM     15  C   UNL     1       3.257   5.112  18.957  0.00  0.00    +0.000 A 
ATOM     16  N   UNL     1       2.576   6.123  19.568  0.00  0.00    +0.000 NA
ATOM     17  H   UNL     1       1.408   8.912  18.824  0.00  0.00    +0.000 HD
BRANCH  14  18
ATOM     18  C   UNL     1       4.693   4.073  17.198  0.00  0.00    +0.000 C 
ATOM     19  F   UNL     1       4.201   2.864  17.589  0.00  0.00    +0.000 F 
ATOM     20  F   UNL     1       4.680   4.053  15.832  0.00  0.00    +0.000 F 
ATOM     21  F   UNL     1       6.014   4.062  17.544  0.00  0.00    +0.000 F 
ENDBRANCH  14  18
ENDBRANCH   8  10
BRANCH   2  22
ATOM     22  C   UNL     1       0.831  12.740  20.818  0.00  0.00    +0.000 A 
ATOM     23  C   UNL     1       2.134  13.132  20.443  0.00  0.00    +0.000 A 
ATOM     24  C   UNL     1       2.690  14.323  20.897  0.00  0.00    +0.000 A 
ATOM     25  C   UNL     1       1.922  15.172  21.674  0.00  0.00    +0.000 A 
ATOM     26  C   UNL     1       0.606  14.826  21.987  0.00  0.00    +0.000 A 
ATOM     27  F   UNL     1      -0.070  15.709  22.738  0.00  0.00    +0.000 F 
ATOM     28  C   UNL     1       0.011  13.612  21.576  0.00  0.00    +0.000 A 
BRANCH  28  29
ATOM     29  C   UNL     1      -1.382  13.339  21.964  0.00  0.00    +0.000 A 
ATOM     30  N   UNL     1      -2.357  13.838  21.172  0.00  0.00    +0.000 NA
ATOM     31  C   UNL     1      -3.629  13.668  21.574  0.00  0.00    +0.000 A 
ATOM     32  C   UNL     1      -3.971  12.987  22.714  0.00  0.00    +0.000 A 
ATOM     33  C   UNL     1      -2.913  12.502  23.447  0.00  0.00    +0.000 A 
ATOM     34  N   UNL     1      -1.618  12.696  23.119  0.00  0.00    +0.000 NA
ENDBRANCH  28  29
ENDBRANCH   2  22
TORSDOF 4
ENDMDL
MODEL 7
REMARK VINA RESULT:      -6.9      6.873      8.161
REMARK  Name = 
REMARK  4 active torsions:
REMARK  status: ('A' for Active; 'I' for Inactive)
REMARK    1  A    between atoms: C_2  and  C_3
REMARK    2  A    between atoms: C_9  and  C_10
REMARK    3  A    between atoms: C_21  and  N_22
REMARK    4  A    between atoms: C_26  and  C_27
REMARK                            x       y       z     vdW  Elec       q    Type
REMARK                         _______ _______ _______ _____ _____    ______ ____
ROOT
ATOM      1  O   UNL     1       3.077  14.508  18.445  0.00  0.00    +0.000 OA
ATOM      2  C   UNL     1       2.894  15.634  18.899  0.00  0.00    +0.000 C 
ATOM      3  N   UNL     1       3.594  16.105  19.992  0.00  0.00    +0.000 N 
ATOM      4  C   UNL     1       3.930  17.440  20.449  0.00  0.00    +0.000 C 
ATOM      5  C   UNL     1       3.823  17.263  21.968  0.00  0.00    +0.000 C 
ATOM      6  C   UNL     1       4.300  15.809  22.166  0.00  0.00    +0.000 C 
ATOM      7  C   UNL     1       4.599  15.346  20.727  0.00  0.00    +0.000 C 
ATOM      8  C   UNL     1       5.913  16.039  20.266  0.00  0.00    +0.000 C 
ATOM      9  C   UNL     1       5.430  17.512  20.075  0.00  0.00    +0.000 C 
ENDROOT
BRANCH   8  10
ATOM     10  N   UNL     1       6.373  15.523  18.970  0.00  0.00    +0.000 N 
ATOM     11  C   UNL     1       7.345  14.508  18.992  0.00  0.00    +0.000 A 
ATOM     12  C   UNL     1       7.792  13.970  17.785  0.00  0.00    +0.000 A 
ATOM     13  N   UNL     1       8.771  13.036  17.675  0.00  0.00    +0.000 NA
ATOM     14  C   UNL     1       9.335  12.636  18.847  0.00  0.00    +0.000 A 
ATOM     15  C   UNL     1       8.899  13.169  20.054  0.00  0.00    +0.000 A 
ATOM     16  N   UNL     1       7.913  14.105  20.151  0.00  0.00    +0.000 NA
ATOM     17  H   UNL     1       5.580  15.205  18.406  0.00  0.00    +0.000 HD
BRANCH  14  18
ATOM     18  C   UNL     1      10.456  11.618  18.867  0.00  0.00    +0.000 C 
ATOM     19  F   UNL     1      10.090  10.382  19.310  0.00  0.00    +0.000 F 
ATOM     20  F   UNL     1      11.004  11.420  17.632  0.00  0.00    +0.000 F 
ATOM     21  F   UNL     1      11.496  12.002  19.665  0.00  0.00    +0.000 F 
ENDBRANCH  14  18
ENDBRANCH   8  10
BRANCH   2  22
ATOM     22  C   UNL     1       1.927  16.541  18.208  0.00  0.00    +0.000 A 
ATOM     23  C   UNL     1       2.417  17.255  17.093  0.00  0.00    +0.000 A 
ATOM     24  C   UNL     1       1.609  18.143  16.391  0.00  0.00    +0.000 A 
ATOM     25  C   UNL     1       0.280  18.274  16.751  0.00  0.00    +0.000 A 
ATOM     26  C   UNL     1      -0.232  17.514  17.805  0.00  0.00    +0.000 A 
ATOM     27  F   UNL     1      -1.532  17.696  18.083  0.00  0.00    +0.000 F 
ATOM     28  C   UNL     1       0.559  16.625  18.568  0.00  0.00    +0.000 A 
BRANCH  28  29
ATOM     29  C   UNL     1      -0.075  15.875  19.663  0.00  0.00    +0.000 A 
ATOM     30  N   UNL     1      -0.029  16.423  20.899  0.00  0.00    +0.000 NA
ATOM     31  C   UNL     1      -0.526  15.696  21.916  0.00  0.00    +0.000 A 
ATOM     32  C   UNL     1      -1.101  14.463  21.746  0.00  0.00    +0.000 A 
ATOM     33  C   UNL     1      -1.116  13.996  20.453  0.00  0.00    +0.000 A 
ATOM     34  N   UNL     1      -0.579  14.657  19.407  0.00  0.00    +0.000 NA
ENDBRANCH  28  29
ENDBRANCH   2  22
TORSDOF 4
ENDMDL
MODEL 8
REMARK VINA RESULT:      -6.9      8.774     10.949
REMARK  Name = 
REMARK  4 active torsions:
REMARK  status: ('A' for Active; 'I' for Inactive)
REMARK    1  A    between atoms: C_2  and  C_3
REMARK    2  A    between atoms: C_9  and  C_10
REMARK    3  A    between atoms: C_21  and  N_22
REMARK    4  A    between atoms: C_26  and  C_27
REMARK                            x       y       z     vdW  Elec       q    Type
REMARK                         _______ _______ _______ _____ _____    ______ ____
ROOT
ATOM      1  O   UNL     1       7.134  14.315  18.619  0.00  0.00    +0.000 OA
ATOM      2  C   UNL     1       7.895  15.229  18.930  0.00  0.00    +0.000 C 
ATOM      3  N   UNL     1       7.602  16.109  19.952  0.00  0.00    +0.000 N 
ATOM      4  C   UNL     1       8.429  16.935  20.812  0.00  0.00    +0.000 C 
ATOM      5  C   UNL     1       7.546  18.179  20.955  0.00  0.00    +0.000 C 
ATOM      6  C   UNL     1       6.124  17.581  20.932  0.00  0.00    +0.000 C 
ATOM      7  C   UNL     1       6.388  16.073  20.760  0.00  0.00    +0.000 C 
ATOM      8  C   UNL     1       6.929  15.525  22.112  0.00  0.00    +0.000 C 
ATOM      9  C   UNL     1       8.364  16.140  22.137  0.00  0.00    +0.000 C 
ENDROOT
BRANCH   8  10
ATOM     10  N   UNL     1       7.043  14.061  22.097  0.00  0.00    +0.000 N 
ATOM     11  C   UNL     1       6.561  13.368  23.221  0.00  0.00    +0.000 A 
ATOM     12  C   UNL     1       6.626  11.975  23.239  0.00  0.00    +0.000 A 
ATOM     13  N   UNL     1       6.254  11.201  24.291  0.00  0.00    +0.000 NA
ATOM     14  C   UNL     1       5.806  11.874  25.386  0.00  0.00    +0.000 A 
ATOM     15  C   UNL     1       5.742  13.262  25.378  0.00  0.00    +0.000 A 
ATOM     16  N   UNL     1       6.116  14.028  24.314  0.00  0.00    +0.000 NA
ATOM     17  H   UNL     1       6.602  13.673  21.259  0.00  0.00    +0.000 HD
BRANCH  14  18
ATOM     18  C   UNL     1       5.382  11.136  26.637  0.00  0.00    +0.000 C 
ATOM     19  F   UNL     1       6.354  10.359  27.193  0.00  0.00    +0.000 F 
ATOM     20  F   UNL     1       4.973  11.981  27.629  0.00  0.00    +0.000 F 
ATOM     21  F   UNL     1       4.324  10.300  26.418  0.00  0.00    +0.000 F 
ENDBRANCH  14  18
ENDBRANCH   8  10
BRANCH   2  22
ATOM     22  C   UNL     1       9.203  15.350  18.217  0.00  0.00    +0.000 A 
ATOM     23  C   UNL     1       9.528  16.624  17.705  0.00  0.00    +0.000 A 
ATOM     24  C   UNL     1      10.710  16.844  17.005  0.00  0.00    +0.000 A 
ATOM     25  C   UNL     1      11.614  15.806  16.869  0.00  0.00    +0.000 A 
ATOM     26  C   UNL     1      11.334  14.562  17.438  0.00  0.00    +0.000 A 
ATOM     27  F   UNL     1      12.268  13.614  17.267  0.00  0.00    +0.000 F 
ATOM     28  C   UNL     1      10.133  14.284  18.129  0.00  0.00    +0.000 A 
BRANCH  28  29
ATOM     29  C   UNL     1       9.931  12.937  18.686  0.00  0.00    +0.000 A 
ATOM     30  N   UNL     1       9.492  11.976  17.843  0.00  0.00    +0.000 NA
ATOM     31  C   UNL     1       9.219  10.769  18.370  0.00  0.00    +0.000 A 
ATOM     32  C   UNL     1       9.402  10.470  19.695  0.00  0.00    +0.000 A 
ATOM     33  C   UNL     1       9.867  11.506  20.471  0.00  0.00    +0.000 A 
ATOM     34  N   UNL     1      10.100  12.751  20.005  0.00  0.00    +0.000 NA
ENDBRANCH  28  29
ENDBRANCH   2  22
TORSDOF 4
ENDMDL
MODEL 9
REMARK VINA RESULT:      -6.8      2.195      2.560
REMARK  Name = 
REMARK  4 active torsions:
REMARK  status: ('A' for Active; 'I' for Inactive)
REMARK    1  A    between atoms: C_2  and  C_3
REMARK    2  A    between atoms: C_9  and  C_10
REMARK    3  A    between atoms: C_21  and  N_22
REMARK    4  A    between atoms: C_26  and  C_27
REMARK                            x       y       z     vdW  Elec       q    Type
REMARK                         _______ _______ _______ _____ _____    ______ ____
ROOT
ATOM      1  O   UNL     1      -0.006  11.378  19.169  0.00  0.00    +0.000 OA
ATOM      2  C   UNL     1       0.313  11.482  20.351  0.00  0.00    +0.000 C 
ATOM      3  N   UNL     1       0.238  10.416  21.225  0.00  0.00    +0.000 N 
ATOM      4  C   UNL     1       0.927  10.105  22.464  0.00  0.00    +0.000 C 
ATOM      5  C   UNL     1      -0.195   9.426  23.257  0.00  0.00    +0.000 C 
ATOM      6  C   UNL     1      -0.991   8.700  22.153  0.00  0.00    +0.000 C 
ATOM      7  C   UNL     1      -0.223   9.079  20.871  0.00  0.00    +0.000 C 
ATOM      8  C   UNL     1       1.112   8.281  20.861  0.00  0.00    +0.000 C 
ATOM      9  C   UNL     1       1.912   9.011  21.987  0.00  0.00    +0.000 C 
ENDROOT
BRANCH   8  10
ATOM     10  N   UNL     1       1.832   8.442  19.591  0.00  0.00    +0.000 N 
ATOM     11  C   UNL     1       2.547   7.331  19.112  0.00  0.00    +0.000 A 
ATOM     12  C   UNL     1       3.224   7.432  17.897  0.00  0.00    +0.000 A 
ATOM     13  N   UNL     1       3.999   6.452  17.365  0.00  0.00    +0.000 NA
ATOM     14  C   UNL     1       4.105   5.318  18.110  0.00  0.00    +0.000 A 
ATOM     15  C   UNL     1       3.437   5.210  19.323  0.00  0.00    +0.000 A 
ATOM     16  N   UNL     1       2.659   6.201  19.845  0.00  0.00    +0.000 NA
ATOM     17  H   UNL     1       1.198   8.766  18.855  0.00  0.00    +0.000 HD
BRANCH  14  18
ATOM     18  C   UNL     1       4.958   4.156  17.646  0.00  0.00    +0.000 C 
ATOM     19  F   UNL     1       6.144   4.515  17.077  0.00  0.00    +0.000 F 
ATOM     20  F   UNL     1       5.281   3.305  18.665  0.00  0.00    +0.000 F 
ATOM     21  F   UNL     1       4.324   3.381  16.717  0.00  0.00    +0.000 F 
ENDBRANCH  14  18
ENDBRANCH   8  10
BRANCH   2  22
ATOM     22  C   UNL     1       0.855  12.787  20.837  0.00  0.00    +0.000 A 
ATOM     23  C   UNL     1       2.165  13.118  20.429  0.00  0.00    +0.000 A 
ATOM     24  C   UNL     1       2.775  14.298  20.843  0.00  0.00    +0.000 A 
ATOM     25  C   UNL     1       2.055  15.195  21.612  0.00  0.00    +0.000 A 
ATOM     26  C   UNL     1       0.732  14.909  21.957  0.00  0.00    +0.000 A 
ATOM     27  F   UNL     1       0.104  15.835  22.697  0.00  0.00    +0.000 F 
ATOM     28  C   UNL     1       0.083  13.709  21.587  0.00  0.00    +0.000 A 
BRANCH  28  29
ATOM     29  C   UNL     1      -1.312  13.499  22.007  0.00  0.00    +0.000 A 
ATOM     30  N   UNL     1      -1.519  12.820  23.157  0.00  0.00    +0.000 NA
ATOM     31  C   UNL     1      -2.793  12.548  23.493  0.00  0.00    +0.000 A 
ATOM     32  C   UNL     1      -3.869  12.959  22.751  0.00  0.00    +0.000 A 
ATOM     33  C   UNL     1      -3.560  13.657  21.607  0.00  0.00    +0.000 A 
ATOM     34  N   UNL     1      -2.300  13.906  21.193  0.00  0.00    +0.000 NA
ENDBRANCH  28  29
ENDBRANCH   2  22
TORSDOF 4
ENDMDL
