MODEL 1
REMARK VINA RESULT:      -8.7      0.000      0.000
REMARK  Name = 
REMARK  8 active torsions:
REMARK  status: ('A' for Active; 'I' for Inactive)
REMARK    1  A    between atoms: C_1  and  C_2
REMARK    2  A    between atoms: C_2  and  O_3
REMARK    3  A    between atoms: O_3  and  C_4
REMARK    4  A    between atoms: C_7  and  N_8
REMARK    5  A    between atoms: N_8  and  C_9
REMARK    6  A    between atoms: N_16  and  C_17
REMARK    7  A    between atoms: C_20  and  C_21
REMARK    8  A    between atoms: C_22  and  C_23
REMARK                            x       y       z     vdW  Elec       q    Type
REMARK                         _______ _______ _______ _____ _____    ______ ____
ROOT
ATOM      1  C   UNL     1       2.110   5.996  20.507  0.00  0.00    +0.000 C 
ATOM      2  C   UNL     1       2.841   4.939  20.100  0.00  0.00    +0.000 C 
ATOM      3  C   UNL     1       2.414   3.599  20.510  0.00  0.00    +0.000 C 
ATOM      4  O   UNL     1       1.557   3.368  21.349  0.00  0.00    +0.000 OA
ATOM      5  N   UNL     1       3.025   2.606  19.802  0.00  0.00    +0.000 N 
ATOM      6  C   UNL     1       3.699   2.753  18.615  0.00  0.00    +0.000 C 
ATOM      7  O   UNL     1       3.714   1.770  17.875  0.00  0.00    +0.000 OA
ATOM      8  N   UNL     1       4.256   4.010  18.357  0.00  0.00    +0.000 N 
ATOM      9  C   UNL     1       4.007   5.089  19.209  0.00  0.00    +0.000 C 
ATOM     10  O   UNL     1       4.700   6.100  19.325  0.00  0.00    +0.000 OA
ATOM     11  H   UNL     1       2.615   1.690  19.935  0.00  0.00    +0.000 HD
ENDROOT
BRANCH   8  12
ATOM     12  C   UNL     1       5.176   4.199  17.243  0.00  0.00    +0.000 A 
ATOM     13  C   UNL     1       6.493   4.637  17.425  0.00  0.00    +0.000 A 
ATOM     14  C   UNL     1       7.355   4.850  16.342  0.00  0.00    +0.000 A 
ATOM     15  C   UNL     1       6.930   4.653  15.024  0.00  0.00    +0.000 A 
ATOM     16  C   UNL     1       7.894   4.918  13.904  0.00  0.00    +0.000 C 
ATOM     17  C   UNL     1       5.619   4.214  14.801  0.00  0.00    +0.000 A 
ATOM     18  C   UNL     1       5.039   4.004  13.426  0.00  0.00    +0.000 C 
ATOM     19  C   UNL     1       4.782   3.968  15.907  0.00  0.00    +0.000 A 
ENDBRANCH   8  12
BRANCH   1  20
ATOM     20  N   UNL     1       2.167   7.308  20.090  0.00  0.00    +0.000 N 
ATOM     21  H   UNL     1       2.860   7.532  19.383  0.00  0.00    +0.000 HD
BRANCH  20  25
ATOM     22  C   UNL     1      -0.359  10.459  21.300  0.00  0.00    +0.000 A 
ATOM     23  C   UNL     1       0.006   9.477  22.210  0.00  0.00    +0.000 A 
ATOM     24  C   UNL     1       0.855   8.434  21.830  0.00  0.00    +0.000 A 
ATOM     25  C   UNL     1       1.355   8.358  20.526  0.00  0.00    +0.000 A 
ATOM     26  C   UNL     1       0.958   9.333  19.605  0.00  0.00    +0.000 A 
ATOM     27  C   UNL     1       0.092  10.368  19.983  0.00  0.00    +0.000 A 
BRANCH  22  28
ATOM     28  O   UNL     1      -1.164  11.449  21.789  0.00  0.00    +0.000 OA
BRANCH  28  30
ATOM     29  C   UNL     1      -2.802  12.152  23.370  0.00  0.00    +0.000 C 
ATOM     30  C   UNL     1      -1.563  11.303  23.151  0.00  0.00    +0.000 C 
ENDBRANCH  28  30
ENDBRANCH  22  28
ENDBRANCH  20  25
ENDBRANCH   1  20
TORSDOF 5
ENDMDL
MODEL 2
REMARK VINA RESULT:      -8.7      2.560      7.109
REMARK  Name = 
REMARK  8 active torsions:
REMARK  status: ('A' for Active; 'I' for Inactive)
REMARK    1  A    between atoms: C_1  and  C_2
REMARK    2  A    between atoms: C_2  and  O_3
REMARK    3  A    between atoms: O_3  and  C_4
REMARK    4  A    between atoms: C_7  and  N_8
REMARK    5  A    between atoms: N_8  and  C_9
REMARK    6  A    between atoms: N_16  and  C_17
REMARK    7  A    between atoms: C_20  and  C_21
REMARK    8  A    between atoms: C_22  and  C_23
REMARK                            x       y       z     vdW  Elec       q    Type
REMARK                         _______ _______ _______ _____ _____    ______ ____
ROOT
ATOM      1  C   UNL     1       4.910   3.084  17.184  0.00  0.00    +0.000 C 
ATOM      2  C   UNL     1       3.839   3.261  17.983  0.00  0.00    +0.000 C 
ATOM      3  C   UNL     1       3.383   2.133  18.797  0.00  0.00    +0.000 C 
ATOM      4  O   UNL     1       3.776   0.983  18.674  0.00  0.00    +0.000 OA
ATOM      5  N   UNL     1       2.510   2.502  19.778  0.00  0.00    +0.000 N 
ATOM      6  C   UNL     1       2.298   3.778  20.236  0.00  0.00    +0.000 C 
ATOM      7  O   UNL     1       1.924   3.880  21.404  0.00  0.00    +0.000 OA
ATOM      8  N   UNL     1       2.571   4.822  19.346  0.00  0.00    +0.000 N 
ATOM      9  C   UNL     1       3.162   4.567  18.106  0.00  0.00    +0.000 C 
ATOM     10  O   UNL     1       3.110   5.290  17.111  0.00  0.00    +0.000 OA
ATOM     11  H   UNL     1       2.327   1.780  20.463  0.00  0.00    +0.000 HD
ENDROOT
BRANCH   8  12
ATOM     12  C   UNL     1       2.165   6.187  19.657  0.00  0.00    +0.000 A 
ATOM     13  C   UNL     1       1.596   6.537  20.887  0.00  0.00    +0.000 A 
ATOM     14  C   UNL     1       1.176   7.846  21.158  0.00  0.00    +0.000 A 
ATOM     15  C   UNL     1       1.287   8.859  20.200  0.00  0.00    +0.000 A 
ATOM     16  C   UNL     1       0.800  10.237  20.542  0.00  0.00    +0.000 C 
ATOM     17  C   UNL     1       1.852   8.548  18.957  0.00  0.00    +0.000 A 
ATOM     18  C   UNL     1       1.989   9.546  17.837  0.00  0.00    +0.000 C 
ATOM     19  C   UNL     1       2.304   7.234  18.721  0.00  0.00    +0.000 A 
ENDBRANCH   8  12
BRANCH   1  20
ATOM     20  N   UNL     1       5.655   4.021  16.502  0.00  0.00    +0.000 N 
ATOM     21  H   UNL     1       5.629   3.973  15.489  0.00  0.00    +0.000 HD
BRANCH  20  25
ATOM     22  C   UNL     1       7.874   7.181  18.194  0.00  0.00    +0.000 A 
ATOM     23  C   UNL     1       7.979   5.903  18.722  0.00  0.00    +0.000 A 
ATOM     24  C   UNL     1       7.262   4.840  18.164  0.00  0.00    +0.000 A 
ATOM     25  C   UNL     1       6.426   5.043  17.062  0.00  0.00    +0.000 A 
ATOM     26  C   UNL     1       6.300   6.340  16.554  0.00  0.00    +0.000 A 
ATOM     27  C   UNL     1       7.005   7.408  17.126  0.00  0.00    +0.000 A 
BRANCH  22  28
ATOM     28  O   UNL     1       8.644   8.135  18.796  0.00  0.00    +0.000 OA
BRANCH  28  30
ATOM     29  C   UNL     1       9.308  10.395  19.158  0.00  0.00    +0.000 C 
ATOM     30  C   UNL     1       8.512   9.455  18.271  0.00  0.00    +0.000 C 
ENDBRANCH  28  30
ENDBRANCH  22  28
ENDBRANCH  20  25
ENDBRANCH   1  20
TORSDOF 5
ENDMDL
MODEL 3
REMARK VINA RESULT:      -8.6      1.457      2.080
REMARK  Name = 
REMARK  8 active torsions:
REMARK  status: ('A' for Active; 'I' for Inactive)
REMARK    1  A    between atoms: C_1  and  C_2
REMARK    2  A    between atoms: C_2  and  O_3
REMARK    3  A    between atoms: O_3  and  C_4
REMARK    4  A    between atoms: C_7  and  N_8
REMARK    5  A    between atoms: N_8  and  C_9
REMARK    6  A    between atoms: N_16  and  C_17
REMARK    7  A    between atoms: C_20  and  C_21
REMARK    8  A    between atoms: C_22  and  C_23
REMARK                            x       y       z     vdW  Elec       q    Type
REMARK                         _______ _______ _______ _____ _____    ______ ____
ROOT
ATOM      1  C   UNL     1       2.075   5.854  20.708  0.00  0.00    +0.000 C 
ATOM      2  C   UNL     1       2.638   4.771  20.136  0.00  0.00    +0.000 C 
ATOM      3  C   UNL     1       1.969   3.477  20.289  0.00  0.00    +0.000 C 
ATOM      4  O   UNL     1       1.041   3.259  21.052  0.00  0.00    +0.000 OA
ATOM      5  N   UNL     1       2.441   2.529  19.429  0.00  0.00    +0.000 N 
ATOM      6  C   UNL     1       3.194   2.758  18.304  0.00  0.00    +0.000 C 
ATOM      7  O   UNL     1       3.083   1.930  17.400  0.00  0.00    +0.000 OA
ATOM      8  N   UNL     1       3.967   3.923  18.288  0.00  0.00    +0.000 N 
ATOM      9  C   UNL     1       3.859   4.865  19.314  0.00  0.00    +0.000 C 
ATOM     10  O   UNL     1       4.705   5.704  19.625  0.00  0.00    +0.000 OA
ATOM     11  H   UNL     1       1.876   1.690  19.386  0.00  0.00    +0.000 HD
ENDROOT
BRANCH   8  12
ATOM     12  C   UNL     1       4.965   4.137  17.248  0.00  0.00    +0.000 A 
ATOM     13  C   UNL     1       6.278   4.527  17.538  0.00  0.00    +0.000 A 
ATOM     14  C   UNL     1       7.217   4.765  16.526  0.00  0.00    +0.000 A 
ATOM     15  C   UNL     1       6.876   4.643  15.174  0.00  0.00    +0.000 A 
ATOM     16  C   UNL     1       7.920   4.931  14.135  0.00  0.00    +0.000 C 
ATOM     17  C   UNL     1       5.572   4.253  14.844  0.00  0.00    +0.000 A 
ATOM     18  C   UNL     1       5.081   4.125  13.426  0.00  0.00    +0.000 C 
ATOM     19  C   UNL     1       4.656   3.981  15.879  0.00  0.00    +0.000 A 
ENDBRANCH   8  12
BRANCH   1  20
ATOM     20  N   UNL     1       2.375   7.188  20.535  0.00  0.00    +0.000 N 
ATOM     21  H   UNL     1       3.289   7.494  20.854  0.00  0.00    +0.000 HD
BRANCH  20  25
ATOM     22  C   UNL     1      -0.065  10.191  18.864  0.00  0.00    +0.000 A 
ATOM     23  C   UNL     1       0.888   9.561  18.080  0.00  0.00    +0.000 A 
ATOM     24  C   UNL     1       1.696   8.552  18.613  0.00  0.00    +0.000 A 
ATOM     25  C   UNL     1       1.559   8.157  19.948  0.00  0.00    +0.000 A 
ATOM     26  C   UNL     1       0.616   8.820  20.742  0.00  0.00    +0.000 A 
ATOM     27  C   UNL     1      -0.179   9.843  20.211  0.00  0.00    +0.000 A 
BRANCH  22  28
ATOM     28  O   UNL     1      -0.821  11.137  18.231  0.00  0.00    +0.000 OA
BRANCH  28  30
ATOM     29  C   UNL     1      -2.583   9.903  17.206  0.00  0.00    +0.000 C 
ATOM     30  C   UNL     1      -2.231  10.927  18.270  0.00  0.00    +0.000 C 
ENDBRANCH  28  30
ENDBRANCH  22  28
ENDBRANCH  20  25
ENDBRANCH   1  20
TORSDOF 5
ENDMDL
MODEL 4
REMARK VINA RESULT:      -8.3      1.509      1.806
REMARK  Name = 
REMARK  8 active torsions:
REMARK  status: ('A' for Active; 'I' for Inactive)
REMARK    1  A    between atoms: C_1  and  C_2
REMARK    2  A    between atoms: C_2  and  O_3
REMARK    3  A    between atoms: O_3  and  C_4
REMARK    4  A    between atoms: C_7  and  N_8
REMARK    5  A    between atoms: N_8  and  C_9
REMARK    6  A    between atoms: N_16  and  C_17
REMARK    7  A    between atoms: C_20  and  C_21
REMARK    8  A    between atoms: C_22  and  C_23
REMARK                            x       y       z     vdW  Elec       q    Type
REMARK                         _______ _______ _______ _____ _____    ______ ____
ROOT
ATOM      1  C   UNL     1       2.029   5.864  20.696  0.00  0.00    +0.000 C 
ATOM      2  C   UNL     1       2.559   4.782  20.091  0.00  0.00    +0.000 C 
ATOM      3  C   UNL     1       1.843   3.508  20.191  0.00  0.00    +0.000 C 
ATOM      4  O   UNL     1       0.899   3.298  20.937  0.00  0.00    +0.000 OA
ATOM      5  N   UNL     1       2.291   2.575  19.303  0.00  0.00    +0.000 N 
ATOM      6  C   UNL     1       3.064   2.815  18.195  0.00  0.00    +0.000 C 
ATOM      7  O   UNL     1       2.934   2.024  17.261  0.00  0.00    +0.000 OA
ATOM      8  N   UNL     1       3.879   3.952  18.228  0.00  0.00    +0.000 N 
ATOM      9  C   UNL     1       3.793   4.860  19.286  0.00  0.00    +0.000 C 
ATOM     10  O   UNL     1       4.665   5.656  19.635  0.00  0.00    +0.000 OA
ATOM     11  H   UNL     1       1.696   1.759  19.225  0.00  0.00    +0.000 HD
ENDROOT
BRANCH   8  12
ATOM     12  C   UNL     1       4.896   4.165  17.206  0.00  0.00    +0.000 A 
ATOM     13  C   UNL     1       6.190   4.601  17.517  0.00  0.00    +0.000 A 
ATOM     14  C   UNL     1       7.146   4.838  16.521  0.00  0.00    +0.000 A 
ATOM     15  C   UNL     1       6.843   4.668  15.166  0.00  0.00    +0.000 A 
ATOM     16  C   UNL     1       7.904   4.958  14.144  0.00  0.00    +0.000 C 
ATOM     17  C   UNL     1       5.559   4.233  14.816  0.00  0.00    +0.000 A 
ATOM     18  C   UNL     1       5.108   4.051  13.390  0.00  0.00    +0.000 C 
ATOM     19  C   UNL     1       4.626   3.962  15.836  0.00  0.00    +0.000 A 
ENDBRANCH   8  12
BRANCH   1  20
ATOM     20  N   UNL     1       2.379   7.191  20.573  0.00  0.00    +0.000 N 
ATOM     21  H   UNL     1       3.283   7.460  20.948  0.00  0.00    +0.000 HD
BRANCH  20  25
ATOM     22  C   UNL     1       0.081  10.152  18.644  0.00  0.00    +0.000 A 
ATOM     23  C   UNL     1      -0.109   9.902  19.995  0.00  0.00    +0.000 A 
ATOM     24  C   UNL     1       0.655   8.934  20.654  0.00  0.00    +0.000 A 
ATOM     25  C   UNL     1       1.626   8.200  19.967  0.00  0.00    +0.000 A 
ATOM     26  C   UNL     1       1.790   8.435  18.597  0.00  0.00    +0.000 A 
ATOM     27  C   UNL     1       1.011   9.392  17.934  0.00  0.00    +0.000 A 
BRANCH  22  28
ATOM     28  O   UNL     1      -0.696  11.142  18.111  0.00  0.00    +0.000 OA
BRANCH  28  30
ATOM     29  C   UNL     1      -0.416  13.478  18.488  0.00  0.00    +0.000 C 
ATOM     30  C   UNL     1      -1.047  12.198  19.004  0.00  0.00    +0.000 C 
ENDBRANCH  28  30
ENDBRANCH  22  28
ENDBRANCH  20  25
ENDBRANCH   1  20
TORSDOF 5
ENDMDL
MODEL 5
REMARK VINA RESULT:      -8.2      2.619      7.261
REMARK  Name = 
REMARK  8 active torsions:
REMARK  status: ('A' for Active; 'I' for Inactive)
REMARK    1  A    between atoms: C_1  and  C_2
REMARK    2  A    between atoms: C_2  and  O_3
REMARK    3  A    between atoms: O_3  and  C_4
REMARK    4  A    between atoms: C_7  and  N_8
REMARK    5  A    between atoms: N_8  and  C_9
REMARK    6  A    between atoms: N_16  and  C_17
REMARK    7  A    between atoms: C_20  and  C_21
REMARK    8  A    between atoms: C_22  and  C_23
REMARK                            x       y       z     vdW  Elec       q    Type
REMARK                         _______ _______ _______ _____ _____    ______ ____
ROOT
ATOM      1  C   UNL     1       5.527   3.438  17.830  0.00  0.00    +0.000 C 
ATOM      2  C   UNL     1       4.355   3.669  18.455  0.00  0.00    +0.000 C 
ATOM      3  C   UNL     1       3.872   2.676  19.418  0.00  0.00    +0.000 C 
ATOM      4  O   UNL     1       4.348   1.561  19.565  0.00  0.00    +0.000 OA
ATOM      5  N   UNL     1       2.863   3.145  20.205  0.00  0.00    +0.000 N 
ATOM      6  C   UNL     1       2.516   4.462  20.381  0.00  0.00    +0.000 C 
ATOM      7  O   UNL     1       1.994   4.746  21.459  0.00  0.00    +0.000 OA
ATOM      8  N   UNL     1       2.833   5.342  19.341  0.00  0.00    +0.000 N 
ATOM      9  C   UNL     1       3.588   4.912  18.248  0.00  0.00    +0.000 C 
ATOM     10  O   UNL     1       3.616   5.431  17.132  0.00  0.00    +0.000 OA
ATOM     11  H   UNL     1       2.641   2.550  20.994  0.00  0.00    +0.000 HD
ENDROOT
BRANCH   8  12
ATOM     12  C   UNL     1       2.306   6.701  19.334  0.00  0.00    +0.000 A 
ATOM     13  C   UNL     1       2.355   7.517  18.197  0.00  0.00    +0.000 A 
ATOM     14  C   UNL     1       1.879   8.835  18.215  0.00  0.00    +0.000 A 
ATOM     15  C   UNL     1       1.352   9.402  19.380  0.00  0.00    +0.000 A 
ATOM     16  C   UNL     1       0.877  10.826  19.342  0.00  0.00    +0.000 C 
ATOM     17  C   UNL     1       1.286   8.617  20.538  0.00  0.00    +0.000 A 
ATOM     18  C   UNL     1       0.774   9.131  21.858  0.00  0.00    +0.000 C 
ATOM     19  C   UNL     1       1.733   7.282  20.486  0.00  0.00    +0.000 A 
ENDBRANCH   8  12
BRANCH   1  20
ATOM     20  N   UNL     1       6.291   4.292  17.065  0.00  0.00    +0.000 N 
ATOM     21  H   UNL     1       6.354   4.082  16.074  0.00  0.00    +0.000 HD
BRANCH  20  25
ATOM     22  C   UNL     1       8.233   7.794  18.382  0.00  0.00    +0.000 A 
ATOM     23  C   UNL     1       8.277   6.647  19.158  0.00  0.00    +0.000 A 
ATOM     24  C   UNL     1       7.652   5.472  18.730  0.00  0.00    +0.000 A 
ATOM     25  C   UNL     1       6.970   5.429  17.510  0.00  0.00    +0.000 A 
ATOM     26  C   UNL     1       6.902   6.599  16.746  0.00  0.00    +0.000 A 
ATOM     27  C   UNL     1       7.514   7.781  17.186  0.00  0.00    +0.000 A 
BRANCH  22  28
ATOM     28  O   UNL     1       8.907   8.873  18.881  0.00  0.00    +0.000 OA
BRANCH  28  30
ATOM     29  C   UNL     1       9.762  11.071  18.541  0.00  0.00    +0.000 C 
ATOM     30  C   UNL     1       8.607  10.125  18.266  0.00  0.00    +0.000 C 
ENDBRANCH  28  30
ENDBRANCH  22  28
ENDBRANCH  20  25
ENDBRANCH   1  20
TORSDOF 5
ENDMDL
MODEL 6
REMARK VINA RESULT:      -8.2      1.657      2.425
REMARK  Name = 
REMARK  8 active torsions:
REMARK  status: ('A' for Active; 'I' for Inactive)
REMARK    1  A    between atoms: C_1  and  C_2
REMARK    2  A    between atoms: C_2  and  O_3
REMARK    3  A    between atoms: O_3  and  C_4
REMARK    4  A    between atoms: C_7  and  N_8
REMARK    5  A    between atoms: N_8  and  C_9
REMARK    6  A    between atoms: N_16  and  C_17
REMARK    7  A    between atoms: C_20  and  C_21
REMARK    8  A    between atoms: C_22  and  C_23
REMARK                            x       y       z     vdW  Elec       q    Type
REMARK                         _______ _______ _______ _____ _____    ______ ____
ROOT
ATOM      1  C   UNL     1       1.656   5.771  20.814  0.00  0.00    +0.000 C 
ATOM      2  C   UNL     1       2.159   4.769  20.065  0.00  0.00    +0.000 C 
ATOM      3  C   UNL     1       1.405   3.515  19.984  0.00  0.00    +0.000 C 
ATOM      4  O   UNL     1       0.451   3.230  20.691  0.00  0.00    +0.000 OA
ATOM      5  N   UNL     1       1.831   2.703  18.975  0.00  0.00    +0.000 N 
ATOM      6  C   UNL     1       2.618   3.073  17.913  0.00  0.00    +0.000 C 
ATOM      7  O   UNL     1       2.470   2.425  16.877  0.00  0.00    +0.000 OA
ATOM      8  N   UNL     1       3.465   4.169  18.106  0.00  0.00    +0.000 N 
ATOM      9  C   UNL     1       3.399   4.923  19.280  0.00  0.00    +0.000 C 
ATOM     10  O   UNL     1       4.291   5.636  19.740  0.00  0.00    +0.000 OA
ATOM     11  H   UNL     1       1.214   1.923  18.782  0.00  0.00    +0.000 HD
ENDROOT
BRANCH   8  12
ATOM     12  C   UNL     1       4.494   4.493  17.126  0.00  0.00    +0.000 A 
ATOM     13  C   UNL     1       4.658   3.762  15.944  0.00  0.00    +0.000 A 
ATOM     14  C   UNL     1       5.675   4.062  15.028  0.00  0.00    +0.000 A 
ATOM     15  C   UNL     1       6.588   5.096  15.267  0.00  0.00    +0.000 A 
ATOM     16  C   UNL     1       7.669   5.355  14.258  0.00  0.00    +0.000 C 
ATOM     17  C   UNL     1       6.455   5.850  16.439  0.00  0.00    +0.000 A 
ATOM     18  C   UNL     1       7.399   6.960  16.820  0.00  0.00    +0.000 C 
ATOM     19  C   UNL     1       5.401   5.556  17.326  0.00  0.00    +0.000 A 
ENDBRANCH   8  12
BRANCH   1  20
ATOM     20  N   UNL     1       2.045   7.091  20.879  0.00  0.00    +0.000 N 
ATOM     21  H   UNL     1       2.867   7.297  21.438  0.00  0.00    +0.000 HD
BRANCH  20  25
ATOM     22  C   UNL     1       0.191  10.279  18.836  0.00  0.00    +0.000 A 
ATOM     23  C   UNL     1      -0.197   9.969  20.130  0.00  0.00    +0.000 A 
ATOM     24  C   UNL     1       0.417   8.925  20.828  0.00  0.00    +0.000 A 
ATOM     25  C   UNL     1       1.436   8.172  20.237  0.00  0.00    +0.000 A 
ATOM     26  C   UNL     1       1.801   8.469  18.919  0.00  0.00    +0.000 A 
ATOM     27  C   UNL     1       1.172   9.504  18.215  0.00  0.00    +0.000 A 
BRANCH  22  28
ATOM     28  O   UNL     1      -0.452  11.339  18.262  0.00  0.00    +0.000 OA
BRANCH  28  30
ATOM     29  C   UNL     1      -2.209  10.423  16.938  0.00  0.00    +0.000 C 
ATOM     30  C   UNL     1      -1.872  11.228  18.181  0.00  0.00    +0.000 C 
ENDBRANCH  28  30
ENDBRANCH  22  28
ENDBRANCH  20  25
ENDBRANCH   1  20
TORSDOF 5
ENDMDL
MODEL 7
REMARK VINA RESULT:      -8.2      2.539      7.288
REMARK  Name = 
REMARK  8 active torsions:
REMARK  status: ('A' for Active; 'I' for Inactive)
REMARK    1  A    between atoms: C_1  and  C_2
REMARK    2  A    between atoms: C_2  and  O_3
REMARK    3  A    between atoms: O_3  and  C_4
REMARK    4  A    between atoms: C_7  and  N_8
REMARK    5  A    between atoms: N_8  and  C_9
REMARK    6  A    between atoms: N_16  and  C_17
REMARK    7  A    between atoms: C_20  and  C_21
REMARK    8  A    between atoms: C_22  and  C_23
REMARK                            x       y       z     vdW  Elec       q    Type
REMARK                         _______ _______ _______ _____ _____    ______ ____
ROOT
ATOM      1  C   UNL     1       5.094   3.144  17.401  0.00  0.00    +0.000 C 
ATOM      2  C   UNL     1       3.943   3.403  18.054  0.00  0.00    +0.000 C 
ATOM      3  C   UNL     1       3.382   2.361  18.915  0.00  0.00    +0.000 C 
ATOM      4  O   UNL     1       3.767   1.203  18.947  0.00  0.00    +0.000 OA
ATOM      5  N   UNL     1       2.411   2.827  19.751  0.00  0.00    +0.000 N 
ATOM      6  C   UNL     1       2.169   4.143  20.060  0.00  0.00    +0.000 C 
ATOM      7  O   UNL     1       1.669   4.359  21.164  0.00  0.00    +0.000 OA
ATOM      8  N   UNL     1       2.557   5.095  19.111  0.00  0.00    +0.000 N 
ATOM      9  C   UNL     1       3.278   4.718  17.975  0.00  0.00    +0.000 C 
ATOM     10  O   UNL     1       3.349   5.343  16.917  0.00  0.00    +0.000 OA
ATOM     11  H   UNL     1       2.141   2.175  20.478  0.00  0.00    +0.000 HD
ENDROOT
BRANCH   8  12
ATOM     12  C   UNL     1       2.140   6.486  19.243  0.00  0.00    +0.000 A 
ATOM     13  C   UNL     1       2.154   7.377  18.163  0.00  0.00    +0.000 A 
ATOM     14  C   UNL     1       1.786   8.720  18.312  0.00  0.00    +0.000 A 
ATOM     15  C   UNL     1       1.408   9.237  19.556  0.00  0.00    +0.000 A 
ATOM     16  C   UNL     1       1.045  10.691  19.657  0.00  0.00    +0.000 C 
ATOM     17  C   UNL     1       1.382   8.376  20.660  0.00  0.00    +0.000 A 
ATOM     18  C   UNL     1       1.028   8.828  22.053  0.00  0.00    +0.000 C 
ATOM     19  C   UNL     1       1.717   7.020  20.479  0.00  0.00    +0.000 A 
ENDBRANCH   8  12
BRANCH   1  20
ATOM     20  N   UNL     1       5.926   4.007  16.721  0.00  0.00    +0.000 N 
ATOM     21  H   UNL     1       6.048   3.834  15.729  0.00  0.00    +0.000 HD
BRANCH  20  25
ATOM     22  C   UNL     1       8.059   7.252  18.361  0.00  0.00    +0.000 A 
ATOM     23  C   UNL     1       7.499   7.362  17.097  0.00  0.00    +0.000 A 
ATOM     24  C   UNL     1       6.775   6.301  16.544  0.00  0.00    +0.000 A 
ATOM     25  C   UNL     1       6.600   5.109  17.253  0.00  0.00    +0.000 A 
ATOM     26  C   UNL     1       7.194   4.994  18.515  0.00  0.00    +0.000 A 
ATOM     27  C   UNL     1       7.934   6.051  19.060  0.00  0.00    +0.000 A 
BRANCH  22  28
ATOM     28  O   UNL     1       8.714   8.361  18.816  0.00  0.00    +0.000 OA
BRANCH  28  30
ATOM     29  C   UNL     1       9.391  10.635  18.587  0.00  0.00    +0.000 C 
ATOM     30  C   UNL     1       8.376   9.586  18.168  0.00  0.00    +0.000 C 
ENDBRANCH  28  30
ENDBRANCH  22  28
ENDBRANCH  20  25
ENDBRANCH   1  20
TORSDOF 5
ENDMDL
MODEL 8
REMARK VINA RESULT:      -8.1      3.421      9.278
REMARK  Name = 
REMARK  8 active torsions:
REMARK  status: ('A' for Active; 'I' for Inactive)
REMARK    1  A    between atoms: C_1  and  C_2
REMARK    2  A    between atoms: C_2  and  O_3
REMARK    3  A    between atoms: O_3  and  C_4
REMARK    4  A    between atoms: C_7  and  N_8
REMARK    5  A    between atoms: N_8  and  C_9
REMARK    6  A    between atoms: N_16  and  C_17
REMARK    7  A    between atoms: C_20  and  C_21
REMARK    8  A    between atoms: C_22  and  C_23
REMARK                            x       y       z     vdW  Elec       q    Type
REMARK                         _______ _______ _______ _____ _____    ______ ____
ROOT
ATOM      1  C   UNL     1       0.958   8.630  21.357  0.00  0.00    +0.000 C 
ATOM      2  C   UNL     1       0.383   9.848  21.422  0.00  0.00    +0.000 C 
ATOM      3  C   UNL     1      -0.479  10.150  22.566  0.00  0.00    +0.000 C 
ATOM      4  O   UNL     1      -0.877   9.326  23.375  0.00  0.00    +0.000 OA
ATOM      5  N   UNL     1      -0.749  11.481  22.692  0.00  0.00    +0.000 N 
ATOM      6  C   UNL     1      -0.069  12.508  22.085  0.00  0.00    +0.000 C 
ATOM      7  O   UNL     1      -0.070  13.585  22.680  0.00  0.00    +0.000 OA
ATOM      8  N   UNL     1       0.586  12.209  20.886  0.00  0.00    +0.000 N 
ATOM      9  C   UNL     1       0.651  10.895  20.417  0.00  0.00    +0.000 C 
ATOM     10  O   UNL     1       0.842  10.545  19.252  0.00  0.00    +0.000 OA
ATOM     11  H   UNL     1      -1.184  11.735  23.571  0.00  0.00    +0.000 HD
ENDROOT
BRANCH   8  12
ATOM     12  C   UNL     1       1.137  13.273  20.057  0.00  0.00    +0.000 A 
ATOM     13  C   UNL     1       2.502  13.355  19.753  0.00  0.00    +0.000 A 
ATOM     14  C   UNL     1       3.023  14.405  18.986  0.00  0.00    +0.000 A 
ATOM     15  C   UNL     1       2.204  15.432  18.505  0.00  0.00    +0.000 A 
ATOM     16  C   UNL     1       2.825  16.541  17.706  0.00  0.00    +0.000 C 
ATOM     17  C   UNL     1       0.833  15.384  18.788  0.00  0.00    +0.000 A 
ATOM     18  C   UNL     1      -0.138  16.451  18.356  0.00  0.00    +0.000 C 
ATOM     19  C   UNL     1       0.324  14.299  19.528  0.00  0.00    +0.000 A 
ENDBRANCH   8  12
BRANCH   1  20
ATOM     20  N   UNL     1       1.960   8.181  20.525  0.00  0.00    +0.000 N 
ATOM     21  H   UNL     1       2.707   8.835  20.317  0.00  0.00    +0.000 HD
BRANCH  20  25
ATOM     22  C   UNL     1       2.146   4.321  18.839  0.00  0.00    +0.000 A 
ATOM     23  C   UNL     1       2.602   5.413  18.116  0.00  0.00    +0.000 A 
ATOM     24  C   UNL     1       2.562   6.698  18.666  0.00  0.00    +0.000 A 
ATOM     25  C   UNL     1       2.063   6.909  19.955  0.00  0.00    +0.000 A 
ATOM     26  C   UNL     1       1.575   5.808  20.666  0.00  0.00    +0.000 A 
ATOM     27  C   UNL     1       1.599   4.523  20.107  0.00  0.00    +0.000 A 
BRANCH  22  28
ATOM     28  O   UNL     1       2.265   3.110  18.219  0.00  0.00    +0.000 OA
BRANCH  28  30
ATOM     29  C   UNL     1       4.111   2.209  19.427  0.00  0.00    +0.000 C 
ATOM     30  C   UNL     1       3.597   2.626  18.061  0.00  0.00    +0.000 C 
ENDBRANCH  28  30
ENDBRANCH  22  28
ENDBRANCH  20  25
ENDBRANCH   1  20
TORSDOF 5
ENDMDL
MODEL 9
REMARK VINA RESULT:      -8.0      3.350      4.746
REMARK  Name = 
REMARK  8 active torsions:
REMARK  status: ('A' for Active; 'I' for Inactive)
REMARK    1  A    between atoms: C_1  and  C_2
REMARK    2  A    between atoms: C_2  and  O_3
REMARK    3  A    between atoms: O_3  and  C_4
REMARK    4  A    between atoms: C_7  and  N_8
REMARK    5  A    between atoms: N_8  and  C_9
REMARK    6  A    between atoms: N_16  and  C_17
REMARK    7  A    between atoms: C_20  and  C_21
REMARK    8  A    between atoms: C_22  and  C_23
REMARK                            x       y       z     vdW  Elec       q    Type
REMARK                         _______ _______ _______ _____ _____    ______ ____
ROOT
ATOM      1  C   UNL     1       0.063   9.706  19.463  0.00  0.00    +0.000 C 
ATOM      2  C   UNL     1       1.005   8.842  19.892  0.00  0.00    +0.000 C 
ATOM      3  C   UNL     1       0.993   8.443  21.301  0.00  0.00    +0.000 C 
ATOM      4  O   UNL     1       0.317   8.974  22.168  0.00  0.00    +0.000 OA
ATOM      5  N   UNL     1       1.773   7.353  21.552  0.00  0.00    +0.000 N 
ATOM      6  C   UNL     1       2.262   6.473  20.619  0.00  0.00    +0.000 C 
ATOM      7  O   UNL     1       2.464   5.324  21.010  0.00  0.00    +0.000 OA
ATOM      8  N   UNL     1       2.434   6.963  19.320  0.00  0.00    +0.000 N 
ATOM      9  C   UNL     1       1.994   8.243  18.976  0.00  0.00    +0.000 C 
ATOM     10  O   UNL     1       2.400   8.925  18.034  0.00  0.00    +0.000 OA
ATOM     11  H   UNL     1       1.637   6.949  22.471  0.00  0.00    +0.000 HD
ENDROOT
BRANCH   8  12
ATOM     12  C   UNL     1       3.156   6.182  18.323  0.00  0.00    +0.000 A 
ATOM     13  C   UNL     1       2.646   4.990  17.793  0.00  0.00    +0.000 A 
ATOM     14  C   UNL     1       3.367   4.230  16.863  0.00  0.00    +0.000 A 
ATOM     15  C   UNL     1       4.641   4.619  16.436  0.00  0.00    +0.000 A 
ATOM     16  C   UNL     1       5.373   3.752  15.453  0.00  0.00    +0.000 C 
ATOM     17  C   UNL     1       5.185   5.806  16.944  0.00  0.00    +0.000 A 
ATOM     18  C   UNL     1       6.560   6.305  16.586  0.00  0.00    +0.000 C 
ATOM     19  C   UNL     1       4.425   6.575  17.848  0.00  0.00    +0.000 A 
ENDBRANCH   8  12
BRANCH   1  20
ATOM     20  N   UNL     1      -0.273  10.061  18.175  0.00  0.00    +0.000 N 
ATOM     21  H   UNL     1       0.449   9.955  17.470  0.00  0.00    +0.000 HD
BRANCH  20  25
ATOM     22  C   UNL     1      -4.055  11.358  16.837  0.00  0.00    +0.000 A 
ATOM     23  C   UNL     1      -3.499  11.912  17.980  0.00  0.00    +0.000 A 
ATOM     24  C   UNL     1      -2.240  11.505  18.430  0.00  0.00    +0.000 A 
ATOM     25  C   UNL     1      -1.513  10.532  17.736  0.00  0.00    +0.000 A 
ATOM     26  C   UNL     1      -2.093   9.955  16.601  0.00  0.00    +0.000 A 
ATOM     27  C   UNL     1      -3.363  10.351  16.162  0.00  0.00    +0.000 A 
BRANCH  22  28
ATOM     28  O   UNL     1      -5.274  11.855  16.471  0.00  0.00    +0.000 OA
BRANCH  28  30
ATOM     29  C   UNL     1      -6.812  11.246  18.185  0.00  0.00    +0.000 C 
ATOM     30  C   UNL     1      -6.064  12.393  17.530  0.00  0.00    +0.000 C 
ENDBRANCH  28  30
ENDBRANCH  22  28
ENDBRANCH  20  25
ENDBRANCH   1  20
TORSDOF 5
ENDMDL
