MODEL 1
REMARK VINA RESULT:      -7.3      0.000      0.000
REMARK  Name = 
REMARK  16 active torsions:
REMARK  status: ('A' for Active; 'I' for Inactive)
REMARK    1  A    between atoms: C_1  and  C_2
REMARK    2  A    between atoms: C_2  and  C_3
REMARK    3  A    between atoms: C_3  and  C_4
REMARK    4  A    between atoms: C_3  and  N_5
REMARK    5  A    between atoms: N_5  and  C_6
REMARK    6  A    between atoms: C_6  and  C_7
REMARK    7  A    between atoms: C_7  and  O_8
REMARK    8  A    between atoms: C_7  and  C_9
REMARK    9  A    between atoms: C_9  and  O_10
REMARK   10  A    between atoms: O_10  and  C_11
REMARK   11  A    between atoms: C_14  and  C_15
REMARK   12  A    between atoms: N_17  and  C_18
REMARK   13  A    between atoms: C_18  and  C_19
REMARK   14  A    between atoms: C_19  and  C_20
REMARK   15  A    between atoms: C_23  and  S_24
REMARK   16  A    between atoms: S_24  and  N_25
REMARK                            x       y       z     vdW  Elec       q    Type
REMARK                         _______ _______ _______ _____ _____    ______ ____
ROOT
ATOM      1  C   UNL     1       1.607   9.096  19.141  0.00  0.00    +0.000 A 
ATOM      2  C   UNL     1       2.154   8.133  18.289  0.00  0.00    +0.000 A 
ATOM      3  C   UNL     1       2.246   6.804  18.683  0.00  0.00    +0.000 A 
ATOM      4  C   UNL     1       1.792   6.418  19.943  0.00  0.00    +0.000 A 
ATOM      5  C   UNL     1       1.257   7.375  20.814  0.00  0.00    +0.000 A 
ATOM      6  C   UNL     1       1.159   8.713  20.409  0.00  0.00    +0.000 A 
ENDROOT
BRANCH   4   7
ATOM      7  C   UNL     1       1.939   5.008  20.382  0.00  0.00    +0.000 C 
ATOM      8  O   UNL     1       2.370   4.764  21.495  0.00  0.00    +0.000 OA
ATOM      9  N   UNL     1       1.551   4.053  19.466  0.00  0.00    +0.000 N 
ATOM     10  H   UNL     1       1.122   4.329  18.594  0.00  0.00    +0.000 HD
BRANCH   9  11
ATOM     11  C   UNL     1       1.712   2.637  19.725  0.00  0.00    +0.000 C 
BRANCH  11  12
ATOM     12  C   UNL     1       2.788   2.005  18.846  0.00  0.00    +0.000 C 
BRANCH  12  13
ATOM     13  C   UNL     1       3.774   3.027  18.349  0.00  0.00    +0.000 A 
ATOM     14  C   UNL     1       4.805   3.470  19.191  0.00  0.00    +0.000 A 
ATOM     15  C   UNL     1       5.729   4.411  18.740  0.00  0.00    +0.000 A 
ATOM     16  C   UNL     1       5.622   4.902  17.437  0.00  0.00    +0.000 A 
ATOM     17  C   UNL     1       4.583   4.491  16.597  0.00  0.00    +0.000 A 
ATOM     18  C   UNL     1       3.661   3.552  17.055  0.00  0.00    +0.000 A 
BRANCH  16  19
ATOM     19  S   UNL     1       6.822   6.057  16.833  0.00  0.00    +0.000 S 
ATOM     20  O   UNL     1       6.128   7.246  16.397  0.00  0.00    +0.000 OA
ATOM     21  O   UNL     1       7.934   6.090  17.753  0.00  0.00    +0.000 OA
BRANCH  19  22
ATOM     22  N   UNL     1       7.341   5.263  15.463  0.00  0.00    +0.000 NA
ATOM     23  H   UNL     1       7.030   5.639  14.573  0.00  0.00    +0.000 HD
ATOM     24  H   UNL     1       7.566   4.278  15.567  0.00  0.00    +0.000 HD
ENDBRANCH  19  22
ENDBRANCH  16  19
ENDBRANCH  12  13
ENDBRANCH  11  12
ENDBRANCH   9  11
ENDBRANCH   4   7
BRANCH   1  25
ATOM     25  O   UNL     1       1.491  10.426  18.820  0.00  0.00    +0.000 OA
BRANCH  25  26
ATOM     26  C   UNL     1       0.740  11.207  19.770  0.00  0.00    +0.000 C 
BRANCH  26  27
ATOM     27  C   UNL     1      -0.159  12.225  19.065  0.00  0.00    +0.000 C 
BRANCH  27  28
ATOM     28  O   UNL     1      -0.399  13.350  19.915  0.00  0.00    +0.000 OA
ATOM     29  H   UNL     1       0.307  13.341  20.589  0.00  0.00    +0.000 HD
ENDBRANCH  27  28
BRANCH  27  30
ATOM     30  C   UNL     1      -1.481  11.562  18.656  0.00  0.00    +0.000 C 
BRANCH  30  31
ATOM     31  N   UNL     1      -1.384  10.936  17.334  0.00  0.00    +0.000 NA
ATOM     32  H   UNL     1      -1.372  11.681  16.632  0.00  0.00    +0.000 HD
BRANCH  31  33
ATOM     33  C   UNL     1      -2.492  10.003  17.078  0.00  0.00    +0.000 C 
ATOM     34  C   UNL     1      -2.736   9.846  15.571  0.00  0.00    +0.000 C 
BRANCH  33  36
ATOM     35  C   UNL     1      -4.682  11.303  16.872  0.00  0.00    +0.000 C 
ATOM     36  C   UNL     1      -3.741  10.542  17.798  0.00  0.00    +0.000 C 
ENDBRANCH  33  36
ENDBRANCH  31  33
ENDBRANCH  30  31
ENDBRANCH  27  30
ENDBRANCH  26  27
ENDBRANCH  25  26
ENDBRANCH   1  25
TORSDOF 14
ENDMDL
MODEL 2
REMARK VINA RESULT:      -7.2      0.886      1.697
REMARK  Name = 
REMARK  16 active torsions:
REMARK  status: ('A' for Active; 'I' for Inactive)
REMARK    1  A    between atoms: C_1  and  C_2
REMARK    2  A    between atoms: C_2  and  C_3
REMARK    3  A    between atoms: C_3  and  C_4
REMARK    4  A    between atoms: C_3  and  N_5
REMARK    5  A    between atoms: N_5  and  C_6
REMARK    6  A    between atoms: C_6  and  C_7
REMARK    7  A    between atoms: C_7  and  O_8
REMARK    8  A    between atoms: C_7  and  C_9
REMARK    9  A    between atoms: C_9  and  O_10
REMARK   10  A    between atoms: O_10  and  C_11
REMARK   11  A    between atoms: C_14  and  C_15
REMARK   12  A    between atoms: N_17  and  C_18
REMARK   13  A    between atoms: C_18  and  C_19
REMARK   14  A    between atoms: C_19  and  C_20
REMARK   15  A    between atoms: C_23  and  S_24
REMARK   16  A    between atoms: S_24  and  N_25
REMARK                            x       y       z     vdW  Elec       q    Type
REMARK                         _______ _______ _______ _____ _____    ______ ____
ROOT
ATOM      1  C   UNL     1       1.520   9.295  19.085  0.00  0.00    +0.000 A 
ATOM      2  C   UNL     1       1.167   8.886  20.374  0.00  0.00    +0.000 A 
ATOM      3  C   UNL     1       1.315   7.561  20.765  0.00  0.00    +0.000 A 
ATOM      4  C   UNL     1       1.817   6.621  19.866  0.00  0.00    +0.000 A 
ATOM      5  C   UNL     1       2.158   7.013  18.566  0.00  0.00    +0.000 A 
ATOM      6  C   UNL     1       2.015   8.353  18.179  0.00  0.00    +0.000 A 
ENDROOT
BRANCH   4   7
ATOM      7  C   UNL     1       1.925   5.197  20.269  0.00  0.00    +0.000 C 
ATOM      8  O   UNL     1       2.403   4.909  21.352  0.00  0.00    +0.000 OA
ATOM      9  N   UNL     1       1.450   4.279  19.355  0.00  0.00    +0.000 N 
ATOM     10  H   UNL     1       0.989   4.594  18.513  0.00  0.00    +0.000 HD
BRANCH   9  11
ATOM     11  C   UNL     1       1.563   2.852  19.576  0.00  0.00    +0.000 C 
BRANCH  11  12
ATOM     12  C   UNL     1       2.523   2.187  18.594  0.00  0.00    +0.000 C 
BRANCH  12  13
ATOM     13  C   UNL     1       3.649   3.106  18.205  0.00  0.00    +0.000 A 
ATOM     14  C   UNL     1       3.695   3.647  16.912  0.00  0.00    +0.000 A 
ATOM     15  C   UNL     1       4.729   4.505  16.542  0.00  0.00    +0.000 A 
ATOM     16  C   UNL     1       5.716   4.827  17.476  0.00  0.00    +0.000 A 
ATOM     17  C   UNL     1       5.699   4.272  18.759  0.00  0.00    +0.000 A 
ATOM     18  C   UNL     1       4.664   3.413  19.122  0.00  0.00    +0.000 A 
BRANCH  16  19
ATOM     19  S   UNL     1       7.006   5.959  17.037  0.00  0.00    +0.000 S 
ATOM     20  O   UNL     1       7.831   6.181  18.200  0.00  0.00    +0.000 OA
ATOM     21  O   UNL     1       7.544   5.569  15.755  0.00  0.00    +0.000 OA
BRANCH  19  22
ATOM     22  N   UNL     1       6.117   7.348  16.794  0.00  0.00    +0.000 NA
ATOM     23  H   UNL     1       5.624   7.719  17.600  0.00  0.00    +0.000 HD
ATOM     24  H   UNL     1       5.780   7.512  15.850  0.00  0.00    +0.000 HD
ENDBRANCH  19  22
ENDBRANCH  16  19
ENDBRANCH  12  13
ENDBRANCH  11  12
ENDBRANCH   9  11
ENDBRANCH   4   7
BRANCH   1  25
ATOM     25  O   UNL     1       1.395  10.585  18.630  0.00  0.00    +0.000 OA
BRANCH  25  26
ATOM     26  C   UNL     1       1.174  11.563  19.664  0.00  0.00    +0.000 C 
BRANCH  26  27
ATOM     27  C   UNL     1      -0.133  12.327  19.437  0.00  0.00    +0.000 C 
BRANCH  27  28
ATOM     28  O   UNL     1      -1.049  12.076  20.506  0.00  0.00    +0.000 OA
ATOM     29  H   UNL     1      -0.585  12.322  21.329  0.00  0.00    +0.000 HD
ENDBRANCH  27  28
BRANCH  27  30
ATOM     30  C   UNL     1      -0.748  11.924  18.090  0.00  0.00    +0.000 C 
BRANCH  30  31
ATOM     31  N   UNL     1      -2.174  12.258  18.025  0.00  0.00    +0.000 NA
ATOM     32  H   UNL     1      -2.450  12.639  18.935  0.00  0.00    +0.000 HD
BRANCH  31  33
ATOM     33  C   UNL     1      -3.002  11.092  17.681  0.00  0.00    +0.000 C 
ATOM     34  C   UNL     1      -2.154   9.813  17.643  0.00  0.00    +0.000 C 
BRANCH  33  36
ATOM     35  C   UNL     1      -3.017  10.603  15.173  0.00  0.00    +0.000 C 
ATOM     36  C   UNL     1      -3.666  11.368  16.319  0.00  0.00    +0.000 C 
ENDBRANCH  33  36
ENDBRANCH  31  33
ENDBRANCH  30  31
ENDBRANCH  27  30
ENDBRANCH  26  27
ENDBRANCH  25  26
ENDBRANCH   1  25
TORSDOF 14
ENDMDL
MODEL 3
REMARK VINA RESULT:      -7.2      5.398      8.333
REMARK  Name = 
REMARK  16 active torsions:
REMARK  status: ('A' for Active; 'I' for Inactive)
REMARK    1  A    between atoms: C_1  and  C_2
REMARK    2  A    between atoms: C_2  and  C_3
REMARK    3  A    between atoms: C_3  and  C_4
REMARK    4  A    between atoms: C_3  and  N_5
REMARK    5  A    between atoms: N_5  and  C_6
REMARK    6  A    between atoms: C_6  and  C_7
REMARK    7  A    between atoms: C_7  and  O_8
REMARK    8  A    between atoms: C_7  and  C_9
REMARK    9  A    between atoms: C_9  and  O_10
REMARK   10  A    between atoms: O_10  and  C_11
REMARK   11  A    between atoms: C_14  and  C_15
REMARK   12  A    between atoms: N_17  and  C_18
REMARK   13  A    between atoms: C_18  and  C_19
REMARK   14  A    between atoms: C_19  and  C_20
REMARK   15  A    between atoms: C_23  and  S_24
REMARK   16  A    between atoms: S_24  and  N_25
REMARK                            x       y       z     vdW  Elec       q    Type
REMARK                         _______ _______ _______ _____ _____    ______ ____
ROOT
ATOM      1  C   UNL     1       4.518   3.285  18.561  0.00  0.00    +0.000 A 
ATOM      2  C   UNL     1       4.673   3.495  17.187  0.00  0.00    +0.000 A 
ATOM      3  C   UNL     1       5.495   4.507  16.711  0.00  0.00    +0.000 A 
ATOM      4  C   UNL     1       6.175   5.332  17.606  0.00  0.00    +0.000 A 
ATOM      5  C   UNL     1       6.016   5.146  18.984  0.00  0.00    +0.000 A 
ATOM      6  C   UNL     1       5.191   4.117  19.460  0.00  0.00    +0.000 A 
ENDROOT
BRANCH   4   7
ATOM      7  C   UNL     1       7.012   6.447  17.095  0.00  0.00    +0.000 C 
ATOM      8  O   UNL     1       7.573   6.338  16.020  0.00  0.00    +0.000 OA
ATOM      9  N   UNL     1       7.082   7.562  17.905  0.00  0.00    +0.000 N 
ATOM     10  H   UNL     1       6.522   7.616  18.744  0.00  0.00    +0.000 HD
BRANCH   9  11
ATOM     11  C   UNL     1       7.923   8.693  17.575  0.00  0.00    +0.000 C 
BRANCH  11  12
ATOM     12  C   UNL     1       8.772   9.150  18.759  0.00  0.00    +0.000 C 
BRANCH  12  13
ATOM     13  C   UNL     1       9.203  10.585  18.616  0.00  0.00    +0.000 A 
ATOM     14  C   UNL     1       8.491  11.447  17.769  0.00  0.00    +0.000 A 
ATOM     15  C   UNL     1       8.875  12.780  17.634  0.00  0.00    +0.000 A 
ATOM     16  C   UNL     1       9.974  13.250  18.359  0.00  0.00    +0.000 A 
ATOM     17  C   UNL     1      10.709  12.395  19.183  0.00  0.00    +0.000 A 
ATOM     18  C   UNL     1      10.321  11.063  19.312  0.00  0.00    +0.000 A 
BRANCH  16  19
ATOM     19  S   UNL     1      10.440  14.955  18.238  0.00  0.00    +0.000 S 
ATOM     20  O   UNL     1       9.322  15.695  17.705  0.00  0.00    +0.000 OA
ATOM     21  O   UNL     1      11.124  15.332  19.453  0.00  0.00    +0.000 OA
BRANCH  19  22
ATOM     22  N   UNL     1      11.590  14.868  17.034  0.00  0.00    +0.000 NA
ATOM     23  H   UNL     1      11.723  13.961  16.598  0.00  0.00    +0.000 HD
ATOM     24  H   UNL     1      12.343  15.547  17.076  0.00  0.00    +0.000 HD
ENDBRANCH  19  22
ENDBRANCH  16  19
ENDBRANCH  12  13
ENDBRANCH  11  12
ENDBRANCH   9  11
ENDBRANCH   4   7
BRANCH   1  25
ATOM     25  O   UNL     1       3.717   2.309  19.101  0.00  0.00    +0.000 OA
BRANCH  25  26
ATOM     26  C   UNL     1       3.158   2.640  20.386  0.00  0.00    +0.000 C 
BRANCH  26  27
ATOM     27  C   UNL     1       1.627   2.618  20.348  0.00  0.00    +0.000 C 
BRANCH  27  28
ATOM     28  O   UNL     1       1.168   2.137  19.082  0.00  0.00    +0.000 OA
ATOM     29  H   UNL     1       1.926   1.680  18.670  0.00  0.00    +0.000 HD
ENDBRANCH  27  28
BRANCH  27  30
ATOM     30  C   UNL     1       1.076   4.022  20.628  0.00  0.00    +0.000 C 
BRANCH  30  31
ATOM     31  N   UNL     1       2.076   5.059  20.353  0.00  0.00    +0.000 NA
ATOM     32  H   UNL     1       2.210   5.603  21.209  0.00  0.00    +0.000 HD
BRANCH  31  33
ATOM     33  C   UNL     1       1.676   5.935  19.241  0.00  0.00    +0.000 C 
ATOM     34  C   UNL     1       1.706   5.172  17.908  0.00  0.00    +0.000 C 
BRANCH  33  36
ATOM     35  C   UNL     1       3.234   7.403  17.846  0.00  0.00    +0.000 C 
ATOM     36  C   UNL     1       2.631   7.142  19.220  0.00  0.00    +0.000 C 
ENDBRANCH  33  36
ENDBRANCH  31  33
ENDBRANCH  30  31
ENDBRANCH  27  30
ENDBRANCH  26  27
ENDBRANCH  25  26
ENDBRANCH   1  25
TORSDOF 14
ENDMDL
MODEL 4
REMARK VINA RESULT:      -7.1      0.814      1.518
REMARK  Name = 
REMARK  16 active torsions:
REMARK  status: ('A' for Active; 'I' for Inactive)
REMARK    1  A    between atoms: C_1  and  C_2
REMARK    2  A    between atoms: C_2  and  C_3
REMARK    3  A    between atoms: C_3  and  C_4
REMARK    4  A    between atoms: C_3  and  N_5
REMARK    5  A    between atoms: N_5  and  C_6
REMARK    6  A    between atoms: C_6  and  C_7
REMARK    7  A    between atoms: C_7  and  O_8
REMARK    8  A    between atoms: C_7  and  C_9
REMARK    9  A    between atoms: C_9  and  O_10
REMARK   10  A    between atoms: O_10  and  C_11
REMARK   11  A    between atoms: C_14  and  C_15
REMARK   12  A    between atoms: N_17  and  C_18
REMARK   13  A    between atoms: C_18  and  C_19
REMARK   14  A    between atoms: C_19  and  C_20
REMARK   15  A    between atoms: C_23  and  S_24
REMARK   16  A    between atoms: S_24  and  N_25
REMARK                            x       y       z     vdW  Elec       q    Type
REMARK                         _______ _______ _______ _____ _____    ______ ____
ROOT
ATOM      1  C   UNL     1       1.642   9.158  19.079  0.00  0.00    +0.000 A 
ATOM      2  C   UNL     1       1.159   8.765  20.331  0.00  0.00    +0.000 A 
ATOM      3  C   UNL     1       1.262   7.445  20.751  0.00  0.00    +0.000 A 
ATOM      4  C   UNL     1       1.850   6.494  19.919  0.00  0.00    +0.000 A 
ATOM      5  C   UNL     1       2.323   6.869  18.656  0.00  0.00    +0.000 A 
ATOM      6  C   UNL     1       2.224   8.204  18.240  0.00  0.00    +0.000 A 
ENDROOT
BRANCH   4   7
ATOM      7  C   UNL     1       1.913   5.074  20.348  0.00  0.00    +0.000 C 
ATOM      8  O   UNL     1       2.239   4.801  21.490  0.00  0.00    +0.000 OA
ATOM      9  N   UNL     1       1.575   4.143  19.388  0.00  0.00    +0.000 N 
ATOM     10  H   UNL     1       1.232   4.445  18.487  0.00  0.00    +0.000 HD
BRANCH   9  11
ATOM     11  C   UNL     1       1.667   2.720  19.638  0.00  0.00    +0.000 C 
BRANCH  11  12
ATOM     12  C   UNL     1       2.778   2.059  18.826  0.00  0.00    +0.000 C 
BRANCH  12  13
ATOM     13  C   UNL     1       3.785   3.065  18.335  0.00  0.00    +0.000 A 
ATOM     14  C   UNL     1       4.777   3.542  19.204  0.00  0.00    +0.000 A 
ATOM     15  C   UNL     1       5.719   4.467  18.759  0.00  0.00    +0.000 A 
ATOM     16  C   UNL     1       5.668   4.909  17.435  0.00  0.00    +0.000 A 
ATOM     17  C   UNL     1       4.667   4.465  16.567  0.00  0.00    +0.000 A 
ATOM     18  C   UNL     1       3.727   3.541  17.018  0.00  0.00    +0.000 A 
BRANCH  16  19
ATOM     19  S   UNL     1       6.892   6.044  16.841  0.00  0.00    +0.000 S 
ATOM     20  O   UNL     1       7.687   5.373  15.840  0.00  0.00    +0.000 OA
ATOM     21  O   UNL     1       6.263   7.324  16.616  0.00  0.00    +0.000 OA
BRANCH  19  22
ATOM     22  N   UNL     1       7.844   6.198  18.200  0.00  0.00    +0.000 NA
ATOM     23  H   UNL     1       8.391   5.386  18.467  0.00  0.00    +0.000 HD
ATOM     24  H   UNL     1       7.542   6.879  18.891  0.00  0.00    +0.000 HD
ENDBRANCH  19  22
ENDBRANCH  16  19
ENDBRANCH  12  13
ENDBRANCH  11  12
ENDBRANCH   9  11
ENDBRANCH   4   7
BRANCH   1  25
ATOM     25  O   UNL     1       1.567  10.442  18.598  0.00  0.00    +0.000 OA
BRANCH  25  26
ATOM     26  C   UNL     1       0.910  11.372  19.480  0.00  0.00    +0.000 C 
BRANCH  26  27
ATOM     27  C   UNL     1      -0.058  12.277  18.713  0.00  0.00    +0.000 C 
BRANCH  27  28
ATOM     28  O   UNL     1      -0.204  13.531  19.384  0.00  0.00    +0.000 OA
ATOM     29  H   UNL     1       0.478  14.123  19.014  0.00  0.00    +0.000 HD
ENDBRANCH  27  28
BRANCH  27  30
ATOM     30  C   UNL     1      -1.417  11.581  18.560  0.00  0.00    +0.000 C 
BRANCH  30  31
ATOM     31  N   UNL     1      -1.801  11.452  17.151  0.00  0.00    +0.000 NA
ATOM     32  H   UNL     1      -1.356  12.213  16.632  0.00  0.00    +0.000 HD
BRANCH  31  33
ATOM     33  C   UNL     1      -3.260  11.485  16.969  0.00  0.00    +0.000 C 
ATOM     34  C   UNL     1      -3.978  11.521  18.325  0.00  0.00    +0.000 C 
BRANCH  33  36
ATOM     35  C   UNL     1      -2.892  10.115  14.844  0.00  0.00    +0.000 C 
ATOM     36  C   UNL     1      -3.665  10.246  16.150  0.00  0.00    +0.000 C 
ENDBRANCH  33  36
ENDBRANCH  31  33
ENDBRANCH  30  31
ENDBRANCH  27  30
ENDBRANCH  26  27
ENDBRANCH  25  26
ENDBRANCH   1  25
TORSDOF 14
ENDMDL
MODEL 5
REMARK VINA RESULT:      -7.0      1.073      1.759
REMARK  Name = 
REMARK  16 active torsions:
REMARK  status: ('A' for Active; 'I' for Inactive)
REMARK    1  A    between atoms: C_1  and  C_2
REMARK    2  A    between atoms: C_2  and  C_3
REMARK    3  A    between atoms: C_3  and  C_4
REMARK    4  A    between atoms: C_3  and  N_5
REMARK    5  A    between atoms: N_5  and  C_6
REMARK    6  A    between atoms: C_6  and  C_7
REMARK    7  A    between atoms: C_7  and  O_8
REMARK    8  A    between atoms: C_7  and  C_9
REMARK    9  A    between atoms: C_9  and  O_10
REMARK   10  A    between atoms: O_10  and  C_11
REMARK   11  A    between atoms: C_14  and  C_15
REMARK   12  A    between atoms: N_17  and  C_18
REMARK   13  A    between atoms: C_18  and  C_19
REMARK   14  A    between atoms: C_19  and  C_20
REMARK   15  A    between atoms: C_23  and  S_24
REMARK   16  A    between atoms: S_24  and  N_25
REMARK                            x       y       z     vdW  Elec       q    Type
REMARK                         _______ _______ _______ _____ _____    ______ ____
ROOT
ATOM      1  C   UNL     1       1.555   9.271  19.440  0.00  0.00    +0.000 A 
ATOM      2  C   UNL     1       2.045   8.325  18.534  0.00  0.00    +0.000 A 
ATOM      3  C   UNL     1       2.114   6.981  18.877  0.00  0.00    +0.000 A 
ATOM      4  C   UNL     1       1.696   6.561  20.138  0.00  0.00    +0.000 A 
ATOM      5  C   UNL     1       1.219   7.499  21.063  0.00  0.00    +0.000 A 
ATOM      6  C   UNL     1       1.144   8.853  20.709  0.00  0.00    +0.000 A 
ENDROOT
BRANCH   4   7
ATOM      7  C   UNL     1       1.819   5.132  20.521  0.00  0.00    +0.000 C 
ATOM      8  O   UNL     1       2.393   4.831  21.553  0.00  0.00    +0.000 OA
ATOM      9  N   UNL     1       1.245   4.228  19.652  0.00  0.00    +0.000 N 
ATOM     10  H   UNL     1       0.712   4.555  18.859  0.00  0.00    +0.000 HD
BRANCH   9  11
ATOM     11  C   UNL     1       1.356   2.798  19.854  0.00  0.00    +0.000 C 
BRANCH  11  12
ATOM     12  C   UNL     1       2.128   2.112  18.731  0.00  0.00    +0.000 C 
BRANCH  12  13
ATOM     13  C   UNL     1       3.325   2.918  18.302  0.00  0.00    +0.000 A 
ATOM     14  C   UNL     1       3.392   3.430  16.998  0.00  0.00    +0.000 A 
ATOM     15  C   UNL     1       4.491   4.183  16.592  0.00  0.00    +0.000 A 
ATOM     16  C   UNL     1       5.523   4.430  17.501  0.00  0.00    +0.000 A 
ATOM     17  C   UNL     1       5.484   3.901  18.793  0.00  0.00    +0.000 A 
ATOM     18  C   UNL     1       4.382   3.146  19.193  0.00  0.00    +0.000 A 
BRANCH  16  19
ATOM     19  S   UNL     1       6.901   5.432  17.014  0.00  0.00    +0.000 S 
ATOM     20  O   UNL     1       7.957   4.561  16.557  0.00  0.00    +0.000 OA
ATOM     21  O   UNL     1       6.410   6.545  16.237  0.00  0.00    +0.000 OA
BRANCH  19  22
ATOM     22  N   UNL     1       7.371   6.037  18.495  0.00  0.00    +0.000 NA
ATOM     23  H   UNL     1       7.105   5.496  19.311  0.00  0.00    +0.000 HD
ATOM     24  H   UNL     1       7.510   7.041  18.551  0.00  0.00    +0.000 HD
ENDBRANCH  19  22
ENDBRANCH  16  19
ENDBRANCH  12  13
ENDBRANCH  11  12
ENDBRANCH   9  11
ENDBRANCH   4   7
BRANCH   1  25
ATOM     25  O   UNL     1       1.465  10.614  19.171  0.00  0.00    +0.000 OA
BRANCH  25  26
ATOM     26  C   UNL     1       0.173  11.191  19.442  0.00  0.00    +0.000 C 
BRANCH  26  27
ATOM     27  C   UNL     1      -0.758  11.061  18.233  0.00  0.00    +0.000 C 
BRANCH  27  28
ATOM     28  O   UNL     1      -0.822  12.297  17.519  0.00  0.00    +0.000 OA
ATOM     29  H   UNL     1       0.028  12.750  17.674  0.00  0.00    +0.000 HD
ENDBRANCH  27  28
BRANCH  27  30
ATOM     30  C   UNL     1      -2.156  10.626  18.694  0.00  0.00    +0.000 C 
BRANCH  30  31
ATOM     31  N   UNL     1      -2.968  10.145  17.572  0.00  0.00    +0.000 NA
ATOM     32  H   UNL     1      -2.336   9.740  16.876  0.00  0.00    +0.000 HD
BRANCH  31  33
ATOM     33  C   UNL     1      -3.778  11.217  16.973  0.00  0.00    +0.000 C 
ATOM     34  C   UNL     1      -5.193  11.228  17.567  0.00  0.00    +0.000 C 
BRANCH  33  36
ATOM     35  C   UNL     1      -2.868   9.888  14.990  0.00  0.00    +0.000 C 
ATOM     36  C   UNL     1      -3.808  10.995  15.450  0.00  0.00    +0.000 C 
ENDBRANCH  33  36
ENDBRANCH  31  33
ENDBRANCH  30  31
ENDBRANCH  27  30
ENDBRANCH  26  27
ENDBRANCH  25  26
ENDBRANCH   1  25
TORSDOF 14
ENDMDL
MODEL 6
REMARK VINA RESULT:      -7.0      4.014     10.511
REMARK  Name = 
REMARK  16 active torsions:
REMARK  status: ('A' for Active; 'I' for Inactive)
REMARK    1  A    between atoms: C_1  and  C_2
REMARK    2  A    between atoms: C_2  and  C_3
REMARK    3  A    between atoms: C_3  and  C_4
REMARK    4  A    between atoms: C_3  and  N_5
REMARK    5  A    between atoms: N_5  and  C_6
REMARK    6  A    between atoms: C_6  and  C_7
REMARK    7  A    between atoms: C_7  and  O_8
REMARK    8  A    between atoms: C_7  and  C_9
REMARK    9  A    between atoms: C_9  and  O_10
REMARK   10  A    between atoms: O_10  and  C_11
REMARK   11  A    between atoms: C_14  and  C_15
REMARK   12  A    between atoms: N_17  and  C_18
REMARK   13  A    between atoms: C_18  and  C_19
REMARK   14  A    between atoms: C_19  and  C_20
REMARK   15  A    between atoms: C_23  and  S_24
REMARK   16  A    between atoms: S_24  and  N_25
REMARK                            x       y       z     vdW  Elec       q    Type
REMARK                         _______ _______ _______ _____ _____    ______ ____
ROOT
ATOM      1  C   UNL     1       3.000   6.491  18.842  0.00  0.00    +0.000 A 
ATOM      2  C   UNL     1       2.158   7.073  19.795  0.00  0.00    +0.000 A 
ATOM      3  C   UNL     1       1.676   8.364  19.624  0.00  0.00    +0.000 A 
ATOM      4  C   UNL     1       2.033   9.098  18.494  0.00  0.00    +0.000 A 
ATOM      5  C   UNL     1       2.889   8.534  17.540  0.00  0.00    +0.000 A 
ATOM      6  C   UNL     1       3.367   7.228  17.713  0.00  0.00    +0.000 A 
ENDROOT
BRANCH   4   7
ATOM      7  C   UNL     1       1.560  10.496  18.339  0.00  0.00    +0.000 C 
ATOM      8  O   UNL     1       2.357  11.378  18.075  0.00  0.00    +0.000 OA
ATOM      9  N   UNL     1       0.204  10.690  18.503  0.00  0.00    +0.000 N 
ATOM     10  H   UNL     1      -0.410   9.899  18.637  0.00  0.00    +0.000 HD
BRANCH   9  11
ATOM     11  C   UNL     1      -0.389  12.011  18.460  0.00  0.00    +0.000 C 
BRANCH  11  12
ATOM     12  C   UNL     1      -1.120  12.361  19.753  0.00  0.00    +0.000 C 
BRANCH  12  13
ATOM     13  C   UNL     1      -2.613  12.256  19.598  0.00  0.00    +0.000 A 
ATOM     14  C   UNL     1      -3.155  11.614  18.474  0.00  0.00    +0.000 A 
ATOM     15  C   UNL     1      -4.535  11.504  18.322  0.00  0.00    +0.000 A 
ATOM     16  C   UNL     1      -5.374  12.033  19.306  0.00  0.00    +0.000 A 
ATOM     17  C   UNL     1      -4.849  12.700  20.415  0.00  0.00    +0.000 A 
ATOM     18  C   UNL     1      -3.468  12.809  20.560  0.00  0.00    +0.000 A 
BRANCH  16  19
ATOM     19  S   UNL     1      -7.130  11.852  19.152  0.00  0.00    +0.000 S 
ATOM     20  O   UNL     1      -7.726  12.083  20.447  0.00  0.00    +0.000 OA
ATOM     21  O   UNL     1      -7.561  12.536  17.956  0.00  0.00    +0.000 OA
BRANCH  19  22
ATOM     22  N   UNL     1      -7.238  10.216  18.848  0.00  0.00    +0.000 NA
ATOM     23  H   UNL     1      -7.146   9.598  19.647  0.00  0.00    +0.000 HD
ATOM     24  H   UNL     1      -6.981   9.911  17.914  0.00  0.00    +0.000 HD
ENDBRANCH  19  22
ENDBRANCH  16  19
ENDBRANCH  12  13
ENDBRANCH  11  12
ENDBRANCH   9  11
ENDBRANCH   4   7
BRANCH   1  25
ATOM     25  O   UNL     1       3.517   5.224  18.950  0.00  0.00    +0.000 OA
BRANCH  25  26
ATOM     26  C   UNL     1       3.054   4.303  17.943  0.00  0.00    +0.000 C 
BRANCH  26  27
ATOM     27  C   UNL     1       4.178   3.369  17.486  0.00  0.00    +0.000 C 
BRANCH  27  28
ATOM     28  O   UNL     1       4.450   2.389  18.491  0.00  0.00    +0.000 OA
ATOM     29  H   UNL     1       4.884   1.642  18.037  0.00  0.00    +0.000 HD
ENDBRANCH  27  28
BRANCH  27  30
ATOM     30  C   UNL     1       5.438   4.184  17.166  0.00  0.00    +0.000 C 
BRANCH  30  31
ATOM     31  N   UNL     1       6.402   4.143  18.270  0.00  0.00    +0.000 NA
ATOM     32  H   UNL     1       5.893   4.325  19.139  0.00  0.00    +0.000 HD
BRANCH  31  33
ATOM     33  C   UNL     1       7.489   5.118  18.094  0.00  0.00    +0.000 C 
ATOM     34  C   UNL     1       7.916   5.709  19.445  0.00  0.00    +0.000 C 
BRANCH  33  36
ATOM     35  C   UNL     1       7.522   7.598  17.480  0.00  0.00    +0.000 C 
ATOM     36  C   UNL     1       6.993   6.213  17.132  0.00  0.00    +0.000 C 
ENDBRANCH  33  36
ENDBRANCH  31  33
ENDBRANCH  30  31
ENDBRANCH  27  30
ENDBRANCH  26  27
ENDBRANCH  25  26
ENDBRANCH   1  25
TORSDOF 14
ENDMDL
MODEL 7
REMARK VINA RESULT:      -6.9      3.728      9.807
REMARK  Name = 
REMARK  16 active torsions:
REMARK  status: ('A' for Active; 'I' for Inactive)
REMARK    1  A    between atoms: C_1  and  C_2
REMARK    2  A    between atoms: C_2  and  C_3
REMARK    3  A    between atoms: C_3  and  C_4
REMARK    4  A    between atoms: C_3  and  N_5
REMARK    5  A    between atoms: N_5  and  C_6
REMARK    6  A    between atoms: C_6  and  C_7
REMARK    7  A    between atoms: C_7  and  O_8
REMARK    8  A    between atoms: C_7  and  C_9
REMARK    9  A    between atoms: C_9  and  O_10
REMARK   10  A    between atoms: O_10  and  C_11
REMARK   11  A    between atoms: C_14  and  C_15
REMARK   12  A    between atoms: N_17  and  C_18
REMARK   13  A    between atoms: C_18  and  C_19
REMARK   14  A    between atoms: C_19  and  C_20
REMARK   15  A    between atoms: C_23  and  S_24
REMARK   16  A    between atoms: S_24  and  N_25
REMARK                            x       y       z     vdW  Elec       q    Type
REMARK                         _______ _______ _______ _____ _____    ______ ____
ROOT
ATOM      1  C   UNL     1       4.315   5.322  19.049  0.00  0.00    +0.000 A 
ATOM      2  C   UNL     1       3.297   5.735  19.914  0.00  0.00    +0.000 A 
ATOM      3  C   UNL     1       2.537   6.862  19.631  0.00  0.00    +0.000 A 
ATOM      4  C   UNL     1       2.787   7.599  18.474  0.00  0.00    +0.000 A 
ATOM      5  C   UNL     1       3.815   7.207  17.607  0.00  0.00    +0.000 A 
ATOM      6  C   UNL     1       4.574   6.065  17.894  0.00  0.00    +0.000 A 
ENDROOT
BRANCH   4   7
ATOM      7  C   UNL     1       2.008   8.832  18.199  0.00  0.00    +0.000 C 
ATOM      8  O   UNL     1       2.163   9.422  17.144  0.00  0.00    +0.000 OA
ATOM      9  N   UNL     1       1.134   9.221  19.192  0.00  0.00    +0.000 N 
ATOM     10  H   UNL     1       0.996   8.637  20.005  0.00  0.00    +0.000 HD
BRANCH   9  11
ATOM     11  C   UNL     1       0.368  10.447  19.098  0.00  0.00    +0.000 C 
BRANCH  11  12
ATOM     12  C   UNL     1      -0.840  10.307  18.175  0.00  0.00    +0.000 C 
BRANCH  12  13
ATOM     13  C   UNL     1      -2.033  11.059  18.699  0.00  0.00    +0.000 A 
ATOM     14  C   UNL     1      -3.277  10.928  18.063  0.00  0.00    +0.000 A 
ATOM     15  C   UNL     1      -4.390  11.613  18.543  0.00  0.00    +0.000 A 
ATOM     16  C   UNL     1      -4.258  12.427  19.670  0.00  0.00    +0.000 A 
ATOM     17  C   UNL     1      -3.019  12.590  20.296  0.00  0.00    +0.000 A 
ATOM     18  C   UNL     1      -1.908  11.904  19.810  0.00  0.00    +0.000 A 
BRANCH  16  19
ATOM     19  S   UNL     1      -5.678  13.262  20.324  0.00  0.00    +0.000 S 
ATOM     20  O   UNL     1      -5.222  14.314  21.201  0.00  0.00    +0.000 OA
ATOM     21  O   UNL     1      -6.615  13.486  19.249  0.00  0.00    +0.000 OA
BRANCH  19  22
ATOM     22  N   UNL     1      -6.315  12.061  21.288  0.00  0.00    +0.000 NA
ATOM     23  H   UNL     1      -6.453  12.289  22.267  0.00  0.00    +0.000 HD
ATOM     24  H   UNL     1      -6.151  11.104  20.989  0.00  0.00    +0.000 HD
ENDBRANCH  19  22
ENDBRANCH  16  19
ENDBRANCH  12  13
ENDBRANCH  11  12
ENDBRANCH   9  11
ENDBRANCH   4   7
BRANCH   1  25
ATOM     25  O   UNL     1       5.109   4.223  19.270  0.00  0.00    +0.000 OA
BRANCH  25  26
ATOM     26  C   UNL     1       4.385   2.989  19.439  0.00  0.00    +0.000 C 
BRANCH  26  27
ATOM     27  C   UNL     1       4.295   2.213  18.122  0.00  0.00    +0.000 C 
BRANCH  27  28
ATOM     28  O   UNL     1       4.993   2.909  17.086  0.00  0.00    +0.000 OA
ATOM     29  H   UNL     1       5.590   2.259  16.671  0.00  0.00    +0.000 HD
ENDBRANCH  27  28
BRANCH  27  30
ATOM     30  C   UNL     1       2.825   2.000  17.739  0.00  0.00    +0.000 C 
BRANCH  30  31
ATOM     31  N   UNL     1       1.967   1.905  18.924  0.00  0.00    +0.000 NA
ATOM     32  H   UNL     1       1.622   0.943  18.987  0.00  0.00    +0.000 HD
BRANCH  31  33
ATOM     33  C   UNL     1       0.844   2.854  18.874  0.00  0.00    +0.000 C 
ATOM     34  C   UNL     1       1.082   3.923  17.798  0.00  0.00    +0.000 C 
BRANCH  33  36
ATOM     35  C   UNL     1       1.412   2.700  21.361  0.00  0.00    +0.000 C 
ATOM     36  C   UNL     1       0.694   3.484  20.271  0.00  0.00    +0.000 C 
ENDBRANCH  33  36
ENDBRANCH  31  33
ENDBRANCH  30  31
ENDBRANCH  27  30
ENDBRANCH  26  27
ENDBRANCH  25  26
ENDBRANCH   1  25
TORSDOF 14
ENDMDL
MODEL 8
REMARK VINA RESULT:      -6.9      4.574     10.511
REMARK  Name = 
REMARK  16 active torsions:
REMARK  status: ('A' for Active; 'I' for Inactive)
REMARK    1  A    between atoms: C_1  and  C_2
REMARK    2  A    between atoms: C_2  and  C_3
REMARK    3  A    between atoms: C_3  and  C_4
REMARK    4  A    between atoms: C_3  and  N_5
REMARK    5  A    between atoms: N_5  and  C_6
REMARK    6  A    between atoms: C_6  and  C_7
REMARK    7  A    between atoms: C_7  and  O_8
REMARK    8  A    between atoms: C_7  and  C_9
REMARK    9  A    between atoms: C_9  and  O_10
REMARK   10  A    between atoms: O_10  and  C_11
REMARK   11  A    between atoms: C_14  and  C_15
REMARK   12  A    between atoms: N_17  and  C_18
REMARK   13  A    between atoms: C_18  and  C_19
REMARK   14  A    between atoms: C_19  and  C_20
REMARK   15  A    between atoms: C_23  and  S_24
REMARK   16  A    between atoms: S_24  and  N_25
REMARK                            x       y       z     vdW  Elec       q    Type
REMARK                         _______ _______ _______ _____ _____    ______ ____
ROOT
ATOM      1  C   UNL     1       2.676   6.468  18.528  0.00  0.00    +0.000 A 
ATOM      2  C   UNL     1       2.401   7.767  18.091  0.00  0.00    +0.000 A 
ATOM      3  C   UNL     1       1.827   8.699  18.946  0.00  0.00    +0.000 A 
ATOM      4  C   UNL     1       1.516   8.342  20.257  0.00  0.00    +0.000 A 
ATOM      5  C   UNL     1       1.771   7.040  20.705  0.00  0.00    +0.000 A 
ATOM      6  C   UNL     1       2.357   6.106  19.840  0.00  0.00    +0.000 A 
ENDROOT
BRANCH   4   7
ATOM      7  C   UNL     1       0.855   9.323  21.154  0.00  0.00    +0.000 C 
ATOM      8  O   UNL     1       0.573   9.004  22.296  0.00  0.00    +0.000 OA
ATOM      9  N   UNL     1       0.613  10.566  20.607  0.00  0.00    +0.000 N 
ATOM     10  H   UNL     1       0.950  10.787  19.680  0.00  0.00    +0.000 HD
BRANCH   9  11
ATOM     11  C   UNL     1      -0.097  11.597  21.336  0.00  0.00    +0.000 C 
BRANCH  11  12
ATOM     12  C   UNL     1      -1.089  12.352  20.455  0.00  0.00    +0.000 C 
BRANCH  12  13
ATOM     13  C   UNL     1      -2.413  12.544  21.145  0.00  0.00    +0.000 A 
ATOM     14  C   UNL     1      -3.565  12.801  20.387  0.00  0.00    +0.000 A 
ATOM     15  C   UNL     1      -4.797  12.973  21.012  0.00  0.00    +0.000 A 
ATOM     16  C   UNL     1      -4.875  12.880  22.404  0.00  0.00    +0.000 A 
ATOM     17  C   UNL     1      -3.731  12.654  23.174  0.00  0.00    +0.000 A 
ATOM     18  C   UNL     1      -2.501  12.485  22.542  0.00  0.00    +0.000 A 
BRANCH  16  19
ATOM     19  S   UNL     1      -6.445  13.044  23.209  0.00  0.00    +0.000 S 
ATOM     20  O   UNL     1      -7.415  13.474  22.230  0.00  0.00    +0.000 OA
ATOM     21  O   UNL     1      -6.647  11.897  24.062  0.00  0.00    +0.000 OA
BRANCH  19  22
ATOM     22  N   UNL     1      -6.140  14.347  24.202  0.00  0.00    +0.000 NA
ATOM     23  H   UNL     1      -6.465  14.273  25.161  0.00  0.00    +0.000 HD
ATOM     24  H   UNL     1      -6.040  15.250  23.748  0.00  0.00    +0.000 HD
ENDBRANCH  19  22
ENDBRANCH  16  19
ENDBRANCH  12  13
ENDBRANCH  11  12
ENDBRANCH   9  11
ENDBRANCH   4   7
BRANCH   1  25
ATOM     25  O   UNL     1       3.236   5.496  17.736  0.00  0.00    +0.000 OA
BRANCH  25  26
ATOM     26  C   UNL     1       4.647   5.661  17.497  0.00  0.00    +0.000 C 
BRANCH  26  27
ATOM     27  C   UNL     1       5.413   4.365  17.779  0.00  0.00    +0.000 C 
BRANCH  27  28
ATOM     28  O   UNL     1       5.551   3.597  16.581  0.00  0.00    +0.000 OA
ATOM     29  H   UNL     1       4.647   3.353  16.306  0.00  0.00    +0.000 HD
ENDBRANCH  27  28
BRANCH  27  30
ATOM     30  C   UNL     1       4.690   3.555  18.864  0.00  0.00    +0.000 C 
BRANCH  30  31
ATOM     31  N   UNL     1       3.864   2.493  18.283  0.00  0.00    +0.000 NA
ATOM     32  H   UNL     1       3.507   2.827  17.383  0.00  0.00    +0.000 HD
BRANCH  31  33
ATOM     33  C   UNL     1       2.754   2.105  19.168  0.00  0.00    +0.000 C 
ATOM     34  C   UNL     1       1.413   2.598  18.607  0.00  0.00    +0.000 C 
BRANCH  33  36
ATOM     35  C   UNL     1       1.809   2.685  21.470  0.00  0.00    +0.000 C 
ATOM     36  C   UNL     1       3.033   2.695  20.563  0.00  0.00    +0.000 C 
ENDBRANCH  33  36
ENDBRANCH  31  33
ENDBRANCH  30  31
ENDBRANCH  27  30
ENDBRANCH  26  27
ENDBRANCH  25  26
ENDBRANCH   1  25
TORSDOF 14
ENDMDL
MODEL 9
REMARK VINA RESULT:      -6.9      3.568      9.006
REMARK  Name = 
REMARK  16 active torsions:
REMARK  status: ('A' for Active; 'I' for Inactive)
REMARK    1  A    between atoms: C_1  and  C_2
REMARK    2  A    between atoms: C_2  and  C_3
REMARK    3  A    between atoms: C_3  and  C_4
REMARK    4  A    between atoms: C_3  and  N_5
REMARK    5  A    between atoms: N_5  and  C_6
REMARK    6  A    between atoms: C_6  and  C_7
REMARK    7  A    between atoms: C_7  and  O_8
REMARK    8  A    between atoms: C_7  and  C_9
REMARK    9  A    between atoms: C_9  and  O_10
REMARK   10  A    between atoms: O_10  and  C_11
REMARK   11  A    between atoms: C_14  and  C_15
REMARK   12  A    between atoms: N_17  and  C_18
REMARK   13  A    between atoms: C_18  and  C_19
REMARK   14  A    between atoms: C_19  and  C_20
REMARK   15  A    between atoms: C_23  and  S_24
REMARK   16  A    between atoms: S_24  and  N_25
REMARK                            x       y       z     vdW  Elec       q    Type
REMARK                         _______ _______ _______ _____ _____    ______ ____
ROOT
ATOM      1  C   UNL     1       3.183   7.015  18.505  0.00  0.00    +0.000 A 
ATOM      2  C   UNL     1       2.940   8.025  17.570  0.00  0.00    +0.000 A 
ATOM      3  C   UNL     1       2.014   9.027  17.831  0.00  0.00    +0.000 A 
ATOM      4  C   UNL     1       1.313   9.032  19.035  0.00  0.00    +0.000 A 
ATOM      5  C   UNL     1       1.535   8.018  19.975  0.00  0.00    +0.000 A 
ATOM      6  C   UNL     1       2.475   7.013  19.710  0.00  0.00    +0.000 A 
ENDROOT
BRANCH   4   7
ATOM      7  C   UNL     1       0.287  10.074  19.290  0.00  0.00    +0.000 C 
ATOM      8  O   UNL     1      -0.471  10.407  18.397  0.00  0.00    +0.000 OA
ATOM      9  N   UNL     1       0.268  10.595  20.567  0.00  0.00    +0.000 N 
ATOM     10  H   UNL     1       0.871  10.212  21.281  0.00  0.00    +0.000 HD
BRANCH   9  11
ATOM     11  C   UNL     1      -0.624  11.674  20.939  0.00  0.00    +0.000 C 
BRANCH  11  12
ATOM     12  C   UNL     1       0.101  12.800  21.671  0.00  0.00    +0.000 C 
BRANCH  12  13
ATOM     13  C   UNL     1       0.808  13.723  20.716  0.00  0.00    +0.000 A 
ATOM     14  C   UNL     1       0.093  14.745  20.074  0.00  0.00    +0.000 A 
ATOM     15  C   UNL     1       0.737  15.611  19.194  0.00  0.00    +0.000 A 
ATOM     16  C   UNL     1       2.106  15.455  18.962  0.00  0.00    +0.000 A 
ATOM     17  C   UNL     1       2.824  14.423  19.572  0.00  0.00    +0.000 A 
ATOM     18  C   UNL     1       2.173  13.559  20.450  0.00  0.00    +0.000 A 
BRANCH  16  19
ATOM     19  S   UNL     1       2.949  16.583  17.886  0.00  0.00    +0.000 S 
ATOM     20  O   UNL     1       3.537  15.826  16.806  0.00  0.00    +0.000 OA
ATOM     21  O   UNL     1       2.103  17.733  17.670  0.00  0.00    +0.000 OA
BRANCH  19  22
ATOM     22  N   UNL     1       4.196  17.070  18.879  0.00  0.00    +0.000 NA
ATOM     23  H   UNL     1       3.936  17.432  19.791  0.00  0.00    +0.000 HD
ATOM     24  H   UNL     1       5.052  17.366  18.420  0.00  0.00    +0.000 HD
ENDBRANCH  19  22
ENDBRANCH  16  19
ENDBRANCH  12  13
ENDBRANCH  11  12
ENDBRANCH   9  11
ENDBRANCH   4   7
BRANCH   1  25
ATOM     25  O   UNL     1       4.078   5.991  18.311  0.00  0.00    +0.000 OA
BRANCH  25  26
ATOM     26  C   UNL     1       4.405   5.251  19.503  0.00  0.00    +0.000 C 
BRANCH  26  27
ATOM     27  C   UNL     1       4.835   3.820  19.168  0.00  0.00    +0.000 C 
BRANCH  27  28
ATOM     28  O   UNL     1       6.090   3.825  18.484  0.00  0.00    +0.000 OA
ATOM     29  H   UNL     1       6.232   4.740  18.175  0.00  0.00    +0.000 HD
ENDBRANCH  27  28
BRANCH  27  30
ATOM     30  C   UNL     1       3.756   3.135  18.318  0.00  0.00    +0.000 C 
BRANCH  30  31
ATOM     31  N   UNL     1       2.758   2.460  19.155  0.00  0.00    +0.000 NA
ATOM     32  H   UNL     1       2.805   1.457  18.954  0.00  0.00    +0.000 HD
BRANCH  31  33
ATOM     33  C   UNL     1       1.399   2.971  18.919  0.00  0.00    +0.000 C 
ATOM     34  C   UNL     1       1.386   3.967  17.750  0.00  0.00    +0.000 C 
BRANCH  33  36
ATOM     35  C   UNL     1       1.789   3.307  21.422  0.00  0.00    +0.000 C 
ATOM     36  C   UNL     1       0.907   3.627  20.222  0.00  0.00    +0.000 C 
ENDBRANCH  33  36
ENDBRANCH  31  33
ENDBRANCH  30  31
ENDBRANCH  27  30
ENDBRANCH  26  27
ENDBRANCH  25  26
ENDBRANCH   1  25
TORSDOF 14
ENDMDL
