MODEL 1
REMARK VINA RESULT:      -9.0      0.000      0.000
REMARK  Name = 
REMARK  9 active torsions:
REMARK  status: ('A' for Active; 'I' for Inactive)
REMARK    1  A    between atoms: C_1  and  C_2
REMARK    2  A    between atoms: C_2  and  C_3
REMARK    3  A    between atoms: C_3  and  C_4
REMARK    4  A    between atoms: C_4  and  C_5
REMARK    5  A    between atoms: C_5  and  C_6
REMARK    6  A    between atoms: C_6  and  C_7
REMARK    7  A    between atoms: N_11  and  C_12
REMARK    8  A    between atoms: C_12  and  C_13
REMARK    9  A    between atoms: C_18  and  C_19
REMARK                            x       y       z     vdW  Elec       q    Type
REMARK                         _______ _______ _______ _____ _____    ______ ____
ROOT
ATOM      1  C   UNL     1       2.328   5.578  18.640  0.00  0.00    +0.000 C 
ATOM      2  O   UNL     1       1.630   5.420  19.637  0.00  0.00    +0.000 OA
ATOM      3  N   UNL     1       2.600   6.777  18.006  0.00  0.00    +0.000 N 
ATOM      4  C   UNL     1       2.116   7.942  18.537  0.00  0.00    +0.000 A 
ATOM      5  N   UNL     1       1.617   8.118  19.729  0.00  0.00    +0.000 NA
ATOM      6  C   UNL     1       1.085   9.382  19.854  0.00  0.00    +0.000 A 
ATOM      7  C   UNL     1       1.244  10.174  18.728  0.00  0.00    +0.000 A 
ATOM      8  S   UNL     1       2.125   9.308  17.521  0.00  0.00    +0.000 S 
ATOM      9  H   UNL     1       2.956   6.798  17.056  0.00  0.00    +0.000 HD
ENDROOT
BRANCH   6  10
ATOM     10  C   UNL     1       0.356   9.774  21.066  0.00  0.00    +0.000 A 
ATOM     11  C   UNL     1       0.681   9.123  22.270  0.00  0.00    +0.000 A 
ATOM     12  C   UNL     1       0.049   9.465  23.462  0.00  0.00    +0.000 A 
ATOM     13  C   UNL     1      -0.915  10.467  23.470  0.00  0.00    +0.000 A 
ATOM     14  C   UNL     1      -1.255  11.153  22.296  0.00  0.00    +0.000 A 
ATOM     15  C   UNL     1      -2.223  12.172  22.352  0.00  0.00    +0.000 A 
ATOM     16  C   UNL     1      -2.587  12.886  21.213  0.00  0.00    +0.000 A 
ATOM     17  C   UNL     1      -1.986  12.586  20.001  0.00  0.00    +0.000 A 
ATOM     18  C   UNL     1      -1.027  11.570  19.930  0.00  0.00    +0.000 A 
ATOM     19  C   UNL     1      -0.624  10.821  21.069  0.00  0.00    +0.000 A 
ENDBRANCH   6  10
BRANCH   1  20
ATOM     20  C   UNL     1       2.934   4.366  17.946  0.00  0.00    +0.000 C 
BRANCH  20  25
ATOM     21  C   UNL     1       6.626   5.114  17.664  0.00  0.00    +0.000 C 
ATOM     22  N   UNL     1       6.468   4.098  18.677  0.00  0.00    +0.000 N 
ATOM     23  C   UNL     1       5.151   3.772  18.910  0.00  0.00    +0.000 C 
ATOM     24  O   UNL     1       4.784   3.068  19.830  0.00  0.00    +0.000 OA
ATOM     25  N   UNL     1       4.381   4.421  18.000  0.00  0.00    +0.000 N 
ATOM     26  C   UNL     1       5.143   5.263  17.235  0.00  0.00    +0.000 C 
ATOM     27  O   UNL     1       4.710   5.998  16.364  0.00  0.00    +0.000 OA
ATOM     28  H   UNL     1       7.187   3.782  19.318  0.00  0.00    +0.000 HD
BRANCH  21  29
ATOM     29  C   UNL     1       7.440   4.605  16.460  0.00  0.00    +0.000 C 
BRANCH  29  31
ATOM     30  C   UNL     1       6.888   4.674  13.993  0.00  0.00    +0.000 C 
ATOM     31  C   UNL     1       6.583   4.020  15.332  0.00  0.00    +0.000 C 
ENDBRANCH  29  31
ENDBRANCH  21  29
BRANCH  21  32
ATOM     32  C   UNL     1       7.198   6.419  18.247  0.00  0.00    +0.000 C 
BRANCH  32  33
ATOM     33  C   UNL     1       7.688   7.449  17.227  0.00  0.00    +0.000 C 
ATOM     34  C   UNL     1       8.120   8.731  17.925  0.00  0.00    +0.000 C 
ENDBRANCH  32  33
ENDBRANCH  21  32
ENDBRANCH  20  25
ENDBRANCH   1  20
TORSDOF 7
ENDMDL
MODEL 2
REMARK VINA RESULT:      -8.8      1.021      1.198
REMARK  Name = 
REMARK  9 active torsions:
REMARK  status: ('A' for Active; 'I' for Inactive)
REMARK    1  A    between atoms: C_1  and  C_2
REMARK    2  A    between atoms: C_2  and  C_3
REMARK    3  A    between atoms: C_3  and  C_4
REMARK    4  A    between atoms: C_4  and  C_5
REMARK    5  A    between atoms: C_5  and  C_6
REMARK    6  A    between atoms: C_6  and  C_7
REMARK    7  A    between atoms: N_11  and  C_12
REMARK    8  A    between atoms: C_12  and  C_13
REMARK    9  A    between atoms: C_18  and  C_19
REMARK                            x       y       z     vdW  Elec       q    Type
REMARK                         _______ _______ _______ _____ _____    ______ ____
ROOT
ATOM      1  C   UNL     1       2.453   5.131  19.693  0.00  0.00    +0.000 C 
ATOM      2  O   UNL     1       1.673   5.170  20.639  0.00  0.00    +0.000 OA
ATOM      3  N   UNL     1       2.785   6.181  18.855  0.00  0.00    +0.000 N 
ATOM      4  C   UNL     1       2.266   7.424  19.098  0.00  0.00    +0.000 A 
ATOM      5  N   UNL     1       1.671   7.830  20.183  0.00  0.00    +0.000 NA
ATOM      6  C   UNL     1       1.138   9.088  20.007  0.00  0.00    +0.000 A 
ATOM      7  C   UNL     1       1.396   9.639  18.761  0.00  0.00    +0.000 A 
ATOM      8  S   UNL     1       2.369   8.556  17.831  0.00  0.00    +0.000 S 
ATOM      9  H   UNL     1       3.220   6.013  17.953  0.00  0.00    +0.000 HD
ENDROOT
BRANCH   6  10
ATOM     10  C   UNL     1       0.312   9.709  21.049  0.00  0.00    +0.000 A 
ATOM     11  C   UNL     1       0.459   9.245  22.369  0.00  0.00    +0.000 A 
ATOM     12  C   UNL     1      -0.272   9.807  23.411  0.00  0.00    +0.000 A 
ATOM     13  C   UNL     1      -1.157  10.847  23.151  0.00  0.00    +0.000 A 
ATOM     14  C   UNL     1      -1.319  11.351  21.854  0.00  0.00    +0.000 A 
ATOM     15  C   UNL     1      -2.213  12.416  21.638  0.00  0.00    +0.000 A 
ATOM     16  C   UNL     1      -2.400  12.956  20.368  0.00  0.00    +0.000 A 
ATOM     17  C   UNL     1      -1.695  12.433  19.295  0.00  0.00    +0.000 A 
ATOM     18  C   UNL     1      -0.809  11.370  19.495  0.00  0.00    +0.000 A 
ATOM     19  C   UNL     1      -0.585  10.793  20.775  0.00  0.00    +0.000 A 
ENDBRANCH   6  10
BRANCH   1  20
ATOM     20  C   UNL     1       3.107   3.810  19.310  0.00  0.00    +0.000 C 
BRANCH  20  25
ATOM     21  C   UNL     1       5.648   4.591  16.626  0.00  0.00    +0.000 C 
ATOM     22  N   UNL     1       6.364   4.462  17.873  0.00  0.00    +0.000 N 
ATOM     23  C   UNL     1       5.535   4.224  18.946  0.00  0.00    +0.000 C 
ATOM     24  O   UNL     1       5.907   4.248  20.103  0.00  0.00    +0.000 OA
ATOM     25  N   UNL     1       4.272   4.043  18.481  0.00  0.00    +0.000 N 
ATOM     26  C   UNL     1       4.218   4.266  17.131  0.00  0.00    +0.000 C 
ATOM     27  O   UNL     1       3.206   4.211  16.455  0.00  0.00    +0.000 OA
ATOM     28  H   UNL     1       7.333   4.714  18.031  0.00  0.00    +0.000 HD
BRANCH  21  29
ATOM     29  C   UNL     1       6.069   3.515  15.607  0.00  0.00    +0.000 C 
BRANCH  29  31
ATOM     30  C   UNL     1       5.676   3.618  13.111  0.00  0.00    +0.000 C 
ATOM     31  C   UNL     1       6.550   4.082  14.267  0.00  0.00    +0.000 C 
ENDBRANCH  29  31
ENDBRANCH  21  29
BRANCH  21  32
ATOM     32  C   UNL     1       5.754   6.015  16.051  0.00  0.00    +0.000 C 
BRANCH  32  33
ATOM     33  C   UNL     1       5.916   7.139  17.077  0.00  0.00    +0.000 C 
ATOM     34  C   UNL     1       7.387   7.476  17.274  0.00  0.00    +0.000 C 
ENDBRANCH  32  33
ENDBRANCH  21  32
ENDBRANCH  20  25
ENDBRANCH   1  20
TORSDOF 7
ENDMDL
MODEL 3
REMARK VINA RESULT:      -8.7      4.209     10.271
REMARK  Name = 
REMARK  9 active torsions:
REMARK  status: ('A' for Active; 'I' for Inactive)
REMARK    1  A    between atoms: C_1  and  C_2
REMARK    2  A    between atoms: C_2  and  C_3
REMARK    3  A    between atoms: C_3  and  C_4
REMARK    4  A    between atoms: C_4  and  C_5
REMARK    5  A    between atoms: C_5  and  C_6
REMARK    6  A    between atoms: C_6  and  C_7
REMARK    7  A    between atoms: N_11  and  C_12
REMARK    8  A    between atoms: C_12  and  C_13
REMARK    9  A    between atoms: C_18  and  C_19
REMARK                            x       y       z     vdW  Elec       q    Type
REMARK                         _______ _______ _______ _____ _____    ______ ____
ROOT
ATOM      1  C   UNL     1      -0.681  10.832  18.381  0.00  0.00    +0.000 C 
ATOM      2  O   UNL     1      -0.530  10.035  17.459  0.00  0.00    +0.000 OA
ATOM      3  N   UNL     1      -0.177  10.712  19.664  0.00  0.00    +0.000 N 
ATOM      4  C   UNL     1       0.628   9.649  19.972  0.00  0.00    +0.000 A 
ATOM      5  N   UNL     1       1.204   8.829  19.139  0.00  0.00    +0.000 NA
ATOM      6  C   UNL     1       1.804   7.788  19.813  0.00  0.00    +0.000 A 
ATOM      7  C   UNL     1       1.702   7.879  21.192  0.00  0.00    +0.000 A 
ATOM      8  S   UNL     1       0.876   9.332  21.626  0.00  0.00    +0.000 S 
ATOM      9  H   UNL     1      -0.556  11.261  20.428  0.00  0.00    +0.000 HD
ENDROOT
BRANCH   6  10
ATOM     10  C   UNL     1       2.412   6.670  19.083  0.00  0.00    +0.000 A 
ATOM     11  C   UNL     1       3.326   6.972  18.056  0.00  0.00    +0.000 A 
ATOM     12  C   UNL     1       3.960   5.961  17.342  0.00  0.00    +0.000 A 
ATOM     13  C   UNL     1       3.697   4.630  17.647  0.00  0.00    +0.000 A 
ATOM     14  C   UNL     1       2.808   4.286  18.674  0.00  0.00    +0.000 A 
ATOM     15  C   UNL     1       2.583   2.927  18.961  0.00  0.00    +0.000 A 
ATOM     16  C   UNL     1       1.715   2.537  19.977  0.00  0.00    +0.000 A 
ATOM     17  C   UNL     1       1.058   3.506  20.720  0.00  0.00    +0.000 A 
ATOM     18  C   UNL     1       1.267   4.860  20.441  0.00  0.00    +0.000 A 
ATOM     19  C   UNL     1       2.148   5.300  19.416  0.00  0.00    +0.000 A 
ENDBRANCH   6  10
BRANCH   1  20
ATOM     20  C   UNL     1      -1.553  12.063  18.177  0.00  0.00    +0.000 C 
BRANCH  20  25
ATOM     21  C   UNL     1      -5.271  11.399  18.159  0.00  0.00    +0.000 C 
ATOM     22  N   UNL     1      -4.764  11.046  16.855  0.00  0.00    +0.000 N 
ATOM     23  C   UNL     1      -3.416  11.291  16.718  0.00  0.00    +0.000 C 
ATOM     24  O   UNL     1      -2.823  11.225  15.659  0.00  0.00    +0.000 OA
ATOM     25  N   UNL     1      -2.926  11.677  17.924  0.00  0.00    +0.000 N 
ATOM     26  C   UNL     1      -3.937  11.803  18.838  0.00  0.00    +0.000 C 
ATOM     27  O   UNL     1      -3.793  12.170  19.991  0.00  0.00    +0.000 OA
ATOM     28  H   UNL     1      -5.324  10.837  16.036  0.00  0.00    +0.000 HD
BRANCH  21  29
ATOM     29  C   UNL     1      -5.854  10.181  18.899  0.00  0.00    +0.000 C 
BRANCH  29  31
ATOM     30  C   UNL     1      -7.594   9.275  20.495  0.00  0.00    +0.000 C 
ATOM     31  C   UNL     1      -7.069  10.507  19.774  0.00  0.00    +0.000 C 
ENDBRANCH  29  31
ENDBRANCH  21  29
BRANCH  21  32
ATOM     32  C   UNL     1      -6.266  12.572  18.087  0.00  0.00    +0.000 C 
BRANCH  32  33
ATOM     33  C   UNL     1      -6.645  13.041  16.680  0.00  0.00    +0.000 C 
ATOM     34  C   UNL     1      -7.178  14.467  16.717  0.00  0.00    +0.000 C 
ENDBRANCH  32  33
ENDBRANCH  21  32
ENDBRANCH  20  25
ENDBRANCH   1  20
TORSDOF 7
ENDMDL
MODEL 4
REMARK VINA RESULT:      -8.2      3.212      5.352
REMARK  Name = 
REMARK  9 active torsions:
REMARK  status: ('A' for Active; 'I' for Inactive)
REMARK    1  A    between atoms: C_1  and  C_2
REMARK    2  A    between atoms: C_2  and  C_3
REMARK    3  A    between atoms: C_3  and  C_4
REMARK    4  A    between atoms: C_4  and  C_5
REMARK    5  A    between atoms: C_5  and  C_6
REMARK    6  A    between atoms: C_6  and  C_7
REMARK    7  A    between atoms: N_11  and  C_12
REMARK    8  A    between atoms: C_12  and  C_13
REMARK    9  A    between atoms: C_18  and  C_19
REMARK                            x       y       z     vdW  Elec       q    Type
REMARK                         _______ _______ _______ _____ _____    ______ ____
ROOT
ATOM      1  C   UNL     1      -0.035  10.396  19.069  0.00  0.00    +0.000 C 
ATOM      2  O   UNL     1      -0.683  10.339  20.110  0.00  0.00    +0.000 OA
ATOM      3  N   UNL     1      -0.537  10.603  17.796  0.00  0.00    +0.000 N 
ATOM      4  C   UNL     1      -1.877  10.831  17.632  0.00  0.00    +0.000 A 
ATOM      5  N   UNL     1      -2.744  11.131  18.558  0.00  0.00    +0.000 NA
ATOM      6  C   UNL     1      -4.023  11.129  18.047  0.00  0.00    +0.000 A 
ATOM      7  C   UNL     1      -4.087  10.866  16.688  0.00  0.00    +0.000 A 
ATOM      8  S   UNL     1      -2.492  10.668  16.053  0.00  0.00    +0.000 S 
ATOM      9  H   UNL     1       0.013  10.376  16.974  0.00  0.00    +0.000 HD
ENDROOT
BRANCH   6  10
ATOM     10  C   UNL     1      -5.184  11.316  18.926  0.00  0.00    +0.000 A 
ATOM     11  C   UNL     1      -6.287  10.460  18.751  0.00  0.00    +0.000 A 
ATOM     12  C   UNL     1      -7.409  10.564  19.567  0.00  0.00    +0.000 A 
ATOM     13  C   UNL     1      -7.445  11.520  20.575  0.00  0.00    +0.000 A 
ATOM     14  C   UNL     1      -6.360  12.380  20.795  0.00  0.00    +0.000 A 
ATOM     15  C   UNL     1      -6.431  13.322  21.837  0.00  0.00    +0.000 A 
ATOM     16  C   UNL     1      -5.374  14.191  22.098  0.00  0.00    +0.000 A 
ATOM     17  C   UNL     1      -4.232  14.129  21.315  0.00  0.00    +0.000 A 
ATOM     18  C   UNL     1      -4.152  13.202  20.271  0.00  0.00    +0.000 A 
ATOM     19  C   UNL     1      -5.205  12.294  19.975  0.00  0.00    +0.000 A 
ENDBRANCH   6  10
BRANCH   1  20
ATOM     20  C   UNL     1       1.469  10.163  19.104  0.00  0.00    +0.000 C 
BRANCH  20  25
ATOM     21  C   UNL     1       2.570   6.569  18.733  0.00  0.00    +0.000 C 
ATOM     22  N   UNL     1       2.079   6.732  20.080  0.00  0.00    +0.000 N 
ATOM     23  C   UNL     1       1.690   8.023  20.357  0.00  0.00    +0.000 C 
ATOM     24  O   UNL     1       1.404   8.416  21.471  0.00  0.00    +0.000 OA
ATOM     25  N   UNL     1       1.760   8.748  19.211  0.00  0.00    +0.000 N 
ATOM     26  C   UNL     1       2.294   7.998  18.198  0.00  0.00    +0.000 C 
ATOM     27  O   UNL     1       2.508   8.403  17.069  0.00  0.00    +0.000 OA
ATOM     28  H   UNL     1       2.182   6.063  20.835  0.00  0.00    +0.000 HD
BRANCH  21  29
ATOM     29  C   UNL     1       1.721   5.567  17.928  0.00  0.00    +0.000 C 
BRANCH  29  31
ATOM     30  C   UNL     1       2.159   3.078  17.820  0.00  0.00    +0.000 C 
ATOM     31  C   UNL     1       1.536   4.212  18.620  0.00  0.00    +0.000 C 
ENDBRANCH  29  31
ENDBRANCH  21  29
BRANCH  21  32
ATOM     32  C   UNL     1       4.069   6.217  18.710  0.00  0.00    +0.000 C 
BRANCH  32  33
ATOM     33  C   UNL     1       4.646   5.840  17.343  0.00  0.00    +0.000 C 
ATOM     34  C   UNL     1       5.830   6.733  16.998  0.00  0.00    +0.000 C 
ENDBRANCH  32  33
ENDBRANCH  21  32
ENDBRANCH  20  25
ENDBRANCH   1  20
TORSDOF 7
ENDMDL
MODEL 5
REMARK VINA RESULT:      -8.1      2.538      5.111
REMARK  Name = 
REMARK  9 active torsions:
REMARK  status: ('A' for Active; 'I' for Inactive)
REMARK    1  A    between atoms: C_1  and  C_2
REMARK    2  A    between atoms: C_2  and  C_3
REMARK    3  A    between atoms: C_3  and  C_4
REMARK    4  A    between atoms: C_4  and  C_5
REMARK    5  A    between atoms: C_5  and  C_6
REMARK    6  A    between atoms: C_6  and  C_7
REMARK    7  A    between atoms: N_11  and  C_12
REMARK    8  A    between atoms: C_12  and  C_13
REMARK    9  A    between atoms: C_18  and  C_19
REMARK                            x       y       z     vdW  Elec       q    Type
REMARK                         _______ _______ _______ _____ _____    ______ ____
ROOT
ATOM      1  C   UNL     1       0.632   9.058  20.461  0.00  0.00    +0.000 C 
ATOM      2  O   UNL     1      -0.483   8.552  20.390  0.00  0.00    +0.000 OA
ATOM      3  N   UNL     1       0.973  10.354  20.115  0.00  0.00    +0.000 N 
ATOM      4  C   UNL     1      -0.006  11.217  19.702  0.00  0.00    +0.000 A 
ATOM      5  N   UNL     1      -1.295  11.062  19.820  0.00  0.00    +0.000 NA
ATOM      6  C   UNL     1      -1.970  12.056  19.148  0.00  0.00    +0.000 A 
ATOM      7  C   UNL     1      -1.142  12.999  18.559  0.00  0.00    +0.000 A 
ATOM      8  S   UNL     1       0.508  12.634  18.911  0.00  0.00    +0.000 S 
ATOM      9  H   UNL     1       1.940  10.614  19.950  0.00  0.00    +0.000 HD
ENDROOT
BRANCH   6  10
ATOM     10  C   UNL     1      -3.432  12.027  19.032  0.00  0.00    +0.000 A 
ATOM     11  C   UNL     1      -3.988  11.545  17.832  0.00  0.00    +0.000 A 
ATOM     12  C   UNL     1      -5.367  11.463  17.664  0.00  0.00    +0.000 A 
ATOM     13  C   UNL     1      -6.213  11.855  18.695  0.00  0.00    +0.000 A 
ATOM     14  C   UNL     1      -5.701  12.321  19.913  0.00  0.00    +0.000 A 
ATOM     15  C   UNL     1      -6.592  12.691  20.937  0.00  0.00    +0.000 A 
ATOM     16  C   UNL     1      -6.129  13.153  22.166  0.00  0.00    +0.000 A 
ATOM     17  C   UNL     1      -4.764  13.252  22.386  0.00  0.00    +0.000 A 
ATOM     18  C   UNL     1      -3.867  12.895  21.374  0.00  0.00    +0.000 A 
ATOM     19  C   UNL     1      -4.298  12.415  20.107  0.00  0.00    +0.000 A 
ENDBRANCH   6  10
BRANCH   1  20
ATOM     20  C   UNL     1       1.817   8.212  20.908  0.00  0.00    +0.000 C 
BRANCH  20  25
ATOM     21  C   UNL     1       2.677   5.399  18.538  0.00  0.00    +0.000 C 
ATOM     22  N   UNL     1       2.871   6.638  17.825  0.00  0.00    +0.000 N 
ATOM     23  C   UNL     1       2.541   7.746  18.572  0.00  0.00    +0.000 C 
ATOM     24  O   UNL     1       2.469   8.870  18.115  0.00  0.00    +0.000 OA
ATOM     25  N   UNL     1       2.251   7.341  19.835  0.00  0.00    +0.000 N 
ATOM     26  C   UNL     1       2.271   5.974  19.920  0.00  0.00    +0.000 C 
ATOM     27  O   UNL     1       2.013   5.334  20.924  0.00  0.00    +0.000 OA
ATOM     28  H   UNL     1       3.029   6.731  16.827  0.00  0.00    +0.000 HD
BRANCH  21  29
ATOM     29  C   UNL     1       3.993   4.614  18.696  0.00  0.00    +0.000 C 
BRANCH  29  31
ATOM     30  C   UNL     1       5.014   3.949  16.481  0.00  0.00    +0.000 C 
ATOM     31  C   UNL     1       5.045   4.943  17.632  0.00  0.00    +0.000 C 
ENDBRANCH  29  31
ENDBRANCH  21  29
BRANCH  21  32
ATOM     32  C   UNL     1       1.560   4.547  17.910  0.00  0.00    +0.000 C 
BRANCH  32  33
ATOM     33  C   UNL     1       1.732   3.030  18.023  0.00  0.00    +0.000 C 
ATOM     34  C   UNL     1       0.792   2.463  19.079  0.00  0.00    +0.000 C 
ENDBRANCH  32  33
ENDBRANCH  21  32
ENDBRANCH  20  25
ENDBRANCH   1  20
TORSDOF 7
ENDMDL
MODEL 6
REMARK VINA RESULT:      -8.1      2.805      5.175
REMARK  Name = 
REMARK  9 active torsions:
REMARK  status: ('A' for Active; 'I' for Inactive)
REMARK    1  A    between atoms: C_1  and  C_2
REMARK    2  A    between atoms: C_2  and  C_3
REMARK    3  A    between atoms: C_3  and  C_4
REMARK    4  A    between atoms: C_4  and  C_5
REMARK    5  A    between atoms: C_5  and  C_6
REMARK    6  A    between atoms: C_6  and  C_7
REMARK    7  A    between atoms: N_11  and  C_12
REMARK    8  A    between atoms: C_12  and  C_13
REMARK    9  A    between atoms: C_18  and  C_19
REMARK                            x       y       z     vdW  Elec       q    Type
REMARK                         _______ _______ _______ _____ _____    ______ ____
ROOT
ATOM      1  C   UNL     1       0.814  10.023  18.657  0.00  0.00    +0.000 C 
ATOM      2  O   UNL     1      -0.292   9.662  18.264  0.00  0.00    +0.000 OA
ATOM      3  N   UNL     1       1.087  11.117  19.459  0.00  0.00    +0.000 N 
ATOM      4  C   UNL     1       0.051  11.871  19.940  0.00  0.00    +0.000 A 
ATOM      5  N   UNL     1      -1.214  11.558  19.948  0.00  0.00    +0.000 NA
ATOM      6  C   UNL     1      -1.979  12.627  20.362  0.00  0.00    +0.000 A 
ATOM      7  C   UNL     1      -1.239  13.745  20.714  0.00  0.00    +0.000 A 
ATOM      8  S   UNL     1       0.447  13.406  20.560  0.00  0.00    +0.000 S 
ATOM      9  H   UNL     1       2.025  11.499  19.520  0.00  0.00    +0.000 HD
ENDROOT
BRANCH   6  10
ATOM     10  C   UNL     1      -3.444  12.558  20.336  0.00  0.00    +0.000 A 
ATOM     11  C   UNL     1      -4.069  12.278  19.107  0.00  0.00    +0.000 A 
ATOM     12  C   UNL     1      -5.453  12.171  19.015  0.00  0.00    +0.000 A 
ATOM     13  C   UNL     1      -6.235  12.335  20.153  0.00  0.00    +0.000 A 
ATOM     14  C   UNL     1      -5.652  12.595  21.400  0.00  0.00    +0.000 A 
ATOM     15  C   UNL     1      -6.479  12.737  22.529  0.00  0.00    +0.000 A 
ATOM     16  C   UNL     1      -5.944  12.988  23.790  0.00  0.00    +0.000 A 
ATOM     17  C   UNL     1      -4.571  13.102  23.936  0.00  0.00    +0.000 A 
ATOM     18  C   UNL     1      -3.737  12.971  22.821  0.00  0.00    +0.000 A 
ATOM     19  C   UNL     1      -4.242  12.710  21.518  0.00  0.00    +0.000 A 
ENDBRANCH   6  10
BRANCH   1  20
ATOM     20  C   UNL     1       2.057   9.272  18.200  0.00  0.00    +0.000 C 
BRANCH  20  25
ATOM     21  C   UNL     1       2.734   5.752  19.392  0.00  0.00    +0.000 C 
ATOM     22  N   UNL     1       2.137   6.472  20.491  0.00  0.00    +0.000 N 
ATOM     23  C   UNL     1       1.887   7.793  20.196  0.00  0.00    +0.000 C 
ATOM     24  O   UNL     1       1.545   8.616  21.022  0.00  0.00    +0.000 OA
ATOM     25  N   UNL     1       2.158   7.997  18.881  0.00  0.00    +0.000 N 
ATOM     26  C   UNL     1       2.691   6.869  18.317  0.00  0.00    +0.000 C 
ATOM     27  O   UNL     1       3.063   6.777  17.161  0.00  0.00    +0.000 OA
ATOM     28  H   UNL     1       2.081   6.151  21.452  0.00  0.00    +0.000 HD
BRANCH  21  29
ATOM     29  C   UNL     1       1.849   4.581  18.924  0.00  0.00    +0.000 C 
BRANCH  29  31
ATOM     30  C   UNL     1       1.635   2.614  20.499  0.00  0.00    +0.000 C 
ATOM     31  C   UNL     1       1.030   3.934  20.045  0.00  0.00    +0.000 C 
ENDBRANCH  29  31
ENDBRANCH  21  29
BRANCH  21  32
ATOM     32  C   UNL     1       4.172   5.307  19.714  0.00  0.00    +0.000 C 
BRANCH  32  33
ATOM     33  C   UNL     1       4.756   4.225  18.803  0.00  0.00    +0.000 C 
ATOM     34  C   UNL     1       6.093   4.673  18.228  0.00  0.00    +0.000 C 
ENDBRANCH  32  33
ENDBRANCH  21  32
ENDBRANCH  20  25
ENDBRANCH   1  20
TORSDOF 7
ENDMDL
MODEL 7
REMARK VINA RESULT:      -8.1      3.695     10.335
REMARK  Name = 
REMARK  9 active torsions:
REMARK  status: ('A' for Active; 'I' for Inactive)
REMARK    1  A    between atoms: C_1  and  C_2
REMARK    2  A    between atoms: C_2  and  C_3
REMARK    3  A    between atoms: C_3  and  C_4
REMARK    4  A    between atoms: C_4  and  C_5
REMARK    5  A    between atoms: C_5  and  C_6
REMARK    6  A    between atoms: C_6  and  C_7
REMARK    7  A    between atoms: N_11  and  C_12
REMARK    8  A    between atoms: C_12  and  C_13
REMARK    9  A    between atoms: C_18  and  C_19
REMARK                            x       y       z     vdW  Elec       q    Type
REMARK                         _______ _______ _______ _____ _____    ______ ____
ROOT
ATOM      1  C   UNL     1      -0.281  11.189  18.749  0.00  0.00    +0.000 C 
ATOM      2  O   UNL     1      -0.148  10.475  17.759  0.00  0.00    +0.000 OA
ATOM      3  N   UNL     1       0.147  10.905  20.033  0.00  0.00    +0.000 N 
ATOM      4  C   UNL     1       0.847   9.752  20.268  0.00  0.00    +0.000 A 
ATOM      5  N   UNL     1       1.396   8.969  19.382  0.00  0.00    +0.000 NA
ATOM      6  C   UNL     1       1.874   7.822  19.974  0.00  0.00    +0.000 A 
ATOM      7  C   UNL     1       1.711   7.788  21.350  0.00  0.00    +0.000 A 
ATOM      8  S   UNL     1       0.984   9.258  21.891  0.00  0.00    +0.000 S 
ATOM      9  H   UNL     1      -0.225  11.408  20.832  0.00  0.00    +0.000 HD
ENDROOT
BRANCH   6  10
ATOM     10  C   UNL     1       2.426   6.730  19.163  0.00  0.00    +0.000 A 
ATOM     11  C   UNL     1       3.305   7.066  18.117  0.00  0.00    +0.000 A 
ATOM     12  C   UNL     1       3.887   6.081  17.326  0.00  0.00    +0.000 A 
ATOM     13  C   UNL     1       3.604   4.742  17.571  0.00  0.00    +0.000 A 
ATOM     14  C   UNL     1       2.749   4.363  18.615  0.00  0.00    +0.000 A 
ATOM     15  C   UNL     1       2.503   2.996  18.839  0.00  0.00    +0.000 A 
ATOM     16  C   UNL     1       1.667   2.572  19.869  0.00  0.00    +0.000 A 
ATOM     17  C   UNL     1       1.063   3.515  20.687  0.00  0.00    +0.000 A 
ATOM     18  C   UNL     1       1.293   4.876  20.471  0.00  0.00    +0.000 A 
ATOM     19  C   UNL     1       2.143   5.351  19.434  0.00  0.00    +0.000 A 
ENDBRANCH   6  10
BRANCH   1  20
ATOM     20  C   UNL     1      -1.038  12.505  18.632  0.00  0.00    +0.000 C 
BRANCH  20  25
ATOM     21  C   UNL     1      -3.116  13.290  21.687  0.00  0.00    +0.000 C 
ATOM     22  N   UNL     1      -3.950  12.538  20.779  0.00  0.00    +0.000 N 
ATOM     23  C   UNL     1      -3.317  12.232  19.597  0.00  0.00    +0.000 C 
ATOM     24  O   UNL     1      -3.883  11.754  18.633  0.00  0.00    +0.000 OA
ATOM     25  N   UNL     1      -2.019  12.621  19.691  0.00  0.00    +0.000 N 
ATOM     26  C   UNL     1      -1.798  13.282  20.869  0.00  0.00    +0.000 C 
ATOM     27  O   UNL     1      -0.735  13.774  21.204  0.00  0.00    +0.000 OA
ATOM     28  H   UNL     1      -4.952  12.407  20.864  0.00  0.00    +0.000 HD
BRANCH  21  29
ATOM     29  C   UNL     1      -2.882  12.537  23.010  0.00  0.00    +0.000 C 
BRANCH  29  31
ATOM     30  C   UNL     1      -4.808  12.361  24.639  0.00  0.00    +0.000 C 
ATOM     31  C   UNL     1      -3.588  13.165  24.216  0.00  0.00    +0.000 C 
ENDBRANCH  29  31
ENDBRANCH  21  29
BRANCH  21  32
ATOM     32  C   UNL     1      -3.655  14.714  21.911  0.00  0.00    +0.000 C 
BRANCH  32  33
ATOM     33  C   UNL     1      -4.984  15.042  21.227  0.00  0.00    +0.000 C 
ATOM     34  C   UNL     1      -6.113  15.092  22.247  0.00  0.00    +0.000 C 
ENDBRANCH  32  33
ENDBRANCH  21  32
ENDBRANCH  20  25
ENDBRANCH   1  20
TORSDOF 7
ENDMDL
MODEL 8
REMARK VINA RESULT:      -8.0      2.527      5.127
REMARK  Name = 
REMARK  9 active torsions:
REMARK  status: ('A' for Active; 'I' for Inactive)
REMARK    1  A    between atoms: C_1  and  C_2
REMARK    2  A    between atoms: C_2  and  C_3
REMARK    3  A    between atoms: C_3  and  C_4
REMARK    4  A    between atoms: C_4  and  C_5
REMARK    5  A    between atoms: C_5  and  C_6
REMARK    6  A    between atoms: C_6  and  C_7
REMARK    7  A    between atoms: N_11  and  C_12
REMARK    8  A    between atoms: C_12  and  C_13
REMARK    9  A    between atoms: C_18  and  C_19
REMARK                            x       y       z     vdW  Elec       q    Type
REMARK                         _______ _______ _______ _____ _____    ______ ____
ROOT
ATOM      1  C   UNL     1       0.645   9.073  21.040  0.00  0.00    +0.000 C 
ATOM      2  O   UNL     1      -0.503   8.646  20.952  0.00  0.00    +0.000 OA
ATOM      3  N   UNL     1       1.046  10.391  20.913  0.00  0.00    +0.000 N 
ATOM      4  C   UNL     1       0.102  11.365  20.730  0.00  0.00    +0.000 A 
ATOM      5  N   UNL     1      -1.185  11.257  20.903  0.00  0.00    +0.000 NA
ATOM      6  C   UNL     1      -1.833  12.392  20.469  0.00  0.00    +0.000 A 
ATOM      7  C   UNL     1      -0.982  13.384  20.008  0.00  0.00    +0.000 A 
ATOM      8  S   UNL     1       0.659  12.876  20.178  0.00  0.00    +0.000 S 
ATOM      9  H   UNL     1       2.017  10.627  20.736  0.00  0.00    +0.000 HD
ENDROOT
BRANCH   6  10
ATOM     10  C   UNL     1      -3.299  12.459  20.445  0.00  0.00    +0.000 A 
ATOM     11  C   UNL     1      -3.948  12.248  19.215  0.00  0.00    +0.000 A 
ATOM     12  C   UNL     1      -5.337  12.270  19.125  0.00  0.00    +0.000 A 
ATOM     13  C   UNL     1      -6.099  12.497  20.266  0.00  0.00    +0.000 A 
ATOM     14  C   UNL     1      -5.493  12.692  21.514  0.00  0.00    +0.000 A 
ATOM     15  C   UNL     1      -6.302  12.901  22.646  0.00  0.00    +0.000 A 
ATOM     16  C   UNL     1      -5.744  13.092  23.907  0.00  0.00    +0.000 A 
ATOM     17  C   UNL     1      -4.366  13.078  24.051  0.00  0.00    +0.000 A 
ATOM     18  C   UNL     1      -3.550  12.878  22.934  0.00  0.00    +0.000 A 
ATOM     19  C   UNL     1      -4.078  12.675  21.630  0.00  0.00    +0.000 A 
ENDBRANCH   6  10
BRANCH   1  20
ATOM     20  C   UNL     1       1.797   8.098  21.246  0.00  0.00    +0.000 C 
BRANCH  20  25
ATOM     21  C   UNL     1       2.550   5.753  18.383  0.00  0.00    +0.000 C 
ATOM     22  N   UNL     1       2.456   7.085  17.836  0.00  0.00    +0.000 N 
ATOM     23  C   UNL     1       2.133   8.032  18.780  0.00  0.00    +0.000 C 
ATOM     24  O   UNL     1       1.841   9.181  18.511  0.00  0.00    +0.000 OA
ATOM     25  N   UNL     1       2.131   7.438  20.001  0.00  0.00    +0.000 N 
ATOM     26  C   UNL     1       2.336   6.089  19.882  0.00  0.00    +0.000 C 
ATOM     27  O   UNL     1       2.346   5.301  20.810  0.00  0.00    +0.000 OA
ATOM     28  H   UNL     1       2.415   7.321  16.850  0.00  0.00    +0.000 HD
BRANCH  21  29
ATOM     29  C   UNL     1       3.960   5.157  18.207  0.00  0.00    +0.000 C 
BRANCH  29  31
ATOM     30  C   UNL     1       5.112   4.357  16.103  0.00  0.00    +0.000 C 
ATOM     31  C   UNL     1       4.649   5.566  16.901  0.00  0.00    +0.000 C 
ENDBRANCH  29  31
ENDBRANCH  21  29
BRANCH  21  32
ATOM     32  C   UNL     1       1.451   4.828  17.830  0.00  0.00    +0.000 C 
BRANCH  32  33
ATOM     33  C   UNL     1       1.763   3.330  17.854  0.00  0.00    +0.000 C 
ATOM     34  C   UNL     1       0.909   2.623  18.898  0.00  0.00    +0.000 C 
ENDBRANCH  32  33
ENDBRANCH  21  32
ENDBRANCH  20  25
ENDBRANCH   1  20
TORSDOF 7
ENDMDL
MODEL 9
REMARK VINA RESULT:      -8.0      2.859      9.613
REMARK  Name = 
REMARK  9 active torsions:
REMARK  status: ('A' for Active; 'I' for Inactive)
REMARK    1  A    between atoms: C_1  and  C_2
REMARK    2  A    between atoms: C_2  and  C_3
REMARK    3  A    between atoms: C_3  and  C_4
REMARK    4  A    between atoms: C_4  and  C_5
REMARK    5  A    between atoms: C_5  and  C_6
REMARK    6  A    between atoms: C_6  and  C_7
REMARK    7  A    between atoms: N_11  and  C_12
REMARK    8  A    between atoms: C_12  and  C_13
REMARK    9  A    between atoms: C_18  and  C_19
REMARK                            x       y       z     vdW  Elec       q    Type
REMARK                         _______ _______ _______ _____ _____    ______ ____
ROOT
ATOM      1  C   UNL     1       1.618  10.132  18.431  0.00  0.00    +0.000 C 
ATOM      2  O   UNL     1       1.923   9.528  17.407  0.00  0.00    +0.000 OA
ATOM      3  N   UNL     1       1.451   9.586  19.691  0.00  0.00    +0.000 N 
ATOM      4  C   UNL     1       1.697   8.253  19.883  0.00  0.00    +0.000 A 
ATOM      5  N   UNL     1       2.318   7.442  19.073  0.00  0.00    +0.000 NA
ATOM      6  C   UNL     1       2.235   6.144  19.524  0.00  0.00    +0.000 A 
ATOM      7  C   UNL     1       1.570   6.009  20.732  0.00  0.00    +0.000 A 
ATOM      8  S   UNL     1       1.092   7.563  21.316  0.00  0.00    +0.000 S 
ATOM      9  H   UNL     1       0.950  10.089  20.416  0.00  0.00    +0.000 HD
ENDROOT
BRANCH   6  10
ATOM     10  C   UNL     1       2.752   5.032  18.717  0.00  0.00    +0.000 A 
ATOM     11  C   UNL     1       2.238   3.746  18.961  0.00  0.00    +0.000 A 
ATOM     12  C   UNL     1       2.663   2.651  18.215  0.00  0.00    +0.000 A 
ATOM     13  C   UNL     1       3.604   2.826  17.207  0.00  0.00    +0.000 A 
ATOM     14  C   UNL     1       4.128   4.094  16.918  0.00  0.00    +0.000 A 
ATOM     15  C   UNL     1       5.066   4.229  15.879  0.00  0.00    +0.000 A 
ATOM     16  C   UNL     1       5.607   5.470  15.551  0.00  0.00    +0.000 A 
ATOM     17  C   UNL     1       5.215   6.593  16.263  0.00  0.00    +0.000 A 
ATOM     18  C   UNL     1       4.290   6.471  17.303  0.00  0.00    +0.000 A 
ATOM     19  C   UNL     1       3.710   5.225  17.667  0.00  0.00    +0.000 A 
ENDBRANCH   6  10
BRANCH   1  20
ATOM     20  C   UNL     1       1.319  11.624  18.364  0.00  0.00    +0.000 C 
BRANCH  20  25
ATOM     21  C   UNL     1      -1.069  12.745  21.068  0.00  0.00    +0.000 C 
ATOM     22  N   UNL     1      -1.858  12.422  19.903  0.00  0.00    +0.000 N 
ATOM     23  C   UNL     1      -1.092  12.044  18.824  0.00  0.00    +0.000 C 
ATOM     24  O   UNL     1      -1.536  11.892  17.702  0.00  0.00    +0.000 OA
ATOM     25  N   UNL     1       0.202  11.955  19.226  0.00  0.00    +0.000 N 
ATOM     26  C   UNL     1       0.334  12.374  20.522  0.00  0.00    +0.000 C 
ATOM     27  O   UNL     1       1.388  12.437  21.131  0.00  0.00    +0.000 OA
ATOM     28  H   UNL     1      -2.842  12.632  19.775  0.00  0.00    +0.000 HD
BRANCH  21  29
ATOM     29  C   UNL     1      -1.397  11.823  22.258  0.00  0.00    +0.000 C 
BRANCH  29  31
ATOM     30  C   UNL     1      -3.456  12.320  23.639  0.00  0.00    +0.000 C 
ATOM     31  C   UNL     1      -1.962  12.558  23.477  0.00  0.00    +0.000 C 
ENDBRANCH  29  31
ENDBRANCH  21  29
BRANCH  21  32
ATOM     32  C   UNL     1      -1.177  14.236  21.436  0.00  0.00    +0.000 C 
BRANCH  32  33
ATOM     33  C   UNL     1      -2.336  15.001  20.792  0.00  0.00    +0.000 C 
ATOM     34  C   UNL     1      -3.133  15.753  21.849  0.00  0.00    +0.000 C 
ENDBRANCH  32  33
ENDBRANCH  21  32
ENDBRANCH  20  25
ENDBRANCH   1  20
TORSDOF 7
ENDMDL
