MODEL 1
REMARK VINA RESULT:      -7.5      0.000      0.000
REMARK  Name = 
REMARK  6 active torsions:
REMARK  status: ('A' for Active; 'I' for Inactive)
REMARK    1  A    between atoms: C_1  and  C_2
REMARK    2  A    between atoms: C_5  and  N_6
REMARK    3  A    between atoms: C_10  and  S_11
REMARK    4  A    between atoms: S_11  and  C_12
REMARK    5  A    between atoms: C_12  and  C_13
REMARK    6  A    between atoms: C_16  and  C_17
REMARK                            x       y       z     vdW  Elec       q    Type
REMARK                         _______ _______ _______ _____ _____    ______ ____
ROOT
ATOM      1  N   UNL     1       5.710   4.256  17.270  0.00  0.00    +0.000 N 
ATOM      2  N   UNL     1       6.761   4.322  18.127  0.00  0.00    +0.000 NA
ATOM      3  N   UNL     1       7.824   4.643  17.407  0.00  0.00    +0.000 NA
ATOM      4  N   UNL     1       7.502   4.789  16.090  0.00  0.00    +0.000 NA
ATOM      5  C   UNL     1       6.213   4.548  16.003  0.00  0.00    +0.000 A 
ENDROOT
BRANCH   1  10
ATOM      6  C   UNL     1       0.397   2.678  18.810  0.00  0.00    +0.000 C 
ATOM      7  C   UNL     1       1.798   3.094  18.474  0.00  0.00    +0.000 A 
ATOM      8  C   UNL     1       2.805   2.152  18.287  0.00  0.00    +0.000 A 
ATOM      9  C   UNL     1       4.090   2.557  17.920  0.00  0.00    +0.000 A 
ATOM     10  C   UNL     1       4.401   3.915  17.719  0.00  0.00    +0.000 A 
ATOM     11  C   UNL     1       3.406   4.888  17.972  0.00  0.00    +0.000 A 
ATOM     12  C   UNL     1       3.559   6.385  17.861  0.00  0.00    +0.000 C 
ATOM     13  C   UNL     1       2.116   4.449  18.349  0.00  0.00    +0.000 A 
ENDBRANCH   1  10
BRANCH   5  14
ATOM     14  S   UNL     1       5.350   4.675  14.505  0.00  0.00    +0.000 S 
BRANCH  14  15
ATOM     15  C   UNL     1       6.447   3.812  13.349  0.00  0.00    +0.000 C 
BRANCH  15  16
ATOM     16  C   UNL     1       5.740   3.094  12.215  0.00  0.00    +0.000 C 
ATOM     17  N   UNL     1       6.331   1.978  11.699  0.00  0.00    +0.000 N 
ATOM     18  O   UNL     1       4.622   3.427  11.836  0.00  0.00    +0.000 OA
ATOM     19  H   UNL     1       7.340   1.890  11.737  0.00  0.00    +0.000 HD
ATOM     20  H   UNL     1       5.875   1.581  10.888  0.00  0.00    +0.000 HD
ENDBRANCH  15  16
ENDBRANCH  14  15
ENDBRANCH   5  14
TORSDOF 4
ENDMDL
MODEL 2
REMARK VINA RESULT:      -7.3      1.921      2.067
REMARK  Name = 
REMARK  6 active torsions:
REMARK  status: ('A' for Active; 'I' for Inactive)
REMARK    1  A    between atoms: C_1  and  C_2
REMARK    2  A    between atoms: C_5  and  N_6
REMARK    3  A    between atoms: C_10  and  S_11
REMARK    4  A    between atoms: S_11  and  C_12
REMARK    5  A    between atoms: C_12  and  C_13
REMARK    6  A    between atoms: C_16  and  C_17
REMARK                            x       y       z     vdW  Elec       q    Type
REMARK                         _______ _______ _______ _____ _____    ______ ____
ROOT
ATOM      1  N   UNL     1       5.597   5.216  18.751  0.00  0.00    +0.000 N 
ATOM      2  N   UNL     1       6.524   5.173  19.742  0.00  0.00    +0.000 NA
ATOM      3  N   UNL     1       7.559   5.887  19.331  0.00  0.00    +0.000 NA
ATOM      4  N   UNL     1       7.341   6.402  18.087  0.00  0.00    +0.000 NA
ATOM      5  C   UNL     1       6.146   5.989  17.728  0.00  0.00    +0.000 A 
ENDROOT
BRANCH   1  10
ATOM      6  C   UNL     1       0.641   2.298  18.906  0.00  0.00    +0.000 C 
ATOM      7  C   UNL     1       1.936   3.056  18.933  0.00  0.00    +0.000 A 
ATOM      8  C   UNL     1       3.159   2.397  18.849  0.00  0.00    +0.000 A 
ATOM      9  C   UNL     1       4.350   3.125  18.819  0.00  0.00    +0.000 A 
ATOM     10  C   UNL     1       4.352   4.532  18.862  0.00  0.00    +0.000 A 
ATOM     11  C   UNL     1       3.120   5.211  19.017  0.00  0.00    +0.000 A 
ATOM     12  C   UNL     1       2.921   6.702  19.130  0.00  0.00    +0.000 C 
ATOM     13  C   UNL     1       1.930   4.449  19.050  0.00  0.00    +0.000 A 
ENDBRANCH   1  10
BRANCH   5  14
ATOM     14  S   UNL     1       5.422   6.454  16.223  0.00  0.00    +0.000 S 
BRANCH  14  15
ATOM     15  C   UNL     1       5.345   4.882  15.326  0.00  0.00    +0.000 C 
BRANCH  15  16
ATOM     16  C   UNL     1       6.568   4.567  14.485  0.00  0.00    +0.000 C 
ATOM     17  N   UNL     1       6.488   3.527  13.606  0.00  0.00    +0.000 N 
ATOM     18  O   UNL     1       7.566   5.279  14.504  0.00  0.00    +0.000 OA
ATOM     19  H   UNL     1       5.861   2.757  13.806  0.00  0.00    +0.000 HD
ATOM     20  H   UNL     1       7.351   3.294  13.130  0.00  0.00    +0.000 HD
ENDBRANCH  15  16
ENDBRANCH  14  15
ENDBRANCH   5  14
TORSDOF 4
ENDMDL
MODEL 3
REMARK VINA RESULT:      -7.2      1.321      1.355
REMARK  Name = 
REMARK  6 active torsions:
REMARK  status: ('A' for Active; 'I' for Inactive)
REMARK    1  A    between atoms: C_1  and  C_2
REMARK    2  A    between atoms: C_5  and  N_6
REMARK    3  A    between atoms: C_10  and  S_11
REMARK    4  A    between atoms: S_11  and  C_12
REMARK    5  A    between atoms: C_12  and  C_13
REMARK    6  A    between atoms: C_16  and  C_17
REMARK                            x       y       z     vdW  Elec       q    Type
REMARK                         _______ _______ _______ _____ _____    ______ ____
ROOT
ATOM      1  N   UNL     1       6.029   4.429  18.118  0.00  0.00    +0.000 N 
ATOM      2  N   UNL     1       7.105   4.676  18.910  0.00  0.00    +0.000 NA
ATOM      3  N   UNL     1       8.165   4.711  18.119  0.00  0.00    +0.000 NA
ATOM      4  N   UNL     1       7.817   4.492  16.818  0.00  0.00    +0.000 NA
ATOM      5  C   UNL     1       6.515   4.314  16.816  0.00  0.00    +0.000 A 
ENDROOT
BRANCH   1  10
ATOM      6  C   UNL     1       0.697   3.657  20.134  0.00  0.00    +0.000 C 
ATOM      7  C   UNL     1       2.103   3.890  19.666  0.00  0.00    +0.000 A 
ATOM      8  C   UNL     1       3.105   2.953  19.897  0.00  0.00    +0.000 A 
ATOM      9  C   UNL     1       4.394   3.163  19.404  0.00  0.00    +0.000 A 
ATOM     10  C   UNL     1       4.716   4.312  18.658  0.00  0.00    +0.000 A 
ATOM     11  C   UNL     1       3.726   5.305  18.474  0.00  0.00    +0.000 A 
ATOM     12  C   UNL     1       3.889   6.619  17.749  0.00  0.00    +0.000 C 
ATOM     13  C   UNL     1       2.431   5.069  18.989  0.00  0.00    +0.000 A 
ENDBRANCH   1  10
BRANCH   5  14
ATOM     14  S   UNL     1       5.621   4.056  15.353  0.00  0.00    +0.000 S 
BRANCH  14  15
ATOM     15  C   UNL     1       6.725   4.749  14.095  0.00  0.00    +0.000 C 
BRANCH  15  16
ATOM     16  C   UNL     1       6.747   3.994  12.779  0.00  0.00    +0.000 C 
ATOM     17  N   UNL     1       5.902   2.932  12.639  0.00  0.00    +0.000 N 
ATOM     18  O   UNL     1       7.415   4.377  11.824  0.00  0.00    +0.000 OA
ATOM     19  H   UNL     1       5.624   2.409  13.461  0.00  0.00    +0.000 HD
ATOM     20  H   UNL     1       6.011   2.401  11.783  0.00  0.00    +0.000 HD
ENDBRANCH  15  16
ENDBRANCH  14  15
ENDBRANCH   5  14
TORSDOF 4
ENDMDL
MODEL 4
REMARK VINA RESULT:      -7.1      3.039      3.989
REMARK  Name = 
REMARK  6 active torsions:
REMARK  status: ('A' for Active; 'I' for Inactive)
REMARK    1  A    between atoms: C_1  and  C_2
REMARK    2  A    between atoms: C_5  and  N_6
REMARK    3  A    between atoms: C_10  and  S_11
REMARK    4  A    between atoms: S_11  and  C_12
REMARK    5  A    between atoms: C_12  and  C_13
REMARK    6  A    between atoms: C_16  and  C_17
REMARK                            x       y       z     vdW  Elec       q    Type
REMARK                         _______ _______ _______ _____ _____    ______ ____
ROOT
ATOM      1  N   UNL     1       5.446   4.533  16.198  0.00  0.00    +0.000 N 
ATOM      2  N   UNL     1       5.243   4.655  14.861  0.00  0.00    +0.000 NA
ATOM      3  N   UNL     1       6.431   4.828  14.305  0.00  0.00    +0.000 NA
ATOM      4  N   UNL     1       7.420   4.825  15.245  0.00  0.00    +0.000 NA
ATOM      5  C   UNL     1       6.821   4.651  16.402  0.00  0.00    +0.000 A 
ENDROOT
BRANCH   1  10
ATOM      6  C   UNL     1       0.920   3.592  19.622  0.00  0.00    +0.000 C 
ATOM      7  C   UNL     1       2.140   3.840  18.785  0.00  0.00    +0.000 A 
ATOM      8  C   UNL     1       2.892   2.785  18.277  0.00  0.00    +0.000 A 
ATOM      9  C   UNL     1       3.991   3.036  17.452  0.00  0.00    +0.000 A 
ATOM     10  C   UNL     1       4.362   4.348  17.105  0.00  0.00    +0.000 A 
ATOM     11  C   UNL     1       3.649   5.432  17.669  0.00  0.00    +0.000 A 
ATOM     12  C   UNL     1       3.922   6.900  17.457  0.00  0.00    +0.000 C 
ATOM     13  C   UNL     1       2.544   5.148  18.505  0.00  0.00    +0.000 A 
ENDBRANCH   1  10
BRANCH   5  14
ATOM     14  S   UNL     1       7.703   4.526  17.889  0.00  0.00    +0.000 S 
BRANCH  14  15
ATOM     15  C   UNL     1       7.259   6.064  18.736  0.00  0.00    +0.000 C 
BRANCH  15  16
ATOM     16  C   UNL     1       7.820   7.325  18.105  0.00  0.00    +0.000 C 
ATOM     17  N   UNL     1       7.364   7.677  16.868  0.00  0.00    +0.000 N 
ATOM     18  O   UNL     1       8.575   8.073  18.716  0.00  0.00    +0.000 OA
ATOM     19  H   UNL     1       7.043   6.954  16.235  0.00  0.00    +0.000 HD
ATOM     20  H   UNL     1       7.828   8.471  16.445  0.00  0.00    +0.000 HD
ENDBRANCH  15  16
ENDBRANCH  14  15
ENDBRANCH   5  14
TORSDOF 4
ENDMDL
MODEL 5
REMARK VINA RESULT:      -7.0      1.221      1.337
REMARK  Name = 
REMARK  6 active torsions:
REMARK  status: ('A' for Active; 'I' for Inactive)
REMARK    1  A    between atoms: C_1  and  C_2
REMARK    2  A    between atoms: C_5  and  N_6
REMARK    3  A    between atoms: C_10  and  S_11
REMARK    4  A    between atoms: S_11  and  C_12
REMARK    5  A    between atoms: C_12  and  C_13
REMARK    6  A    between atoms: C_16  and  C_17
REMARK                            x       y       z     vdW  Elec       q    Type
REMARK                         _______ _______ _______ _____ _____    ______ ____
ROOT
ATOM      1  N   UNL     1       5.770   5.545  17.220  0.00  0.00    +0.000 N 
ATOM      2  N   UNL     1       6.564   6.585  17.585  0.00  0.00    +0.000 NA
ATOM      3  N   UNL     1       7.548   6.645  16.703  0.00  0.00    +0.000 NA
ATOM      4  N   UNL     1       7.427   5.667  15.761  0.00  0.00    +0.000 NA
ATOM      5  C   UNL     1       6.345   4.990  16.077  0.00  0.00    +0.000 A 
ENDROOT
BRANCH   1  10
ATOM      6  C   UNL     1       1.070   3.828  20.059  0.00  0.00    +0.000 C 
ATOM      7  C   UNL     1       2.320   4.302  19.377  0.00  0.00    +0.000 A 
ATOM      8  C   UNL     1       3.437   3.480  19.267  0.00  0.00    +0.000 A 
ATOM      9  C   UNL     1       4.570   3.918  18.579  0.00  0.00    +0.000 A 
ATOM     10  C   UNL     1       4.614   5.188  17.973  0.00  0.00    +0.000 A 
ATOM     11  C   UNL     1       3.512   6.060  18.135  0.00  0.00    +0.000 A 
ATOM     12  C   UNL     1       3.390   7.468  17.605  0.00  0.00    +0.000 C 
ATOM     13  C   UNL     1       2.381   5.591  18.841  0.00  0.00    +0.000 A 
ENDBRANCH   1  10
BRANCH   5  14
ATOM     14  S   UNL     1       5.765   3.673  15.111  0.00  0.00    +0.000 S 
BRANCH  14  15
ATOM     15  C   UNL     1       6.381   4.098  13.462  0.00  0.00    +0.000 C 
BRANCH  15  16
ATOM     16  C   UNL     1       5.812   3.260  12.332  0.00  0.00    +0.000 C 
ATOM     17  N   UNL     1       6.557   2.211  11.879  0.00  0.00    +0.000 N 
ATOM     18  O   UNL     1       4.677   3.437  11.904  0.00  0.00    +0.000 OA
ATOM     19  H   UNL     1       7.567   2.252  11.953  0.00  0.00    +0.000 HD
ATOM     20  H   UNL     1       6.184   1.733  11.068  0.00  0.00    +0.000 HD
ENDBRANCH  15  16
ENDBRANCH  14  15
ENDBRANCH   5  14
TORSDOF 4
ENDMDL
MODEL 6
REMARK VINA RESULT:      -6.9      1.850      1.893
REMARK  Name = 
REMARK  6 active torsions:
REMARK  status: ('A' for Active; 'I' for Inactive)
REMARK    1  A    between atoms: C_1  and  C_2
REMARK    2  A    between atoms: C_5  and  N_6
REMARK    3  A    between atoms: C_10  and  S_11
REMARK    4  A    between atoms: S_11  and  C_12
REMARK    5  A    between atoms: C_12  and  C_13
REMARK    6  A    between atoms: C_16  and  C_17
REMARK                            x       y       z     vdW  Elec       q    Type
REMARK                         _______ _______ _______ _____ _____    ______ ____
ROOT
ATOM      1  N   UNL     1       5.762   5.038  18.495  0.00  0.00    +0.000 N 
ATOM      2  N   UNL     1       6.832   5.305  19.287  0.00  0.00    +0.000 NA
ATOM      3  N   UNL     1       7.822   5.667  18.488  0.00  0.00    +0.000 NA
ATOM      4  N   UNL     1       7.433   5.645  17.181  0.00  0.00    +0.000 NA
ATOM      5  C   UNL     1       6.177   5.256  17.182  0.00  0.00    +0.000 A 
ENDROOT
BRANCH   1  10
ATOM      6  C   UNL     1       0.762   3.008  20.489  0.00  0.00    +0.000 C 
ATOM      7  C   UNL     1       2.078   3.563  20.031  0.00  0.00    +0.000 A 
ATOM      8  C   UNL     1       3.243   2.803  20.094  0.00  0.00    +0.000 A 
ATOM      9  C   UNL     1       4.447   3.317  19.610  0.00  0.00    +0.000 A 
ATOM     10  C   UNL     1       4.520   4.603  19.040  0.00  0.00    +0.000 A 
ATOM     11  C   UNL     1       3.359   5.412  19.032  0.00  0.00    +0.000 A 
ATOM     12  C   UNL     1       3.248   6.824  18.513  0.00  0.00    +0.000 C 
ATOM     13  C   UNL     1       2.155   4.867  19.534  0.00  0.00    +0.000 A 
ENDBRANCH   1  10
BRANCH   5  14
ATOM     14  S   UNL     1       5.246   5.138  15.725  0.00  0.00    +0.000 S 
BRANCH  14  15
ATOM     15  C   UNL     1       6.191   3.934  14.756  0.00  0.00    +0.000 C 
BRANCH  15  16
ATOM     16  C   UNL     1       6.977   4.522  13.599  0.00  0.00    +0.000 C 
ATOM     17  N   UNL     1       7.867   5.519  13.873  0.00  0.00    +0.000 N 
ATOM     18  O   UNL     1       6.908   4.056  12.467  0.00  0.00    +0.000 OA
ATOM     19  H   UNL     1       7.701   6.125  14.668  0.00  0.00    +0.000 HD
ATOM     20  H   UNL     1       8.304   5.945  13.065  0.00  0.00    +0.000 HD
ENDBRANCH  15  16
ENDBRANCH  14  15
ENDBRANCH   5  14
TORSDOF 4
ENDMDL
MODEL 7
REMARK VINA RESULT:      -6.8      1.255      2.088
REMARK  Name = 
REMARK  6 active torsions:
REMARK  status: ('A' for Active; 'I' for Inactive)
REMARK    1  A    between atoms: C_1  and  C_2
REMARK    2  A    between atoms: C_5  and  N_6
REMARK    3  A    between atoms: C_10  and  S_11
REMARK    4  A    between atoms: S_11  and  C_12
REMARK    5  A    between atoms: C_12  and  C_13
REMARK    6  A    between atoms: C_16  and  C_17
REMARK                            x       y       z     vdW  Elec       q    Type
REMARK                         _______ _______ _______ _____ _____    ______ ____
ROOT
ATOM      1  N   UNL     1       6.072   4.552  17.833  0.00  0.00    +0.000 N 
ATOM      2  N   UNL     1       7.225   4.458  18.545  0.00  0.00    +0.000 NA
ATOM      3  N   UNL     1       8.206   4.307  17.670  0.00  0.00    +0.000 NA
ATOM      4  N   UNL     1       7.730   4.296  16.392  0.00  0.00    +0.000 NA
ATOM      5  C   UNL     1       6.427   4.439  16.489  0.00  0.00    +0.000 A 
ENDROOT
BRANCH   1  10
ATOM      6  C   UNL     1       1.114   5.422  20.618  0.00  0.00    +0.000 C 
ATOM      7  C   UNL     1       2.371   5.181  19.836  0.00  0.00    +0.000 A 
ATOM      8  C   UNL     1       3.023   6.221  19.180  0.00  0.00    +0.000 A 
ATOM      9  C   UNL     1       4.223   5.987  18.505  0.00  0.00    +0.000 A 
ATOM     10  C   UNL     1       4.809   4.708  18.474  0.00  0.00    +0.000 A 
ATOM     11  C   UNL     1       4.123   3.628  19.077  0.00  0.00    +0.000 A 
ATOM     12  C   UNL     1       4.562   2.185  19.108  0.00  0.00    +0.000 C 
ATOM     13  C   UNL     1       2.907   3.893  19.749  0.00  0.00    +0.000 A 
ENDBRANCH   1  10
BRANCH   5  14
ATOM     14  S   UNL     1       5.403   4.538  15.094  0.00  0.00    +0.000 S 
BRANCH  14  15
ATOM     15  C   UNL     1       6.528   4.076  13.751  0.00  0.00    +0.000 C 
BRANCH  15  16
ATOM     16  C   UNL     1       5.866   3.383  12.574  0.00  0.00    +0.000 C 
ATOM     17  N   UNL     1       6.579   2.425  11.915  0.00  0.00    +0.000 N 
ATOM     18  O   UNL     1       4.693   3.587  12.280  0.00  0.00    +0.000 OA
ATOM     19  H   UNL     1       7.590   2.482  11.901  0.00  0.00    +0.000 HD
ATOM     20  H   UNL     1       6.137   2.052  11.084  0.00  0.00    +0.000 HD
ENDBRANCH  15  16
ENDBRANCH  14  15
ENDBRANCH   5  14
TORSDOF 4
ENDMDL
MODEL 8
REMARK VINA RESULT:      -6.8      3.104      4.057
REMARK  Name = 
REMARK  6 active torsions:
REMARK  status: ('A' for Active; 'I' for Inactive)
REMARK    1  A    between atoms: C_1  and  C_2
REMARK    2  A    between atoms: C_5  and  N_6
REMARK    3  A    between atoms: C_10  and  S_11
REMARK    4  A    between atoms: S_11  and  C_12
REMARK    5  A    between atoms: C_12  and  C_13
REMARK    6  A    between atoms: C_16  and  C_17
REMARK                            x       y       z     vdW  Elec       q    Type
REMARK                         _______ _______ _______ _____ _____    ______ ____
ROOT
ATOM      1  N   UNL     1       4.763   4.747  16.942  0.00  0.00    +0.000 N 
ATOM      2  N   UNL     1       4.721   3.963  15.834  0.00  0.00    +0.000 NA
ATOM      3  N   UNL     1       5.443   4.569  14.906  0.00  0.00    +0.000 NA
ATOM      4  N   UNL     1       5.963   5.740  15.373  0.00  0.00    +0.000 NA
ATOM      5  C   UNL     1       5.545   5.854  16.614  0.00  0.00    +0.000 A 
ENDROOT
BRANCH   1  10
ATOM      6  C   UNL     1       1.919   3.001  21.628  0.00  0.00    +0.000 C 
ATOM      7  C   UNL     1       2.699   3.496  20.446  0.00  0.00    +0.000 A 
ATOM      8  C   UNL     1       3.834   2.826  19.999  0.00  0.00    +0.000 A 
ATOM      9  C   UNL     1       4.513   3.270  18.863  0.00  0.00    +0.000 A 
ATOM     10  C   UNL     1       4.071   4.391  18.136  0.00  0.00    +0.000 A 
ATOM     11  C   UNL     1       2.960   5.122  18.617  0.00  0.00    +0.000 A 
ATOM     12  C   UNL     1       2.368   6.370  18.009  0.00  0.00    +0.000 C 
ATOM     13  C   UNL     1       2.295   4.653  19.773  0.00  0.00    +0.000 A 
ENDBRANCH   1  10
BRANCH   5  14
ATOM     14  S   UNL     1       6.013   7.180  17.628  0.00  0.00    +0.000 S 
BRANCH  14  15
ATOM     15  C   UNL     1       7.735   6.778  18.024  0.00  0.00    +0.000 C 
BRANCH  15  16
ATOM     16  C   UNL     1       7.928   5.474  18.776  0.00  0.00    +0.000 C 
ATOM     17  N   UNL     1       7.959   5.522  20.139  0.00  0.00    +0.000 N 
ATOM     18  O   UNL     1       7.948   4.392  18.200  0.00  0.00    +0.000 OA
ATOM     19  H   UNL     1       8.283   6.366  20.597  0.00  0.00    +0.000 HD
ATOM     20  H   UNL     1       8.179   4.648  20.599  0.00  0.00    +0.000 HD
ENDBRANCH  15  16
ENDBRANCH  14  15
ENDBRANCH   5  14
TORSDOF 4
ENDMDL
MODEL 9
REMARK VINA RESULT:      -6.8      1.218      1.235
REMARK  Name = 
REMARK  6 active torsions:
REMARK  status: ('A' for Active; 'I' for Inactive)
REMARK    1  A    between atoms: C_1  and  C_2
REMARK    2  A    between atoms: C_5  and  N_6
REMARK    3  A    between atoms: C_10  and  S_11
REMARK    4  A    between atoms: S_11  and  C_12
REMARK    5  A    between atoms: C_12  and  C_13
REMARK    6  A    between atoms: C_16  and  C_17
REMARK                            x       y       z     vdW  Elec       q    Type
REMARK                         _______ _______ _______ _____ _____    ______ ____
ROOT
ATOM      1  N   UNL     1       5.613   5.377  17.664  0.00  0.00    +0.000 N 
ATOM      2  N   UNL     1       6.461   5.854  18.611  0.00  0.00    +0.000 NA
ATOM      3  N   UNL     1       7.498   6.372  17.972  0.00  0.00    +0.000 NA
ATOM      4  N   UNL     1       7.358   6.247  16.621  0.00  0.00    +0.000 NA
ATOM      5  C   UNL     1       6.210   5.635  16.431  0.00  0.00    +0.000 A 
ENDROOT
BRANCH   1  10
ATOM      6  C   UNL     1       0.714   2.583  18.800  0.00  0.00    +0.000 C 
ATOM      7  C   UNL     1       2.001   3.319  18.571  0.00  0.00    +0.000 A 
ATOM      8  C   UNL     1       3.212   2.641  18.469  0.00  0.00    +0.000 A 
ATOM      9  C   UNL     1       4.390   3.340  18.198  0.00  0.00    +0.000 A 
ATOM     10  C   UNL     1       4.390   4.735  18.013  0.00  0.00    +0.000 A 
ATOM     11  C   UNL     1       3.178   5.445  18.181  0.00  0.00    +0.000 A 
ATOM     12  C   UNL     1       2.984   6.937  18.071  0.00  0.00    +0.000 C 
ATOM     13  C   UNL     1       2.001   4.713  18.460  0.00  0.00    +0.000 A 
ENDBRANCH   1  10
BRANCH   5  14
ATOM     14  S   UNL     1       5.588   5.312  14.845  0.00  0.00    +0.000 S 
BRANCH  14  15
ATOM     15  C   UNL     1       6.747   4.069  14.218  0.00  0.00    +0.000 C 
BRANCH  15  16
ATOM     16  C   UNL     1       6.649   3.798  12.728  0.00  0.00    +0.000 C 
ATOM     17  N   UNL     1       5.732   2.880  12.305  0.00  0.00    +0.000 N 
ATOM     18  O   UNL     1       7.285   4.452  11.909  0.00  0.00    +0.000 OA
ATOM     19  H   UNL     1       5.468   2.124  12.925  0.00  0.00    +0.000 HD
ATOM     20  H   UNL     1       5.760   2.664  11.317  0.00  0.00    +0.000 HD
ENDBRANCH  15  16
ENDBRANCH  14  15
ENDBRANCH   5  14
TORSDOF 4
ENDMDL
