MODEL 1
REMARK VINA RESULT:      -6.1      0.000      0.000
REMARK  Name = 
REMARK  16 active torsions:
REMARK  status: ('A' for Active; 'I' for Inactive)
REMARK    1  A    between atoms: N_1  and  C_2
REMARK    2  A    between atoms: C_2  and  C_3
REMARK    3  A    between atoms: C_3  and  C_4
REMARK    4  A    between atoms: C_4  and  C_5
REMARK    5  A    between atoms: C_4  and  N_7
REMARK    6  A    between atoms: C_5  and  N_6
REMARK    7  A    between atoms: N_7  and  C_8
REMARK    8  A    between atoms: C_8  and  C_9
REMARK    9  A    between atoms: C_12  and  C_13
REMARK   10  A    between atoms: C_13  and  N_14
REMARK   11  A    between atoms: N_14  and  C_15
REMARK   12  A    between atoms: C_15  and  C_16
REMARK   13  A    between atoms: C_15  and  C_18
REMARK   14  A    between atoms: C_16  and  N_17
REMARK   15  A    between atoms: C_18  and  C_19
REMARK   16  A    between atoms: C_19  and  N_20
REMARK                            x       y       z     vdW  Elec       q    Type
REMARK                         _______ _______ _______ _____ _____    ______ ____
ROOT
ATOM      1  C   UNL     1       3.633   5.867  18.833  0.00  0.00    +0.000 A 
ATOM      2  C   UNL     1       4.690   5.002  19.143  0.00  0.00    +0.000 A 
ATOM      3  C   UNL     1       5.856   5.016  18.383  0.00  0.00    +0.000 A 
ATOM      4  C   UNL     1       5.978   5.875  17.279  0.00  0.00    +0.000 A 
ATOM      5  C   UNL     1       4.909   6.709  16.941  0.00  0.00    +0.000 A 
ATOM      6  C   UNL     1       3.747   6.709  17.717  0.00  0.00    +0.000 A 
ENDROOT
BRANCH   1   7
ATOM      7  C   UNL     1       2.415   5.932  19.724  0.00  0.00    +0.000 C 
BRANCH   7   8
ATOM      8  N   UNL     1       2.468   4.858  20.713  0.00  0.00    +0.000 NA
ATOM      9  H   UNL     1       3.292   4.288  20.531  0.00  0.00    +0.000 HD
BRANCH   8  10
ATOM     10  C   UNL     1       1.270   3.996  20.729  0.00  0.00    +0.000 C 
BRANCH  10  11
ATOM     11  C   UNL     1       1.444   2.709  21.593  0.00  0.00    +0.000 C 
BRANCH  11  12
ATOM     12  N   UNL     1       2.825   2.420  21.983  0.00  0.00    +0.000 NA
ATOM     13  H   UNL     1       3.133   3.081  22.692  0.00  0.00    +0.000 HD
ATOM     14  H   UNL     1       3.442   2.519  21.181  0.00  0.00    +0.000 HD
ENDBRANCH  11  12
ENDBRANCH  10  11
BRANCH  10  15
ATOM     15  C   UNL     1       0.957   3.685  19.244  0.00  0.00    +0.000 C 
BRANCH  15  16
ATOM     16  C   UNL     1       1.761   2.542  18.628  0.00  0.00    +0.000 C 
BRANCH  16  17
ATOM     17  N   UNL     1       2.221   2.869  17.284  0.00  0.00    +0.000 NA
ATOM     18  H   UNL     1       1.448   3.275  16.755  0.00  0.00    +0.000 HD
ATOM     19  H   UNL     1       2.473   2.011  16.793  0.00  0.00    +0.000 HD
ENDBRANCH  16  17
ENDBRANCH  15  16
ENDBRANCH  10  15
ENDBRANCH   8  10
ENDBRANCH   7   8
ENDBRANCH   1   7
BRANCH   4  20
ATOM     20  C   UNL     1       7.268   5.898  16.493  0.00  0.00    +0.000 C 
BRANCH  20  21
ATOM     21  N   UNL     1       7.302   4.765  15.571  0.00  0.00    +0.000 NA
ATOM     22  H   UNL     1       6.789   4.007  16.018  0.00  0.00    +0.000 HD
BRANCH  21  23
ATOM     23  C   UNL     1       6.743   5.043  14.238  0.00  0.00    +0.000 C 
BRANCH  23  24
ATOM     24  C   UNL     1       7.857   5.045  13.145  0.00  0.00    +0.000 C 
BRANCH  24  25
ATOM     25  N   UNL     1       8.928   6.020  13.374  0.00  0.00    +0.000 NA
ATOM     26  H   UNL     1       8.613   6.942  13.080  0.00  0.00    +0.000 HD
ATOM     27  H   UNL     1       9.705   5.792  12.753  0.00  0.00    +0.000 HD
ENDBRANCH  24  25
ENDBRANCH  23  24
BRANCH  23  28
ATOM     28  C   UNL     1       5.671   3.967  13.915  0.00  0.00    +0.000 C 
BRANCH  28  29
ATOM     29  C   UNL     1       5.855   3.292  12.553  0.00  0.00    +0.000 C 
BRANCH  29  30
ATOM     30  N   UNL     1       4.610   3.328  11.790  0.00  0.00    +0.000 NA
ATOM     31  H   UNL     1       3.955   2.643  12.164  0.00  0.00    +0.000 HD
ATOM     32  H   UNL     1       4.797   3.052  10.827  0.00  0.00    +0.000 HD
ENDBRANCH  29  30
ENDBRANCH  28  29
ENDBRANCH  23  28
ENDBRANCH  21  23
ENDBRANCH  20  21
ENDBRANCH   4  20
TORSDOF 16
ENDMDL
MODEL 2
REMARK VINA RESULT:      -6.1      1.661      2.494
REMARK  Name = 
REMARK  16 active torsions:
REMARK  status: ('A' for Active; 'I' for Inactive)
REMARK    1  A    between atoms: N_1  and  C_2
REMARK    2  A    between atoms: C_2  and  C_3
REMARK    3  A    between atoms: C_3  and  C_4
REMARK    4  A    between atoms: C_4  and  C_5
REMARK    5  A    between atoms: C_4  and  N_7
REMARK    6  A    between atoms: C_5  and  N_6
REMARK    7  A    between atoms: N_7  and  C_8
REMARK    8  A    between atoms: C_8  and  C_9
REMARK    9  A    between atoms: C_12  and  C_13
REMARK   10  A    between atoms: C_13  and  N_14
REMARK   11  A    between atoms: N_14  and  C_15
REMARK   12  A    between atoms: C_15  and  C_16
REMARK   13  A    between atoms: C_15  and  C_18
REMARK   14  A    between atoms: C_16  and  N_17
REMARK   15  A    between atoms: C_18  and  C_19
REMARK   16  A    between atoms: C_19  and  N_20
REMARK                            x       y       z     vdW  Elec       q    Type
REMARK                         _______ _______ _______ _____ _____    ______ ____
ROOT
ATOM      1  C   UNL     1       4.876   5.136  18.068  0.00  0.00    +0.000 A 
ATOM      2  C   UNL     1       5.460   6.237  17.429  0.00  0.00    +0.000 A 
ATOM      3  C   UNL     1       5.947   6.121  16.131  0.00  0.00    +0.000 A 
ATOM      4  C   UNL     1       5.886   4.893  15.453  0.00  0.00    +0.000 A 
ATOM      5  C   UNL     1       5.343   3.781  16.102  0.00  0.00    +0.000 A 
ATOM      6  C   UNL     1       4.836   3.904  17.399  0.00  0.00    +0.000 A 
ENDROOT
BRANCH   1   7
ATOM      7  C   UNL     1       4.246   5.291  19.432  0.00  0.00    +0.000 C 
BRANCH   7   8
ATOM      8  N   UNL     1       3.509   4.078  19.776  0.00  0.00    +0.000 NA
ATOM      9  H   UNL     1       3.402   3.511  18.938  0.00  0.00    +0.000 HD
BRANCH   8  10
ATOM     10  C   UNL     1       2.181   4.329  20.369  0.00  0.00    +0.000 C 
BRANCH  10  11
ATOM     11  C   UNL     1       1.950   3.576  21.715  0.00  0.00    +0.000 C 
BRANCH  11  12
ATOM     12  N   UNL     1       2.754   2.364  21.880  0.00  0.00    +0.000 NA
ATOM     13  H   UNL     1       3.733   2.566  21.688  0.00  0.00    +0.000 HD
ATOM     14  H   UNL     1       2.451   1.652  21.221  0.00  0.00    +0.000 HD
ENDBRANCH  11  12
ENDBRANCH  10  11
BRANCH  10  15
ATOM     15  C   UNL     1       1.153   3.940  19.278  0.00  0.00    +0.000 C 
BRANCH  15  16
ATOM     16  C   UNL     1       1.628   2.892  18.272  0.00  0.00    +0.000 C 
BRANCH  16  17
ATOM     17  N   UNL     1       1.810   1.588  18.898  0.00  0.00    +0.000 NA
ATOM     18  H   UNL     1       2.112   1.718  19.863  0.00  0.00    +0.000 HD
ATOM     19  H   UNL     1       2.571   1.092  18.433  0.00  0.00    +0.000 HD
ENDBRANCH  16  17
ENDBRANCH  15  16
ENDBRANCH  10  15
ENDBRANCH   8  10
ENDBRANCH   7   8
ENDBRANCH   1   7
BRANCH   4  20
ATOM     20  C   UNL     1       6.387   4.802  14.031  0.00  0.00    +0.000 C 
BRANCH  20  21
ATOM     21  N   UNL     1       6.248   3.430  13.548  0.00  0.00    +0.000 NA
ATOM     22  H   UNL     1       5.528   2.989  14.119  0.00  0.00    +0.000 HD
BRANCH  21  23
ATOM     23  C   UNL     1       5.910   3.314  12.120  0.00  0.00    +0.000 C 
BRANCH  23  24
ATOM     24  C   UNL     1       6.041   1.841  11.624  0.00  0.00    +0.000 C 
BRANCH  24  25
ATOM     25  N   UNL     1       7.392   1.465  11.194  0.00  0.00    +0.000 NA
ATOM     26  H   UNL     1       7.376   1.224  10.205  0.00  0.00    +0.000 HD
ATOM     27  H   UNL     1       7.651   0.604  11.676  0.00  0.00    +0.000 HD
ENDBRANCH  24  25
ENDBRANCH  23  24
BRANCH  23  28
ATOM     28  C   UNL     1       4.460   3.828  11.910  0.00  0.00    +0.000 C 
BRANCH  28  29
ATOM     29  C   UNL     1       3.684   3.079  10.823  0.00  0.00    +0.000 C 
BRANCH  29  30
ATOM     30  N   UNL     1       3.143   4.016   9.841  0.00  0.00    +0.000 NA
ATOM     31  H   UNL     1       2.925   4.902  10.292  0.00  0.00    +0.000 HD
ATOM     32  H   UNL     1       2.263   3.652   9.478  0.00  0.00    +0.000 HD
ENDBRANCH  29  30
ENDBRANCH  28  29
ENDBRANCH  23  28
ENDBRANCH  21  23
ENDBRANCH  20  21
ENDBRANCH   4  20
TORSDOF 16
ENDMDL
MODEL 3
REMARK VINA RESULT:      -6.0      2.496      6.931
REMARK  Name = 
REMARK  16 active torsions:
REMARK  status: ('A' for Active; 'I' for Inactive)
REMARK    1  A    between atoms: N_1  and  C_2
REMARK    2  A    between atoms: C_2  and  C_3
REMARK    3  A    between atoms: C_3  and  C_4
REMARK    4  A    between atoms: C_4  and  C_5
REMARK    5  A    between atoms: C_4  and  N_7
REMARK    6  A    between atoms: C_5  and  N_6
REMARK    7  A    between atoms: N_7  and  C_8
REMARK    8  A    between atoms: C_8  and  C_9
REMARK    9  A    between atoms: C_12  and  C_13
REMARK   10  A    between atoms: C_13  and  N_14
REMARK   11  A    between atoms: N_14  and  C_15
REMARK   12  A    between atoms: C_15  and  C_16
REMARK   13  A    between atoms: C_15  and  C_18
REMARK   14  A    between atoms: C_16  and  N_17
REMARK   15  A    between atoms: C_18  and  C_19
REMARK   16  A    between atoms: C_19  and  N_20
REMARK                            x       y       z     vdW  Elec       q    Type
REMARK                         _______ _______ _______ _____ _____    ______ ____
ROOT
ATOM      1  C   UNL     1       5.056   5.378  16.583  0.00  0.00    +0.000 A 
ATOM      2  C   UNL     1       4.025   6.010  17.290  0.00  0.00    +0.000 A 
ATOM      3  C   UNL     1       2.936   5.277  17.751  0.00  0.00    +0.000 A 
ATOM      4  C   UNL     1       2.839   3.901  17.489  0.00  0.00    +0.000 A 
ATOM      5  C   UNL     1       3.845   3.275  16.747  0.00  0.00    +0.000 A 
ATOM      6  C   UNL     1       4.948   4.008  16.302  0.00  0.00    +0.000 A 
ENDROOT
BRANCH   1   7
ATOM      7  C   UNL     1       6.291   6.150  16.181  0.00  0.00    +0.000 C 
BRANCH   7   8
ATOM      8  N   UNL     1       7.456   5.617  16.883  0.00  0.00    +0.000 NA
ATOM      9  H   UNL     1       7.286   4.637  17.100  0.00  0.00    +0.000 HD
BRANCH   8  10
ATOM     10  C   UNL     1       7.794   6.342  18.123  0.00  0.00    +0.000 C 
BRANCH  10  11
ATOM     11  C   UNL     1       7.207   5.681  19.408  0.00  0.00    +0.000 C 
BRANCH  11  12
ATOM     12  N   UNL     1       8.189   5.422  20.463  0.00  0.00    +0.000 NA
ATOM     13  H   UNL     1       8.505   6.300  20.867  0.00  0.00    +0.000 HD
ATOM     14  H   UNL     1       9.002   4.950  20.074  0.00  0.00    +0.000 HD
ENDBRANCH  11  12
ENDBRANCH  10  11
BRANCH  10  15
ATOM     15  C   UNL     1       7.295   7.793  17.911  0.00  0.00    +0.000 C 
BRANCH  15  16
ATOM     16  C   UNL     1       8.388   8.858  17.831  0.00  0.00    +0.000 C 
BRANCH  16  17
ATOM     17  N   UNL     1       8.894   9.211  19.152  0.00  0.00    +0.000 NA
ATOM     18  H   UNL     1       8.118   9.230  19.814  0.00  0.00    +0.000 HD
ATOM     19  H   UNL     1       9.263  10.162  19.130  0.00  0.00    +0.000 HD
ENDBRANCH  16  17
ENDBRANCH  15  16
ENDBRANCH  10  15
ENDBRANCH   8  10
ENDBRANCH   7   8
ENDBRANCH   1   7
BRANCH   4  20
ATOM     20  C   UNL     1       1.666   3.120  18.033  0.00  0.00    +0.000 C 
BRANCH  20  21
ATOM     21  N   UNL     1       2.149   1.934  18.736  0.00  0.00    +0.000 NA
ATOM     22  H   UNL     1       3.002   1.640  18.263  0.00  0.00    +0.000 HD
BRANCH  21  23
ATOM     23  C   UNL     1       2.401   2.132  20.172  0.00  0.00    +0.000 C 
BRANCH  23  24
ATOM     24  C   UNL     1       3.894   2.499  20.441  0.00  0.00    +0.000 C 
BRANCH  24  25
ATOM     25  N   UNL     1       4.862   1.607  19.795  0.00  0.00    +0.000 NA
ATOM     26  H   UNL     1       4.521   0.649  19.843  0.00  0.00    +0.000 HD
ATOM     27  H   UNL     1       5.720   1.613  20.349  0.00  0.00    +0.000 HD
ENDBRANCH  24  25
ENDBRANCH  23  24
BRANCH  23  28
ATOM     28  C   UNL     1       1.466   3.258  20.690  0.00  0.00    +0.000 C 
BRANCH  28  29
ATOM     29  C   UNL     1       2.183   4.341  21.501  0.00  0.00    +0.000 C 
BRANCH  29  30
ATOM     30  N   UNL     1       1.878   5.667  20.969  0.00  0.00    +0.000 NA
ATOM     31  H   UNL     1       1.047   5.621  20.381  0.00  0.00    +0.000 HD
ATOM     32  H   UNL     1       2.641   5.971  20.366  0.00  0.00    +0.000 HD
ENDBRANCH  29  30
ENDBRANCH  28  29
ENDBRANCH  23  28
ENDBRANCH  21  23
ENDBRANCH  20  21
ENDBRANCH   4  20
TORSDOF 16
ENDMDL
MODEL 4
REMARK VINA RESULT:      -5.9      2.018      3.107
REMARK  Name = 
REMARK  16 active torsions:
REMARK  status: ('A' for Active; 'I' for Inactive)
REMARK    1  A    between atoms: N_1  and  C_2
REMARK    2  A    between atoms: C_2  and  C_3
REMARK    3  A    between atoms: C_3  and  C_4
REMARK    4  A    between atoms: C_4  and  C_5
REMARK    5  A    between atoms: C_4  and  N_7
REMARK    6  A    between atoms: C_5  and  N_6
REMARK    7  A    between atoms: N_7  and  C_8
REMARK    8  A    between atoms: C_8  and  C_9
REMARK    9  A    between atoms: C_12  and  C_13
REMARK   10  A    between atoms: C_13  and  N_14
REMARK   11  A    between atoms: N_14  and  C_15
REMARK   12  A    between atoms: C_15  and  C_16
REMARK   13  A    between atoms: C_15  and  C_18
REMARK   14  A    between atoms: C_16  and  N_17
REMARK   15  A    between atoms: C_18  and  C_19
REMARK   16  A    between atoms: C_19  and  N_20
REMARK                            x       y       z     vdW  Elec       q    Type
REMARK                         _______ _______ _______ _____ _____    ______ ____
ROOT
ATOM      1  C   UNL     1       5.408   4.703  17.882  0.00  0.00    +0.000 A 
ATOM      2  C   UNL     1       4.461   4.761  16.851  0.00  0.00    +0.000 A 
ATOM      3  C   UNL     1       4.863   4.691  15.521  0.00  0.00    +0.000 A 
ATOM      4  C   UNL     1       6.224   4.590  15.191  0.00  0.00    +0.000 A 
ATOM      5  C   UNL     1       7.175   4.575  16.215  0.00  0.00    +0.000 A 
ATOM      6  C   UNL     1       6.769   4.625  17.551  0.00  0.00    +0.000 A 
ENDROOT
BRANCH   1   7
ATOM      7  C   UNL     1       4.964   4.664  19.325  0.00  0.00    +0.000 C 
BRANCH   7   8
ATOM      8  N   UNL     1       3.583   4.193  19.404  0.00  0.00    +0.000 NA
ATOM      9  H   UNL     1       3.046   4.849  19.967  0.00  0.00    +0.000 HD
BRANCH   8  10
ATOM     10  C   UNL     1       3.443   2.835  19.966  0.00  0.00    +0.000 C 
BRANCH  10  11
ATOM     11  C   UNL     1       4.757   1.998  19.900  0.00  0.00    +0.000 C 
BRANCH  11  12
ATOM     12  N   UNL     1       5.278   1.581  21.203  0.00  0.00    +0.000 NA
ATOM     13  H   UNL     1       5.984   2.239  21.523  0.00  0.00    +0.000 HD
ATOM     14  H   UNL     1       5.720   0.668  21.125  0.00  0.00    +0.000 HD
ENDBRANCH  11  12
ENDBRANCH  10  11
BRANCH  10  15
ATOM     15  C   UNL     1       2.272   2.179  19.192  0.00  0.00    +0.000 C 
BRANCH  15  16
ATOM     16  C   UNL     1       1.039   3.059  18.998  0.00  0.00    +0.000 C 
BRANCH  16  17
ATOM     17  N   UNL     1       0.541   3.577  20.266  0.00  0.00    +0.000 NA
ATOM     18  H   UNL     1      -0.196   2.963  20.613  0.00  0.00    +0.000 HD
ATOM     19  H   UNL     1       0.096   4.483  20.111  0.00  0.00    +0.000 HD
ENDBRANCH  16  17
ENDBRANCH  15  16
ENDBRANCH  10  15
ENDBRANCH   8  10
ENDBRANCH   7   8
ENDBRANCH   1   7
BRANCH   4  20
ATOM     20  C   UNL     1       6.633   4.478  13.741  0.00  0.00    +0.000 C 
BRANCH  20  21
ATOM     21  N   UNL     1       6.393   3.117  13.268  0.00  0.00    +0.000 NA
ATOM     22  H   UNL     1       5.747   2.686  13.927  0.00  0.00    +0.000 HD
BRANCH  21  23
ATOM     23  C   UNL     1       5.861   3.028  11.898  0.00  0.00    +0.000 C 
BRANCH  23  24
ATOM     24  C   UNL     1       5.701   1.544  11.446  0.00  0.00    +0.000 C 
BRANCH  24  25
ATOM     25  N   UNL     1       6.954   0.897  11.043  0.00  0.00    +0.000 NA
ATOM     26  H   UNL     1       7.740   1.480  11.322  0.00  0.00    +0.000 HD
ATOM     27  H   UNL     1       6.987   0.873  10.023  0.00  0.00    +0.000 HD
ENDBRANCH  24  25
ENDBRANCH  23  24
BRANCH  23  28
ATOM     28  C   UNL     1       4.491   3.758  11.851  0.00  0.00    +0.000 C 
BRANCH  28  29
ATOM     29  C   UNL     1       3.509   3.175  10.830  0.00  0.00    +0.000 C 
BRANCH  29  30
ATOM     30  N   UNL     1       3.112   4.193   9.861  0.00  0.00    +0.000 NA
ATOM     31  H   UNL     1       2.893   5.064  10.344  0.00  0.00    +0.000 HD
ATOM     32  H   UNL     1       2.255   3.899   9.395  0.00  0.00    +0.000 HD
ENDBRANCH  29  30
ENDBRANCH  28  29
ENDBRANCH  23  28
ENDBRANCH  21  23
ENDBRANCH  20  21
ENDBRANCH   4  20
TORSDOF 16
ENDMDL
MODEL 5
REMARK VINA RESULT:      -5.9      5.038      8.030
REMARK  Name = 
REMARK  16 active torsions:
REMARK  status: ('A' for Active; 'I' for Inactive)
REMARK    1  A    between atoms: N_1  and  C_2
REMARK    2  A    between atoms: C_2  and  C_3
REMARK    3  A    between atoms: C_3  and  C_4
REMARK    4  A    between atoms: C_4  and  C_5
REMARK    5  A    between atoms: C_4  and  N_7
REMARK    6  A    between atoms: C_5  and  N_6
REMARK    7  A    between atoms: N_7  and  C_8
REMARK    8  A    between atoms: C_8  and  C_9
REMARK    9  A    between atoms: C_12  and  C_13
REMARK   10  A    between atoms: C_13  and  N_14
REMARK   11  A    between atoms: N_14  and  C_15
REMARK   12  A    between atoms: C_15  and  C_16
REMARK   13  A    between atoms: C_15  and  C_18
REMARK   14  A    between atoms: C_16  and  N_17
REMARK   15  A    between atoms: C_18  and  C_19
REMARK   16  A    between atoms: C_19  and  N_20
REMARK                            x       y       z     vdW  Elec       q    Type
REMARK                         _______ _______ _______ _____ _____    ______ ____
ROOT
ATOM      1  C   UNL     1       2.489   7.231  19.016  0.00  0.00    +0.000 A 
ATOM      2  C   UNL     1       2.465   7.982  17.834  0.00  0.00    +0.000 A 
ATOM      3  C   UNL     1       1.835   9.223  17.802  0.00  0.00    +0.000 A 
ATOM      4  C   UNL     1       1.191   9.726  18.944  0.00  0.00    +0.000 A 
ATOM      5  C   UNL     1       1.176   8.960  20.113  0.00  0.00    +0.000 A 
ATOM      6  C   UNL     1       1.826   7.723  20.149  0.00  0.00    +0.000 A 
ENDROOT
BRANCH   1   7
ATOM      7  C   UNL     1       3.269   5.939  19.082  0.00  0.00    +0.000 C 
BRANCH   7   8
ATOM      8  N   UNL     1       3.262   5.290  17.773  0.00  0.00    +0.000 NA
ATOM      9  H   UNL     1       2.357   4.846  17.634  0.00  0.00    +0.000 HD
BRANCH   8  10
ATOM     10  C   UNL     1       4.331   4.289  17.593  0.00  0.00    +0.000 C 
BRANCH  10  11
ATOM     11  C   UNL     1       5.212   4.086  18.864  0.00  0.00    +0.000 C 
BRANCH  11  12
ATOM     12  N   UNL     1       5.042   2.790  19.522  0.00  0.00    +0.000 NA
ATOM     13  H   UNL     1       5.630   2.739  20.350  0.00  0.00    +0.000 HD
ATOM     14  H   UNL     1       5.326   2.041  18.895  0.00  0.00    +0.000 HD
ENDBRANCH  11  12
ENDBRANCH  10  11
BRANCH  10  15
ATOM     15  C   UNL     1       5.148   4.763  16.365  0.00  0.00    +0.000 C 
BRANCH  15  16
ATOM     16  C   UNL     1       6.666   4.684  16.516  0.00  0.00    +0.000 C 
BRANCH  16  17
ATOM     17  N   UNL     1       7.327   5.838  15.919  0.00  0.00    +0.000 NA
ATOM     18  H   UNL     1       7.320   6.611  16.585  0.00  0.00    +0.000 HD
ATOM     19  H   UNL     1       6.787   6.160  15.115  0.00  0.00    +0.000 HD
ENDBRANCH  16  17
ENDBRANCH  15  16
ENDBRANCH  10  15
ENDBRANCH   8  10
ENDBRANCH   7   8
ENDBRANCH   1   7
BRANCH   4  20
ATOM     20  C   UNL     1       0.547  11.091  18.894  0.00  0.00    +0.000 C 
BRANCH  20  21
ATOM     21  N   UNL     1      -0.621  11.052  18.017  0.00  0.00    +0.000 NA
ATOM     22  H   UNL     1      -0.442  10.329  17.322  0.00  0.00    +0.000 HD
BRANCH  21  23
ATOM     23  C   UNL     1      -1.897  10.794  18.706  0.00  0.00    +0.000 C 
BRANCH  23  24
ATOM     24  C   UNL     1      -2.536  12.116  19.232  0.00  0.00    +0.000 C 
BRANCH  24  25
ATOM     25  N   UNL     1      -3.953  12.280  18.893  0.00  0.00    +0.000 NA
ATOM     26  H   UNL     1      -4.265  11.476  18.352  0.00  0.00    +0.000 HD
ATOM     27  H   UNL     1      -4.040  13.077  18.261  0.00  0.00    +0.000 HD
ENDBRANCH  24  25
ENDBRANCH  23  24
BRANCH  23  28
ATOM     28  C   UNL     1      -2.860  10.084  17.716  0.00  0.00    +0.000 C 
BRANCH  28  29
ATOM     29  C   UNL     1      -2.335  10.011  16.279  0.00  0.00    +0.000 C 
BRANCH  29  30
ATOM     30  N   UNL     1      -2.518  11.290  15.599  0.00  0.00    +0.000 NA
ATOM     31  H   UNL     1      -2.504  12.049  16.280  0.00  0.00    +0.000 HD
ATOM     32  H   UNL     1      -3.439  11.312  15.164  0.00  0.00    +0.000 HD
ENDBRANCH  29  30
ENDBRANCH  28  29
ENDBRANCH  23  28
ENDBRANCH  21  23
ENDBRANCH  20  21
ENDBRANCH   4  20
TORSDOF 16
ENDMDL
MODEL 6
REMARK VINA RESULT:      -5.8      3.649      8.037
REMARK  Name = 
REMARK  16 active torsions:
REMARK  status: ('A' for Active; 'I' for Inactive)
REMARK    1  A    between atoms: N_1  and  C_2
REMARK    2  A    between atoms: C_2  and  C_3
REMARK    3  A    between atoms: C_3  and  C_4
REMARK    4  A    between atoms: C_4  and  C_5
REMARK    5  A    between atoms: C_4  and  N_7
REMARK    6  A    between atoms: C_5  and  N_6
REMARK    7  A    between atoms: N_7  and  C_8
REMARK    8  A    between atoms: C_8  and  C_9
REMARK    9  A    between atoms: C_12  and  C_13
REMARK   10  A    between atoms: C_13  and  N_14
REMARK   11  A    between atoms: N_14  and  C_15
REMARK   12  A    between atoms: C_15  and  C_16
REMARK   13  A    between atoms: C_15  and  C_18
REMARK   14  A    between atoms: C_16  and  N_17
REMARK   15  A    between atoms: C_18  and  C_19
REMARK   16  A    between atoms: C_19  and  N_20
REMARK                            x       y       z     vdW  Elec       q    Type
REMARK                         _______ _______ _______ _____ _____    ______ ____
ROOT
ATOM      1  C   UNL     1       3.255   5.093  18.219  0.00  0.00    +0.000 A 
ATOM      2  C   UNL     1       2.805   4.693  19.483  0.00  0.00    +0.000 A 
ATOM      3  C   UNL     1       2.226   5.617  20.348  0.00  0.00    +0.000 A 
ATOM      4  C   UNL     1       2.110   6.966  19.978  0.00  0.00    +0.000 A 
ATOM      5  C   UNL     1       2.596   7.377  18.734  0.00  0.00    +0.000 A 
ATOM      6  C   UNL     1       3.160   6.446  17.859  0.00  0.00    +0.000 A 
ENDROOT
BRANCH   1   7
ATOM      7  C   UNL     1       3.780   4.072  17.238  0.00  0.00    +0.000 C 
BRANCH   7   8
ATOM      8  N   UNL     1       5.191   3.807  17.507  0.00  0.00    +0.000 NA
ATOM      9  H   UNL     1       5.322   3.732  18.514  0.00  0.00    +0.000 HD
BRANCH   8  10
ATOM     10  C   UNL     1       6.108   4.830  16.969  0.00  0.00    +0.000 C 
BRANCH  10  11
ATOM     11  C   UNL     1       6.367   4.686  15.437  0.00  0.00    +0.000 C 
BRANCH  11  12
ATOM     12  N   UNL     1       7.646   5.234  14.982  0.00  0.00    +0.000 NA
ATOM     13  H   UNL     1       7.486   5.972  14.300  0.00  0.00    +0.000 HD
ATOM     14  H   UNL     1       8.194   4.508  14.528  0.00  0.00    +0.000 HD
ENDBRANCH  11  12
ENDBRANCH  10  11
BRANCH  10  15
ATOM     15  C   UNL     1       7.403   4.718  17.810  0.00  0.00    +0.000 C 
BRANCH  15  16
ATOM     16  C   UNL     1       7.683   5.894  18.745  0.00  0.00    +0.000 C 
BRANCH  16  17
ATOM     17  N   UNL     1       7.835   5.459  20.127  0.00  0.00    +0.000 NA
ATOM     18  H   UNL     1       8.355   4.581  20.148  0.00  0.00    +0.000 HD
ATOM     19  H   UNL     1       6.917   5.247  20.520  0.00  0.00    +0.000 HD
ENDBRANCH  16  17
ENDBRANCH  15  16
ENDBRANCH  10  15
ENDBRANCH   8  10
ENDBRANCH   7   8
ENDBRANCH   1   7
BRANCH   4  20
ATOM     20  C   UNL     1       1.443   7.942  20.920  0.00  0.00    +0.000 C 
BRANCH  20  21
ATOM     21  N   UNL     1       0.876   9.051  20.156  0.00  0.00    +0.000 NA
ATOM     22  H   UNL     1       0.365   8.641  19.376  0.00  0.00    +0.000 HD
BRANCH  21  23
ATOM     23  C   UNL     1      -0.003   9.943  20.931  0.00  0.00    +0.000 C 
BRANCH  23  24
ATOM     24  C   UNL     1       0.288   9.838  22.460  0.00  0.00    +0.000 C 
BRANCH  24  25
ATOM     25  N   UNL     1      -0.886   9.518  23.278  0.00  0.00    +0.000 NA
ATOM     26  H   UNL     1      -1.018  10.245  23.977  0.00  0.00    +0.000 HD
ATOM     27  H   UNL     1      -0.683   8.670  23.809  0.00  0.00    +0.000 HD
ENDBRANCH  24  25
ENDBRANCH  23  24
BRANCH  23  28
ATOM     28  C   UNL     1       0.211  11.400  20.439  0.00  0.00    +0.000 C 
BRANCH  28  29
ATOM     29  C   UNL     1       0.546  11.512  18.949  0.00  0.00    +0.000 C 
BRANCH  29  30
ATOM     30  N   UNL     1      -0.483  10.863  18.141  0.00  0.00    +0.000 NA
ATOM     31  H   UNL     1      -0.746   9.974  18.565  0.00  0.00    +0.000 HD
ATOM     32  H   UNL     1      -0.100  10.641  17.223  0.00  0.00    +0.000 HD
ENDBRANCH  29  30
ENDBRANCH  28  29
ENDBRANCH  23  28
ENDBRANCH  21  23
ENDBRANCH  20  21
ENDBRANCH   4  20
TORSDOF 16
ENDMDL
MODEL 7
REMARK VINA RESULT:      -5.7      5.221      7.662
REMARK  Name = 
REMARK  16 active torsions:
REMARK  status: ('A' for Active; 'I' for Inactive)
REMARK    1  A    between atoms: N_1  and  C_2
REMARK    2  A    between atoms: C_2  and  C_3
REMARK    3  A    between atoms: C_3  and  C_4
REMARK    4  A    between atoms: C_4  and  C_5
REMARK    5  A    between atoms: C_4  and  N_7
REMARK    6  A    between atoms: C_5  and  N_6
REMARK    7  A    between atoms: N_7  and  C_8
REMARK    8  A    between atoms: C_8  and  C_9
REMARK    9  A    between atoms: C_12  and  C_13
REMARK   10  A    between atoms: C_13  and  N_14
REMARK   11  A    between atoms: N_14  and  C_15
REMARK   12  A    between atoms: C_15  and  C_16
REMARK   13  A    between atoms: C_15  and  C_18
REMARK   14  A    between atoms: C_16  and  N_17
REMARK   15  A    between atoms: C_18  and  C_19
REMARK   16  A    between atoms: C_19  and  N_20
REMARK                            x       y       z     vdW  Elec       q    Type
REMARK                         _______ _______ _______ _____ _____    ______ ____
ROOT
ATOM      1  C   UNL     1       1.184   9.579  18.978  0.00  0.00    +0.000 A 
ATOM      2  C   UNL     1       1.874   8.971  17.921  0.00  0.00    +0.000 A 
ATOM      3  C   UNL     1       2.467   7.724  18.094  0.00  0.00    +0.000 A 
ATOM      4  C   UNL     1       2.408   7.070  19.335  0.00  0.00    +0.000 A 
ATOM      5  C   UNL     1       1.758   7.693  20.404  0.00  0.00    +0.000 A 
ATOM      6  C   UNL     1       1.145   8.936  20.224  0.00  0.00    +0.000 A 
ENDROOT
BRANCH   1   7
ATOM      7  C   UNL     1       0.445  10.878  18.759  0.00  0.00    +0.000 C 
BRANCH   7   8
ATOM      8  N   UNL     1      -0.637  10.674  17.800  0.00  0.00    +0.000 NA
ATOM      9  H   UNL     1      -0.455  11.244  16.976  0.00  0.00    +0.000 HD
BRANCH   8  10
ATOM     10  C   UNL     1      -1.977  10.995  18.329  0.00  0.00    +0.000 C 
BRANCH  10  11
ATOM     11  C   UNL     1      -3.042  11.236  17.215  0.00  0.00    +0.000 C 
BRANCH  11  12
ATOM     12  N   UNL     1      -2.493  11.356  15.863  0.00  0.00    +0.000 NA
ATOM     13  H   UNL     1      -2.887  12.170  15.398  0.00  0.00    +0.000 HD
ATOM     14  H   UNL     1      -2.739  10.537  15.313  0.00  0.00    +0.000 HD
ENDBRANCH  11  12
ENDBRANCH  10  11
BRANCH  10  15
ATOM     15  C   UNL     1      -1.782  12.224  19.251  0.00  0.00    +0.000 C 
BRANCH  15  16
ATOM     16  C   UNL     1      -2.952  12.539  20.181  0.00  0.00    +0.000 C 
BRANCH  16  17
ATOM     17  N   UNL     1      -3.192  13.974  20.278  0.00  0.00    +0.000 NA
ATOM     18  H   UNL     1      -3.240  14.241  21.261  0.00  0.00    +0.000 HD
ATOM     19  H   UNL     1      -4.110  14.191  19.887  0.00  0.00    +0.000 HD
ENDBRANCH  16  17
ENDBRANCH  15  16
ENDBRANCH  10  15
ENDBRANCH   8  10
ENDBRANCH   7   8
ENDBRANCH   1   7
BRANCH   4  20
ATOM     20  C   UNL     1       3.027   5.700  19.485  0.00  0.00    +0.000 C 
BRANCH  20  21
ATOM     21  N   UNL     1       2.411   4.776  18.536  0.00  0.00    +0.000 NA
ATOM     22  H   UNL     1       2.275   5.293  17.669  0.00  0.00    +0.000 HD
BRANCH  21  23
ATOM     23  C   UNL     1       3.185   3.550  18.284  0.00  0.00    +0.000 C 
BRANCH  23  24
ATOM     24  C   UNL     1       4.595   3.622  18.947  0.00  0.00    +0.000 C 
BRANCH  24  25
ATOM     25  N   UNL     1       4.971   2.422  19.701  0.00  0.00    +0.000 NA
ATOM     26  H   UNL     1       4.646   1.596  19.204  0.00  0.00    +0.000 HD
ATOM     27  H   UNL     1       4.455   2.425  20.582  0.00  0.00    +0.000 HD
ENDBRANCH  24  25
ENDBRANCH  23  24
BRANCH  23  28
ATOM     28  C   UNL     1       2.388   2.338  18.838  0.00  0.00    +0.000 C 
BRANCH  28  29
ATOM     29  C   UNL     1       0.880   2.577  18.942  0.00  0.00    +0.000 C 
BRANCH  29  30
ATOM     30  N   UNL     1       0.537   3.134  20.248  0.00  0.00    +0.000 NA
ATOM     31  H   UNL     1       0.424   2.381  20.926  0.00  0.00    +0.000 HD
ATOM     32  H   UNL     1      -0.365   3.604  20.188  0.00  0.00    +0.000 HD
ENDBRANCH  29  30
ENDBRANCH  28  29
ENDBRANCH  23  28
ENDBRANCH  21  23
ENDBRANCH  20  21
ENDBRANCH   4  20
TORSDOF 16
ENDMDL
MODEL 8
REMARK VINA RESULT:      -5.7      4.299      8.031
REMARK  Name = 
REMARK  16 active torsions:
REMARK  status: ('A' for Active; 'I' for Inactive)
REMARK    1  A    between atoms: N_1  and  C_2
REMARK    2  A    between atoms: C_2  and  C_3
REMARK    3  A    between atoms: C_3  and  C_4
REMARK    4  A    between atoms: C_4  and  C_5
REMARK    5  A    between atoms: C_4  and  N_7
REMARK    6  A    between atoms: C_5  and  N_6
REMARK    7  A    between atoms: N_7  and  C_8
REMARK    8  A    between atoms: C_8  and  C_9
REMARK    9  A    between atoms: C_12  and  C_13
REMARK   10  A    between atoms: C_13  and  N_14
REMARK   11  A    between atoms: N_14  and  C_15
REMARK   12  A    between atoms: C_15  and  C_16
REMARK   13  A    between atoms: C_15  and  C_18
REMARK   14  A    between atoms: C_16  and  N_17
REMARK   15  A    between atoms: C_18  and  C_19
REMARK   16  A    between atoms: C_19  and  N_20
REMARK                            x       y       z     vdW  Elec       q    Type
REMARK                         _______ _______ _______ _____ _____    ______ ____
ROOT
ATOM      1  C   UNL     1       7.531   7.534  17.927  0.00  0.00    +0.000 A 
ATOM      2  C   UNL     1       6.368   7.363  17.165  0.00  0.00    +0.000 A 
ATOM      3  C   UNL     1       5.592   6.217  17.314  0.00  0.00    +0.000 A 
ATOM      4  C   UNL     1       5.978   5.204  18.206  0.00  0.00    +0.000 A 
ATOM      5  C   UNL     1       7.161   5.352  18.937  0.00  0.00    +0.000 A 
ATOM      6  C   UNL     1       7.928   6.512  18.801  0.00  0.00    +0.000 A 
ENDROOT
BRANCH   1   7
ATOM      7  C   UNL     1       8.311   8.825  17.848  0.00  0.00    +0.000 C 
BRANCH   7   8
ATOM      8  N   UNL     1       8.947   9.097  19.135  0.00  0.00    +0.000 NA
ATOM      9  H   UNL     1       8.250   9.000  19.870  0.00  0.00    +0.000 HD
BRANCH   8  10
ATOM     10  C   UNL     1       9.572  10.431  19.226  0.00  0.00    +0.000 C 
BRANCH  10  11
ATOM     11  C   UNL     1       9.212  11.196  20.537  0.00  0.00    +0.000 C 
BRANCH  11  12
ATOM     12  N   UNL     1      10.354  11.816  21.212  0.00  0.00    +0.000 NA
ATOM     13  H   UNL     1      10.595  11.287  22.047  0.00  0.00    +0.000 HD
ATOM     14  H   UNL     1      10.115  12.761  21.504  0.00  0.00    +0.000 HD
ENDBRANCH  11  12
ENDBRANCH  10  11
BRANCH  10  15
ATOM     15  C   UNL     1       9.134  11.189  17.949  0.00  0.00    +0.000 C 
BRANCH  15  16
ATOM     16  C   UNL     1       8.876  12.684  18.128  0.00  0.00    +0.000 C 
BRANCH  16  17
ATOM     17  N   UNL     1       9.720  13.485  17.250  0.00  0.00    +0.000 NA
ATOM     18  H   UNL     1      10.699  13.280  17.448  0.00  0.00    +0.000 HD
ATOM     19  H   UNL     1       9.594  14.475  17.469  0.00  0.00    +0.000 HD
ENDBRANCH  16  17
ENDBRANCH  15  16
ENDBRANCH  10  15
ENDBRANCH   8  10
ENDBRANCH   7   8
ENDBRANCH   1   7
BRANCH   4  20
ATOM     20  C   UNL     1       5.099   3.988  18.377  0.00  0.00    +0.000 C 
BRANCH  20  21
ATOM     21  N   UNL     1       3.695   4.378  18.268  0.00  0.00    +0.000 NA
ATOM     22  H   UNL     1       3.208   3.600  17.826  0.00  0.00    +0.000 HD
BRANCH  21  23
ATOM     23  C   UNL     1       3.053   4.722  19.547  0.00  0.00    +0.000 C 
BRANCH  23  24
ATOM     24  C   UNL     1       2.602   6.216  19.572  0.00  0.00    +0.000 C 
BRANCH  24  25
ATOM     25  N   UNL     1       1.919   6.621  20.804  0.00  0.00    +0.000 NA
ATOM     26  H   UNL     1       2.460   7.349  21.266  0.00  0.00    +0.000 HD
ATOM     27  H   UNL     1       1.930   5.830  21.450  0.00  0.00    +0.000 HD
ENDBRANCH  24  25
ENDBRANCH  23  24
BRANCH  23  28
ATOM     28  C   UNL     1       1.832   3.786  19.757  0.00  0.00    +0.000 C 
BRANCH  28  29
ATOM     29  C   UNL     1       1.339   3.106  18.477  0.00  0.00    +0.000 C 
BRANCH  29  30
ATOM     30  N   UNL     1       1.946   1.785  18.331  0.00  0.00    +0.000 NA
ATOM     31  H   UNL     1       2.906   1.806  18.671  0.00  0.00    +0.000 HD
ATOM     32  H   UNL     1       1.996   1.545  17.342  0.00  0.00    +0.000 HD
ENDBRANCH  29  30
ENDBRANCH  28  29
ENDBRANCH  23  28
ENDBRANCH  21  23
ENDBRANCH  20  21
ENDBRANCH   4  20
TORSDOF 16
ENDMDL
MODEL 9
REMARK VINA RESULT:      -5.7      3.426      7.971
REMARK  Name = 
REMARK  16 active torsions:
REMARK  status: ('A' for Active; 'I' for Inactive)
REMARK    1  A    between atoms: N_1  and  C_2
REMARK    2  A    between atoms: C_2  and  C_3
REMARK    3  A    between atoms: C_3  and  C_4
REMARK    4  A    between atoms: C_4  and  C_5
REMARK    5  A    between atoms: C_4  and  N_7
REMARK    6  A    between atoms: C_5  and  N_6
REMARK    7  A    between atoms: N_7  and  C_8
REMARK    8  A    between atoms: C_8  and  C_9
REMARK    9  A    between atoms: C_12  and  C_13
REMARK   10  A    between atoms: C_13  and  N_14
REMARK   11  A    between atoms: N_14  and  C_15
REMARK   12  A    between atoms: C_15  and  C_16
REMARK   13  A    between atoms: C_15  and  C_18
REMARK   14  A    between atoms: C_16  and  N_17
REMARK   15  A    between atoms: C_18  and  C_19
REMARK   16  A    between atoms: C_19  and  N_20
REMARK                            x       y       z     vdW  Elec       q    Type
REMARK                         _______ _______ _______ _____ _____    ______ ____
ROOT
ATOM      1  C   UNL     1       3.526   5.110  18.050  0.00  0.00    +0.000 A 
ATOM      2  C   UNL     1       3.329   6.463  17.745  0.00  0.00    +0.000 A 
ATOM      3  C   UNL     1       2.704   7.307  18.659  0.00  0.00    +0.000 A 
ATOM      4  C   UNL     1       2.237   6.809  19.886  0.00  0.00    +0.000 A 
ATOM      5  C   UNL     1       2.393   5.451  20.176  0.00  0.00    +0.000 A 
ATOM      6  C   UNL     1       3.039   4.609  19.266  0.00  0.00    +0.000 A 
ENDROOT
BRANCH   1   7
ATOM      7  C   UNL     1       4.304   4.222  17.109  0.00  0.00    +0.000 C 
BRANCH   7   8
ATOM      8  N   UNL     1       5.657   4.021  17.623  0.00  0.00    +0.000 NA
ATOM      9  H   UNL     1       5.677   4.294  18.603  0.00  0.00    +0.000 HD
BRANCH   8  10
ATOM     10  C   UNL     1       6.696   4.766  16.886  0.00  0.00    +0.000 C 
BRANCH  10  11
ATOM     11  C   UNL     1       7.199   6.037  17.638  0.00  0.00    +0.000 C 
BRANCH  11  12
ATOM     12  N   UNL     1       6.893   7.302  16.966  0.00  0.00    +0.000 NA
ATOM     13  H   UNL     1       7.004   8.077  17.616  0.00  0.00    +0.000 HD
ATOM     14  H   UNL     1       5.927   7.303  16.648  0.00  0.00    +0.000 HD
ENDBRANCH  11  12
ENDBRANCH  10  11
BRANCH  10  15
ATOM     15  C   UNL     1       6.080   5.090  15.503  0.00  0.00    +0.000 C 
BRANCH  15  16
ATOM     16  C   UNL     1       6.870   4.581  14.297  0.00  0.00    +0.000 C 
BRANCH  16  17
ATOM     17  N   UNL     1       7.909   5.522  13.899  0.00  0.00    +0.000 NA
ATOM     18  H   UNL     1       7.569   6.474  14.030  0.00  0.00    +0.000 HD
ATOM     19  H   UNL     1       8.088   5.426  12.898  0.00  0.00    +0.000 HD
ENDBRANCH  16  17
ENDBRANCH  15  16
ENDBRANCH  10  15
ENDBRANCH   8  10
ENDBRANCH   7   8
ENDBRANCH   1   7
BRANCH   4  20
ATOM     20  C   UNL     1       1.596   7.753  20.876  0.00  0.00    +0.000 C 
BRANCH  20  21
ATOM     21  N   UNL     1       1.085   8.929  20.174  0.00  0.00    +0.000 NA
ATOM     22  H   UNL     1       0.833   8.624  19.235  0.00  0.00    +0.000 HD
BRANCH  21  23
ATOM     23  C   UNL     1      -0.062   9.581  20.825  0.00  0.00    +0.000 C 
BRANCH  23  24
ATOM     24  C   UNL     1       0.249   9.921  22.316  0.00  0.00    +0.000 C 
BRANCH  24  25
ATOM     25  N   UNL     1      -0.818   9.558  23.254  0.00  0.00    +0.000 NA
ATOM     26  H   UNL     1      -1.649   9.289  22.732  0.00  0.00    +0.000 HD
ATOM     27  H   UNL     1      -1.086  10.396  23.772  0.00  0.00    +0.000 HD
ENDBRANCH  24  25
ENDBRANCH  23  24
BRANCH  23  28
ATOM     28  C   UNL     1      -0.410  10.874  20.038  0.00  0.00    +0.000 C 
BRANCH  28  29
ATOM     29  C   UNL     1      -1.205  10.626  18.753  0.00  0.00    +0.000 C 
BRANCH  29  30
ATOM     30  N   UNL     1      -0.354  10.021  17.731  0.00  0.00    +0.000 NA
ATOM     31  H   UNL     1      -0.129  10.711  17.016  0.00  0.00    +0.000 HD
ATOM     32  H   UNL     1      -0.869   9.277  17.262  0.00  0.00    +0.000 HD
ENDBRANCH  29  30
ENDBRANCH  28  29
ENDBRANCH  23  28
ENDBRANCH  21  23
ENDBRANCH  20  21
ENDBRANCH   4  20
TORSDOF 16
ENDMDL
