MODEL 1
REMARK VINA RESULT:      -6.7      0.000      0.000
REMARK  Name = 
REMARK  11 active torsions:
REMARK  status: ('A' for Active; 'I' for Inactive)
REMARK    1  A    between atoms: C_1  and  C_2
REMARK    2  A    between atoms: C_2  and  C_3
REMARK    3  A    between atoms: C_3  and  C_4
REMARK    4  A    between atoms: C_4  and  S_5
REMARK    5  A    between atoms: S_5  and  C_6
REMARK    6  A    between atoms: C_8  and  C_9
REMARK    7  A    between atoms: N_18  and  S_19
REMARK    8  A    between atoms: S_19  and  C_22
REMARK    9  A    between atoms: C_25  and  C_26
REMARK   10  A    between atoms: C_30  and  C_31
REMARK   11  A    between atoms: C_31  and  O_33
REMARK                            x       y       z     vdW  Elec       q    Type
REMARK                         _______ _______ _______ _____ _____    ______ ____
ROOT
ATOM      1  C   UNL     1       0.941  15.144  19.613  0.00  0.00    +0.000 C 
ATOM      2  C   UNL     1      -0.188  14.340  18.950  0.00  0.00    +0.000 C 
ATOM      3  C   UNL     1      -0.512  13.021  19.697  0.00  0.00    +0.000 C 
ATOM      4  N   UNL     1       0.741  12.168  19.818  0.00  0.00    +0.000 NA
ATOM      5  C   UNL     1       1.872  12.954  20.472  0.00  0.00    +0.000 C 
ATOM      6  C   UNL     1       2.184  14.256  19.729  0.00  0.00    +0.000 C 
ENDROOT
BRANCH   3   7
ATOM      7  C   UNL     1      -1.641  12.338  18.953  0.00  0.00    +0.000 A 
ATOM      8  C   UNL     1      -2.951  12.319  19.488  0.00  0.00    +0.000 A 
ATOM      9  C   UNL     1      -4.019  11.820  18.736  0.00  0.00    +0.000 A 
ATOM     10  C   UNL     1      -3.748  11.344  17.474  0.00  0.00    +0.000 A 
ATOM     11  C   UNL     1      -2.473  11.337  16.959  0.00  0.00    +0.000 A 
ATOM     12  C   UNL     1      -1.410  11.828  17.667  0.00  0.00    +0.000 A 
ATOM     13  O   UNL     1      -2.420  10.868  15.686  0.00  0.00    +0.000 OA
ATOM     14  C   UNL     1      -3.806  10.566  15.458  0.00  0.00    +0.000 C 
ATOM     15  O   UNL     1      -4.662  10.892  16.574  0.00  0.00    +0.000 OA
ENDBRANCH   3   7
BRANCH   4  16
ATOM     16  S   UNL     1       0.430  10.665  20.719  0.00  0.00    +0.000 S 
ATOM     17  O   UNL     1       1.108  10.783  21.980  0.00  0.00    +0.000 OA
ATOM     18  O   UNL     1      -1.003  10.388  20.663  0.00  0.00    +0.000 OA
BRANCH  16  19
ATOM     19  C   UNL     1       1.259   9.370  19.825  0.00  0.00    +0.000 A 
ATOM     20  C   UNL     1       1.569   8.168  20.468  0.00  0.00    +0.000 A 
ATOM     21  C   UNL     1       2.238   7.165  19.764  0.00  0.00    +0.000 A 
ATOM     22  C   UNL     1       2.546   7.331  18.408  0.00  0.00    +0.000 A 
ATOM     23  C   UNL     1       3.261   6.256  17.645  0.00  0.00    +0.000 C 
ATOM     24  C   UNL     1       2.170   8.513  17.757  0.00  0.00    +0.000 A 
ATOM     25  C   UNL     1       1.543   9.538  18.468  0.00  0.00    +0.000 A 
ENDBRANCH  16  19
ENDBRANCH   4  16
BRANCH   6  26
ATOM     26  C   UNL     1       2.831  13.943  18.378  0.00  0.00    +0.000 C 
ATOM     27  O   UNL     1       3.258  14.809  17.622  0.00  0.00    +0.000 OA
BRANCH  26  28
ATOM     28  O   UNL     1       2.880  12.640  18.036  0.00  0.00    +0.000 OA
ATOM     29  H   UNL     1       3.346  12.445  17.189  0.00  0.00    +0.000 HD
ENDBRANCH  26  28
ENDBRANCH   6  26
BRANCH   1  30
ATOM     30  S   UNL     1       0.288  15.745  21.245  0.00  0.00    +0.000 S 
BRANCH  30  31
ATOM     31  C   UNL     1      -1.416  16.251  20.837  0.00  0.00    +0.000 C 
BRANCH  31  32
ATOM     32  C   UNL     1      -2.279  15.961  22.067  0.00  0.00    +0.000 C 
BRANCH  32  34
ATOM     33  C   UNL     1      -4.053  14.335  22.795  0.00  0.00    +0.000 C 
ATOM     34  C   UNL     1      -3.612  15.306  21.708  0.00  0.00    +0.000 C 
ENDBRANCH  32  34
ENDBRANCH  31  32
ENDBRANCH  30  31
ENDBRANCH   1  30
TORSDOF 9
ENDMDL
MODEL 2
REMARK VINA RESULT:      -6.3      1.385      2.404
REMARK  Name = 
REMARK  11 active torsions:
REMARK  status: ('A' for Active; 'I' for Inactive)
REMARK    1  A    between atoms: C_1  and  C_2
REMARK    2  A    between atoms: C_2  and  C_3
REMARK    3  A    between atoms: C_3  and  C_4
REMARK    4  A    between atoms: C_4  and  S_5
REMARK    5  A    between atoms: S_5  and  C_6
REMARK    6  A    between atoms: C_8  and  C_9
REMARK    7  A    between atoms: N_18  and  S_19
REMARK    8  A    between atoms: S_19  and  C_22
REMARK    9  A    between atoms: C_25  and  C_26
REMARK   10  A    between atoms: C_30  and  C_31
REMARK   11  A    between atoms: C_31  and  O_33
REMARK                            x       y       z     vdW  Elec       q    Type
REMARK                         _______ _______ _______ _____ _____    ______ ____
ROOT
ATOM      1  C   UNL     1       0.995  15.131  19.499  0.00  0.00    +0.000 C 
ATOM      2  C   UNL     1      -0.159  14.340  18.866  0.00  0.00    +0.000 C 
ATOM      3  C   UNL     1      -0.499  13.040  19.638  0.00  0.00    +0.000 C 
ATOM      4  N   UNL     1       0.739  12.164  19.756  0.00  0.00    +0.000 NA
ATOM      5  C   UNL     1       1.895  12.937  20.380  0.00  0.00    +0.000 C 
ATOM      6  C   UNL     1       2.221  14.220  19.613  0.00  0.00    +0.000 C 
ENDROOT
BRANCH   3   7
ATOM      7  C   UNL     1      -1.652  12.368  18.921  0.00  0.00    +0.000 A 
ATOM      8  C   UNL     1      -2.952  12.373  19.481  0.00  0.00    +0.000 A 
ATOM      9  C   UNL     1      -4.041  11.884  18.754  0.00  0.00    +0.000 A 
ATOM     10  C   UNL     1      -3.801  11.394  17.491  0.00  0.00    +0.000 A 
ATOM     11  C   UNL     1      -2.537  11.363  16.952  0.00  0.00    +0.000 A 
ATOM     12  C   UNL     1      -1.453  11.844  17.636  0.00  0.00    +0.000 A 
ATOM     13  O   UNL     1      -2.514  10.884  15.682  0.00  0.00    +0.000 OA
ATOM     14  C   UNL     1      -3.909  10.601  15.482  0.00  0.00    +0.000 C 
ATOM     15  O   UNL     1      -4.738  10.948  16.612  0.00  0.00    +0.000 OA
ENDBRANCH   3   7
BRANCH   4  16
ATOM     16  S   UNL     1       0.410  10.682  20.685  0.00  0.00    +0.000 S 
ATOM     17  O   UNL     1       1.072  10.825  21.952  0.00  0.00    +0.000 OA
ATOM     18  O   UNL     1      -1.023  10.409  20.616  0.00  0.00    +0.000 OA
BRANCH  16  19
ATOM     19  C   UNL     1       1.247   9.365  19.831  0.00  0.00    +0.000 A 
ATOM     20  C   UNL     1       1.568   8.187  20.512  0.00  0.00    +0.000 A 
ATOM     21  C   UNL     1       2.242   7.166  19.838  0.00  0.00    +0.000 A 
ATOM     22  C   UNL     1       2.544   7.291  18.476  0.00  0.00    +0.000 A 
ATOM     23  C   UNL     1       3.265   6.196  17.747  0.00  0.00    +0.000 C 
ATOM     24  C   UNL     1       2.156   8.448  17.789  0.00  0.00    +0.000 A 
ATOM     25  C   UNL     1       1.524   9.491  18.468  0.00  0.00    +0.000 A 
ENDBRANCH  16  19
ENDBRANCH   4  16
BRANCH   6  26
ATOM     26  C   UNL     1       2.842  13.872  18.258  0.00  0.00    +0.000 C 
ATOM     27  O   UNL     1       3.825  14.449  17.802  0.00  0.00    +0.000 OA
BRANCH  26  28
ATOM     28  O   UNL     1       2.224  12.901  17.558  0.00  0.00    +0.000 OA
ATOM     29  H   UNL     1       2.498  12.823  16.613  0.00  0.00    +0.000 HD
ENDBRANCH  26  28
ENDBRANCH   6  26
BRANCH   1  30
ATOM     30  S   UNL     1       0.378  15.772  21.130  0.00  0.00    +0.000 S 
BRANCH  30  31
ATOM     31  C   UNL     1       1.905  16.348  21.942  0.00  0.00    +0.000 C 
BRANCH  31  32
ATOM     32  C   UNL     1       2.216  17.739  21.384  0.00  0.00    +0.000 C 
BRANCH  32  34
ATOM     33  C   UNL     1       4.576  18.603  21.454  0.00  0.00    +0.000 C 
ATOM     34  C   UNL     1       3.560  17.793  20.659  0.00  0.00    +0.000 C 
ENDBRANCH  32  34
ENDBRANCH  31  32
ENDBRANCH  30  31
ENDBRANCH   1  30
TORSDOF 9
ENDMDL
MODEL 3
REMARK VINA RESULT:      -6.3      2.108      7.676
REMARK  Name = 
REMARK  11 active torsions:
REMARK  status: ('A' for Active; 'I' for Inactive)
REMARK    1  A    between atoms: C_1  and  C_2
REMARK    2  A    between atoms: C_2  and  C_3
REMARK    3  A    between atoms: C_3  and  C_4
REMARK    4  A    between atoms: C_4  and  S_5
REMARK    5  A    between atoms: S_5  and  C_6
REMARK    6  A    between atoms: C_8  and  C_9
REMARK    7  A    between atoms: N_18  and  S_19
REMARK    8  A    between atoms: S_19  and  C_22
REMARK    9  A    between atoms: C_25  and  C_26
REMARK   10  A    between atoms: C_30  and  C_31
REMARK   11  A    between atoms: C_31  and  O_33
REMARK                            x       y       z     vdW  Elec       q    Type
REMARK                         _______ _______ _______ _____ _____    ______ ____
ROOT
ATOM      1  C   UNL     1       0.452  10.155  19.064  0.00  0.00    +0.000 C 
ATOM      2  C   UNL     1       1.281  11.428  18.840  0.00  0.00    +0.000 C 
ATOM      3  C   UNL     1       1.095  12.478  19.965  0.00  0.00    +0.000 C 
ATOM      4  N   UNL     1      -0.377  12.828  20.115  0.00  0.00    +0.000 NA
ATOM      5  C   UNL     1      -1.214  11.573  20.335  0.00  0.00    +0.000 C 
ATOM      6  C   UNL     1      -1.022  10.541  19.221  0.00  0.00    +0.000 C 
ENDROOT
BRANCH   3   7
ATOM      7  C   UNL     1       1.971  13.669  19.631  0.00  0.00    +0.000 A 
ATOM      8  C   UNL     1       1.663  14.506  18.532  0.00  0.00    +0.000 A 
ATOM      9  C   UNL     1       2.382  15.684  18.312  0.00  0.00    +0.000 A 
ATOM     10  C   UNL     1       3.396  15.990  19.191  0.00  0.00    +0.000 A 
ATOM     11  C   UNL     1       3.715  15.168  20.245  0.00  0.00    +0.000 A 
ATOM     12  C   UNL     1       3.023  14.013  20.491  0.00  0.00    +0.000 A 
ATOM     13  O   UNL     1       4.715  15.665  21.019  0.00  0.00    +0.000 OA
ATOM     14  C   UNL     1       5.000  16.891  20.326  0.00  0.00    +0.000 C 
ATOM     15  O   UNL     1       4.150  17.121  19.182  0.00  0.00    +0.000 OA
ENDBRANCH   3   7
BRANCH   4  16
ATOM     16  S   UNL     1      -0.646  13.991  21.435  0.00  0.00    +0.000 S 
ATOM     17  O   UNL     1       0.288  13.667  22.478  0.00  0.00    +0.000 OA
ATOM     18  O   UNL     1      -0.688  15.333  20.859  0.00  0.00    +0.000 OA
BRANCH  16  19
ATOM     19  C   UNL     1      -2.263  13.638  22.087  0.00  0.00    +0.000 A 
ATOM     20  C   UNL     1      -2.391  12.973  23.309  0.00  0.00    +0.000 A 
ATOM     21  C   UNL     1      -3.666  12.683  23.803  0.00  0.00    +0.000 A 
ATOM     22  C   UNL     1      -4.809  13.105  23.113  0.00  0.00    +0.000 A 
ATOM     23  C   UNL     1      -6.180  12.799  23.639  0.00  0.00    +0.000 C 
ATOM     24  C   UNL     1      -4.666  13.830  21.923  0.00  0.00    +0.000 A 
ATOM     25  C   UNL     1      -3.396  14.082  21.401  0.00  0.00    +0.000 A 
ENDBRANCH  16  19
ENDBRANCH   4  16
BRANCH   6  26
ATOM     26  C   UNL     1      -1.654  11.052  17.924  0.00  0.00    +0.000 C 
ATOM     27  O   UNL     1      -1.779  10.358  16.920  0.00  0.00    +0.000 OA
BRANCH  26  28
ATOM     28  O   UNL     1      -2.048  12.341  17.928  0.00  0.00    +0.000 OA
ATOM     29  H   UNL     1      -1.433  12.970  17.483  0.00  0.00    +0.000 HD
ENDBRANCH  26  28
ENDBRANCH   6  26
BRANCH   1  30
ATOM     30  S   UNL     1       1.170   9.298  20.547  0.00  0.00    +0.000 S 
BRANCH  30  31
ATOM     31  C   UNL     1       1.900   7.789  19.829  0.00  0.00    +0.000 C 
BRANCH  31  32
ATOM     32  C   UNL     1       2.222   8.097  18.364  0.00  0.00    +0.000 C 
BRANCH  32  34
ATOM     33  C   UNL     1       2.989   5.732  17.995  0.00  0.00    +0.000 C 
ATOM     34  C   UNL     1       3.330   7.205  17.806  0.00  0.00    +0.000 C 
ENDBRANCH  32  34
ENDBRANCH  31  32
ENDBRANCH  30  31
ENDBRANCH   1  30
TORSDOF 9
ENDMDL
MODEL 4
REMARK VINA RESULT:      -6.3      0.588      1.206
REMARK  Name = 
REMARK  11 active torsions:
REMARK  status: ('A' for Active; 'I' for Inactive)
REMARK    1  A    between atoms: C_1  and  C_2
REMARK    2  A    between atoms: C_2  and  C_3
REMARK    3  A    between atoms: C_3  and  C_4
REMARK    4  A    between atoms: C_4  and  S_5
REMARK    5  A    between atoms: S_5  and  C_6
REMARK    6  A    between atoms: C_8  and  C_9
REMARK    7  A    between atoms: N_18  and  S_19
REMARK    8  A    between atoms: S_19  and  C_22
REMARK    9  A    between atoms: C_25  and  C_26
REMARK   10  A    between atoms: C_30  and  C_31
REMARK   11  A    between atoms: C_31  and  O_33
REMARK                            x       y       z     vdW  Elec       q    Type
REMARK                         _______ _______ _______ _____ _____    ______ ____
ROOT
ATOM      1  C   UNL     1       1.144  14.948  19.585  0.00  0.00    +0.000 C 
ATOM      2  C   UNL     1      -0.041  14.205  18.952  0.00  0.00    +0.000 C 
ATOM      3  C   UNL     1      -0.415  12.904  19.706  0.00  0.00    +0.000 C 
ATOM      4  N   UNL     1       0.794  11.986  19.796  0.00  0.00    +0.000 NA
ATOM      5  C   UNL     1       1.982  12.711  20.420  0.00  0.00    +0.000 C 
ATOM      6  C   UNL     1       2.342  13.996  19.670  0.00  0.00    +0.000 C 
ENDROOT
BRANCH   3   7
ATOM      7  C   UNL     1      -1.597  12.282  18.992  0.00  0.00    +0.000 A 
ATOM      8  C   UNL     1      -2.896  12.350  19.549  0.00  0.00    +0.000 A 
ATOM      9  C   UNL     1      -4.006  11.908  18.823  0.00  0.00    +0.000 A 
ATOM     10  C   UNL     1      -3.787  11.400  17.563  0.00  0.00    +0.000 A 
ATOM     11  C   UNL     1      -2.525  11.308  17.027  0.00  0.00    +0.000 A 
ATOM     12  C   UNL     1      -1.421  11.742  17.710  0.00  0.00    +0.000 A 
ATOM     13  O   UNL     1      -2.523  10.821  15.759  0.00  0.00    +0.000 OA
ATOM     14  C   UNL     1      -3.929  10.602  15.560  0.00  0.00    +0.000 C 
ATOM     15  O   UNL     1      -4.743  10.993  16.686  0.00  0.00    +0.000 OA
ENDBRANCH   3   7
BRANCH   4  16
ATOM     16  S   UNL     1       0.428  10.501  20.704  0.00  0.00    +0.000 S 
ATOM     17  O   UNL     1       1.090  10.611  21.975  0.00  0.00    +0.000 OA
ATOM     18  O   UNL     1      -1.012  10.263  20.629  0.00  0.00    +0.000 OA
BRANCH  16  19
ATOM     19  C   UNL     1       1.234   9.175  19.835  0.00  0.00    +0.000 A 
ATOM     20  C   UNL     1       1.558   9.324  18.483  0.00  0.00    +0.000 A 
ATOM     21  C   UNL     1       2.173   8.270  17.804  0.00  0.00    +0.000 A 
ATOM     22  C   UNL     1       2.520   7.093  18.480  0.00  0.00    +0.000 A 
ATOM     23  C   UNL     1       3.183   5.959  17.756  0.00  0.00    +0.000 C 
ATOM     24  C   UNL     1       2.251   6.983  19.850  0.00  0.00    +0.000 A 
ATOM     25  C   UNL     1       1.594   8.014  20.523  0.00  0.00    +0.000 A 
ENDBRANCH  16  19
ENDBRANCH   4  16
BRANCH   6  26
ATOM     26  C   UNL     1       2.936  13.650  18.302  0.00  0.00    +0.000 C 
ATOM     27  O   UNL     1       3.063  12.499  17.897  0.00  0.00    +0.000 OA
BRANCH  26  28
ATOM     28  O   UNL     1       3.354  14.695  17.560  0.00  0.00    +0.000 OA
ATOM     29  H   UNL     1       3.079  14.675  16.613  0.00  0.00    +0.000 HD
ENDBRANCH  26  28
ENDBRANCH   6  26
BRANCH   1  30
ATOM     30  S   UNL     1       0.566  15.581  21.233  0.00  0.00    +0.000 S 
BRANCH  30  31
ATOM     31  C   UNL     1      -1.033  16.359  20.829  0.00  0.00    +0.000 C 
BRANCH  31  32
ATOM     32  C   UNL     1      -2.056  15.841  21.843  0.00  0.00    +0.000 C 
BRANCH  32  34
ATOM     33  C   UNL     1      -2.727  16.429  24.193  0.00  0.00    +0.000 C 
ATOM     34  C   UNL     1      -2.577  16.941  22.766  0.00  0.00    +0.000 C 
ENDBRANCH  32  34
ENDBRANCH  31  32
ENDBRANCH  30  31
ENDBRANCH   1  30
TORSDOF 9
ENDMDL
MODEL 5
REMARK VINA RESULT:      -6.2      1.294      2.252
REMARK  Name = 
REMARK  11 active torsions:
REMARK  status: ('A' for Active; 'I' for Inactive)
REMARK    1  A    between atoms: C_1  and  C_2
REMARK    2  A    between atoms: C_2  and  C_3
REMARK    3  A    between atoms: C_3  and  C_4
REMARK    4  A    between atoms: C_4  and  S_5
REMARK    5  A    between atoms: S_5  and  C_6
REMARK    6  A    between atoms: C_8  and  C_9
REMARK    7  A    between atoms: N_18  and  S_19
REMARK    8  A    between atoms: S_19  and  C_22
REMARK    9  A    between atoms: C_25  and  C_26
REMARK   10  A    between atoms: C_30  and  C_31
REMARK   11  A    between atoms: C_31  and  O_33
REMARK                            x       y       z     vdW  Elec       q    Type
REMARK                         _______ _______ _______ _____ _____    ______ ____
ROOT
ATOM      1  C   UNL     1       1.122  15.045  19.567  0.00  0.00    +0.000 C 
ATOM      2  C   UNL     1      -0.110  14.350  18.969  0.00  0.00    +0.000 C 
ATOM      3  C   UNL     1      -0.511  13.063  19.733  0.00  0.00    +0.000 C 
ATOM      4  N   UNL     1       0.664  12.099  19.785  0.00  0.00    +0.000 NA
ATOM      5  C   UNL     1       1.897  12.775  20.374  0.00  0.00    +0.000 C 
ATOM      6  C   UNL     1       2.284  14.047  19.614  0.00  0.00    +0.000 C 
ENDROOT
BRANCH   3   7
ATOM      7  C   UNL     1      -1.737  12.488  19.054  0.00  0.00    +0.000 A 
ATOM      8  C   UNL     1      -1.618  11.739  17.860  0.00  0.00    +0.000 A 
ATOM      9  C   UNL     1      -2.728  11.087  17.315  0.00  0.00    +0.000 A 
ATOM     10  C   UNL     1      -3.930  11.209  17.973  0.00  0.00    +0.000 A 
ATOM     11  C   UNL     1      -4.057  11.956  19.120  0.00  0.00    +0.000 A 
ATOM     12  C   UNL     1      -2.987  12.597  19.682  0.00  0.00    +0.000 A 
ATOM     13  O   UNL     1      -5.311  11.917  19.640  0.00  0.00    +0.000 OA
ATOM     14  C   UNL     1      -5.967  11.070  18.683  0.00  0.00    +0.000 C 
ATOM     15  O   UNL     1      -5.094  10.590  17.638  0.00  0.00    +0.000 OA
ENDBRANCH   3   7
BRANCH   4  16
ATOM     16  S   UNL     1       0.268  10.626  20.703  0.00  0.00    +0.000 S 
ATOM     17  O   UNL     1       0.860  10.770  22.004  0.00  0.00    +0.000 OA
ATOM     18  O   UNL     1      -1.163  10.369  20.557  0.00  0.00    +0.000 OA
BRANCH  16  19
ATOM     19  C   UNL     1       1.135   9.294  19.904  0.00  0.00    +0.000 A 
ATOM     20  C   UNL     1       1.462   8.144  20.627  0.00  0.00    +0.000 A 
ATOM     21  C   UNL     1       2.160   7.112  19.996  0.00  0.00    +0.000 A 
ATOM     22  C   UNL     1       2.480   7.197  18.635  0.00  0.00    +0.000 A 
ATOM     23  C   UNL     1       3.227   6.090  17.951  0.00  0.00    +0.000 C 
ATOM     24  C   UNL     1       2.087   8.326  17.905  0.00  0.00    +0.000 A 
ATOM     25  C   UNL     1       1.430   9.381  18.542  0.00  0.00    +0.000 A 
ENDBRANCH  16  19
ENDBRANCH   4  16
BRANCH   6  26
ATOM     26  C   UNL     1       2.823  13.681  18.229  0.00  0.00    +0.000 C 
ATOM     27  O   UNL     1       2.943  12.524  17.840  0.00  0.00    +0.000 OA
BRANCH  26  28
ATOM     28  O   UNL     1       3.198  14.716  17.451  0.00  0.00    +0.000 OA
ATOM     29  H   UNL     1       3.372  14.491  16.506  0.00  0.00    +0.000 HD
ENDBRANCH  26  28
ENDBRANCH   6  26
BRANCH   1  30
ATOM     30  S   UNL     1       0.619  15.696  21.232  0.00  0.00    +0.000 S 
BRANCH  30  31
ATOM     31  C   UNL     1      -0.190  17.277  20.820  0.00  0.00    +0.000 C 
BRANCH  31  32
ATOM     32  C   UNL     1       0.698  17.984  19.792  0.00  0.00    +0.000 C 
BRANCH  32  34
ATOM     33  C   UNL     1      -1.460  17.842  18.509  0.00  0.00    +0.000 C 
ATOM     34  C   UNL     1      -0.095  18.512  18.597  0.00  0.00    +0.000 C 
ENDBRANCH  32  34
ENDBRANCH  31  32
ENDBRANCH  30  31
ENDBRANCH   1  30
TORSDOF 9
ENDMDL
MODEL 6
REMARK VINA RESULT:      -6.1      2.337      6.639
REMARK  Name = 
REMARK  11 active torsions:
REMARK  status: ('A' for Active; 'I' for Inactive)
REMARK    1  A    between atoms: C_1  and  C_2
REMARK    2  A    between atoms: C_2  and  C_3
REMARK    3  A    between atoms: C_3  and  C_4
REMARK    4  A    between atoms: C_4  and  S_5
REMARK    5  A    between atoms: S_5  and  C_6
REMARK    6  A    between atoms: C_8  and  C_9
REMARK    7  A    between atoms: N_18  and  S_19
REMARK    8  A    between atoms: S_19  and  C_22
REMARK    9  A    between atoms: C_25  and  C_26
REMARK   10  A    between atoms: C_30  and  C_31
REMARK   11  A    between atoms: C_31  and  O_33
REMARK                            x       y       z     vdW  Elec       q    Type
REMARK                         _______ _______ _______ _____ _____    ______ ____
ROOT
ATOM      1  C   UNL     1       0.404  13.718  21.173  0.00  0.00    +0.000 C 
ATOM      2  C   UNL     1       0.892  12.313  20.790  0.00  0.00    +0.000 C 
ATOM      3  C   UNL     1       0.216  11.765  19.508  0.00  0.00    +0.000 C 
ATOM      4  N   UNL     1      -1.296  11.772  19.670  0.00  0.00    +0.000 NA
ATOM      5  C   UNL     1      -1.795  13.160  20.054  0.00  0.00    +0.000 C 
ATOM      6  C   UNL     1      -1.121  13.694  21.320  0.00  0.00    +0.000 C 
ENDROOT
BRANCH   3   7
ATOM      7  C   UNL     1       0.791  10.390  19.237  0.00  0.00    +0.000 A 
ATOM      8  C   UNL     1       1.475  10.118  18.028  0.00  0.00    +0.000 A 
ATOM      9  C   UNL     1       2.131   8.897  17.842  0.00  0.00    +0.000 A 
ATOM     10  C   UNL     1       2.079   7.978  18.864  0.00  0.00    +0.000 A 
ATOM     11  C   UNL     1       1.396   8.227  20.030  0.00  0.00    +0.000 A 
ATOM     12  C   UNL     1       0.752   9.416  20.245  0.00  0.00    +0.000 A 
ATOM     13  O   UNL     1       1.499   7.216  20.930  0.00  0.00    +0.000 OA
ATOM     14  C   UNL     1       2.315   6.291  20.194  0.00  0.00    +0.000 C 
ATOM     15  O   UNL     1       2.714   6.776  18.894  0.00  0.00    +0.000 OA
ENDBRANCH   3   7
BRANCH   4  16
ATOM     16  S   UNL     1      -2.119  11.202  18.199  0.00  0.00    +0.000 S 
ATOM     17  O   UNL     1      -1.536  11.906  17.091  0.00  0.00    +0.000 OA
ATOM     18  O   UNL     1      -2.144   9.741  18.227  0.00  0.00    +0.000 OA
BRANCH  16  19
ATOM     19  C   UNL     1      -3.801  11.767  18.320  0.00  0.00    +0.000 A 
ATOM     20  C   UNL     1      -4.307  12.189  19.553  0.00  0.00    +0.000 A 
ATOM     21  C   UNL     1      -5.635  12.612  19.642  0.00  0.00    +0.000 A 
ATOM     22  C   UNL     1      -6.441  12.673  18.498  0.00  0.00    +0.000 A 
ATOM     23  C   UNL     1      -7.866  13.130  18.587  0.00  0.00    +0.000 C 
ATOM     24  C   UNL     1      -5.901  12.312  17.256  0.00  0.00    +0.000 A 
ATOM     25  C   UNL     1      -4.589  11.844  17.170  0.00  0.00    +0.000 A 
ENDBRANCH  16  19
ENDBRANCH   4  16
BRANCH   6  26
ATOM     26  C   UNL     1      -1.597  12.899  22.538  0.00  0.00    +0.000 C 
ATOM     27  O   UNL     1      -1.053  12.963  23.636  0.00  0.00    +0.000 OA
BRANCH  26  28
ATOM     28  O   UNL     1      -2.650  12.083  22.334  0.00  0.00    +0.000 OA
ATOM     29  H   UNL     1      -3.509  12.537  22.165  0.00  0.00    +0.000 HD
ENDBRANCH  26  28
ENDBRANCH   6  26
BRANCH   1  30
ATOM     30  S   UNL     1       1.017  14.879  19.858  0.00  0.00    +0.000 S 
BRANCH  30  31
ATOM     31  C   UNL     1       2.779  14.432  19.714  0.00  0.00    +0.000 C 
BRANCH  31  32
ATOM     32  C   UNL     1       3.085  14.279  18.222  0.00  0.00    +0.000 C 
BRANCH  32  34
ATOM     33  C   UNL     1       3.140  16.603  17.264  0.00  0.00    +0.000 C 
ATOM     34  C   UNL     1       3.974  15.401  17.687  0.00  0.00    +0.000 C 
ENDBRANCH  32  34
ENDBRANCH  31  32
ENDBRANCH  30  31
ENDBRANCH   1  30
TORSDOF 9
ENDMDL
MODEL 7
REMARK VINA RESULT:      -6.1      0.962      1.581
REMARK  Name = 
REMARK  11 active torsions:
REMARK  status: ('A' for Active; 'I' for Inactive)
REMARK    1  A    between atoms: C_1  and  C_2
REMARK    2  A    between atoms: C_2  and  C_3
REMARK    3  A    between atoms: C_3  and  C_4
REMARK    4  A    between atoms: C_4  and  S_5
REMARK    5  A    between atoms: S_5  and  C_6
REMARK    6  A    between atoms: C_8  and  C_9
REMARK    7  A    between atoms: N_18  and  S_19
REMARK    8  A    between atoms: S_19  and  C_22
REMARK    9  A    between atoms: C_25  and  C_26
REMARK   10  A    between atoms: C_30  and  C_31
REMARK   11  A    between atoms: C_31  and  O_33
REMARK                            x       y       z     vdW  Elec       q    Type
REMARK                         _______ _______ _______ _____ _____    ______ ____
ROOT
ATOM      1  C   UNL     1       1.068  15.196  19.610  0.00  0.00    +0.000 C 
ATOM      2  C   UNL     1      -0.190  14.520  19.045  0.00  0.00    +0.000 C 
ATOM      3  C   UNL     1      -0.543  13.195  19.767  0.00  0.00    +0.000 C 
ATOM      4  N   UNL     1       0.638  12.239  19.711  0.00  0.00    +0.000 NA
ATOM      5  C   UNL     1       1.896  12.897  20.266  0.00  0.00    +0.000 C 
ATOM      6  C   UNL     1       2.236  14.206  19.549  0.00  0.00    +0.000 C 
ENDROOT
BRANCH   3   7
ATOM      7  C   UNL     1      -1.801  12.644  19.126  0.00  0.00    +0.000 A 
ATOM      8  C   UNL     1      -1.742  11.968  17.884  0.00  0.00    +0.000 A 
ATOM      9  C   UNL     1      -2.874  11.333  17.366  0.00  0.00    +0.000 A 
ATOM     10  C   UNL     1      -4.038  11.398  18.097  0.00  0.00    +0.000 A 
ATOM     11  C   UNL     1      -4.107  12.074  19.292  0.00  0.00    +0.000 A 
ATOM     12  C   UNL     1      -3.013  12.697  19.829  0.00  0.00    +0.000 A 
ATOM     13  O   UNL     1      -5.328  11.987  19.880  0.00  0.00    +0.000 OA
ATOM     14  C   UNL     1      -6.029  11.187  18.913  0.00  0.00    +0.000 C 
ATOM     15  O   UNL     1      -5.212  10.783  17.793  0.00  0.00    +0.000 OA
ENDBRANCH   3   7
BRANCH   4  16
ATOM     16  S   UNL     1       0.299  10.722  20.577  0.00  0.00    +0.000 S 
ATOM     17  O   UNL     1       0.892  10.840  21.880  0.00  0.00    +0.000 OA
ATOM     18  O   UNL     1      -1.123  10.419  20.427  0.00  0.00    +0.000 OA
BRANCH  16  19
ATOM     19  C   UNL     1       1.208   9.451  19.728  0.00  0.00    +0.000 A 
ATOM     20  C   UNL     1       1.569   8.283  20.404  0.00  0.00    +0.000 A 
ATOM     21  C   UNL     1       2.300   7.299  19.734  0.00  0.00    +0.000 A 
ATOM     22  C   UNL     1       2.620   7.449  18.379  0.00  0.00    +0.000 A 
ATOM     23  C   UNL     1       3.402   6.395  17.653  0.00  0.00    +0.000 C 
ATOM     24  C   UNL     1       2.193   8.594  17.694  0.00  0.00    +0.000 A 
ATOM     25  C   UNL     1       1.503   9.601  18.371  0.00  0.00    +0.000 A 
ENDBRANCH  16  19
ENDBRANCH   4  16
BRANCH   6  26
ATOM     26  C   UNL     1       2.703  13.911  18.122  0.00  0.00    +0.000 C 
ATOM     27  O   UNL     1       3.220  14.756  17.397  0.00  0.00    +0.000 OA
BRANCH  26  28
ATOM     28  O   UNL     1       2.487  12.657  17.678  0.00  0.00    +0.000 OA
ATOM     29  H   UNL     1       2.090  12.040  18.337  0.00  0.00    +0.000 HD
ENDBRANCH  26  28
ENDBRANCH   6  26
BRANCH   1  30
ATOM     30  S   UNL     1       0.649  15.764  21.329  0.00  0.00    +0.000 S 
BRANCH  30  31
ATOM     31  C   UNL     1      -1.019  16.472  21.125  0.00  0.00    +0.000 C 
BRANCH  31  32
ATOM     32  C   UNL     1      -1.539  16.809  22.525  0.00  0.00    +0.000 C 
BRANCH  32  34
ATOM     33  C   UNL     1      -2.049  14.776  23.913  0.00  0.00    +0.000 C 
ATOM     34  C   UNL     1      -2.628  15.845  22.995  0.00  0.00    +0.000 C 
ENDBRANCH  32  34
ENDBRANCH  31  32
ENDBRANCH  30  31
ENDBRANCH   1  30
TORSDOF 9
ENDMDL
MODEL 8
REMARK VINA RESULT:      -6.1      2.261      6.380
REMARK  Name = 
REMARK  11 active torsions:
REMARK  status: ('A' for Active; 'I' for Inactive)
REMARK    1  A    between atoms: C_1  and  C_2
REMARK    2  A    between atoms: C_2  and  C_3
REMARK    3  A    between atoms: C_3  and  C_4
REMARK    4  A    between atoms: C_4  and  S_5
REMARK    5  A    between atoms: S_5  and  C_6
REMARK    6  A    between atoms: C_8  and  C_9
REMARK    7  A    between atoms: N_18  and  S_19
REMARK    8  A    between atoms: S_19  and  C_22
REMARK    9  A    between atoms: C_25  and  C_26
REMARK   10  A    between atoms: C_30  and  C_31
REMARK   11  A    between atoms: C_31  and  O_33
REMARK                            x       y       z     vdW  Elec       q    Type
REMARK                         _______ _______ _______ _____ _____    ______ ____
ROOT
ATOM      1  C   UNL     1       0.525   9.277  20.134  0.00  0.00    +0.000 C 
ATOM      2  C   UNL     1      -0.821   9.712  19.536  0.00  0.00    +0.000 C 
ATOM      3  C   UNL     1      -0.790  11.149  18.956  0.00  0.00    +0.000 C 
ATOM      4  N   UNL     1      -0.346  12.134  20.026  0.00  0.00    +0.000 NA
ATOM      5  C   UNL     1       0.988  11.713  20.632  0.00  0.00    +0.000 C 
ATOM      6  C   UNL     1       0.949  10.292  21.200  0.00  0.00    +0.000 C 
ENDROOT
BRANCH   3   7
ATOM      7  C   UNL     1      -2.164  11.446  18.391  0.00  0.00    +0.000 A 
ATOM      8  C   UNL     1      -2.466  11.158  17.039  0.00  0.00    +0.000 A 
ATOM      9  C   UNL     1      -3.772  11.295  16.558  0.00  0.00    +0.000 A 
ATOM     10  C   UNL     1      -4.739  11.722  17.437  0.00  0.00    +0.000 A 
ATOM     11  C   UNL     1      -4.446  12.027  18.746  0.00  0.00    +0.000 A 
ATOM     12  C   UNL     1      -3.180  11.894  19.248  0.00  0.00    +0.000 A 
ATOM     13  O   UNL     1      -5.541  12.390  19.462  0.00  0.00    +0.000 OA
ATOM     14  C   UNL     1      -6.560  12.293  18.454  0.00  0.00    +0.000 C 
ATOM     15  O   UNL     1      -6.067  11.842  17.173  0.00  0.00    +0.000 OA
ENDBRANCH   3   7
BRANCH   4  16
ATOM     16  S   UNL     1      -0.242  13.793  19.391  0.00  0.00    +0.000 S 
ATOM     17  O   UNL     1      -0.395  13.708  17.965  0.00  0.00    +0.000 OA
ATOM     18  O   UNL     1      -1.122  14.643  20.189  0.00  0.00    +0.000 OA
BRANCH  16  19
ATOM     19  C   UNL     1       1.428  14.333  19.682  0.00  0.00    +0.000 A 
ATOM     20  C   UNL     1       2.398  14.160  18.691  0.00  0.00    +0.000 A 
ATOM     21  C   UNL     1       3.711  14.569  18.936  0.00  0.00    +0.000 A 
ATOM     22  C   UNL     1       4.046  15.202  20.140  0.00  0.00    +0.000 A 
ATOM     23  C   UNL     1       5.454  15.645  20.407  0.00  0.00    +0.000 C 
ATOM     24  C   UNL     1       3.050  15.430  21.098  0.00  0.00    +0.000 A 
ATOM     25  C   UNL     1       1.747  14.981  20.877  0.00  0.00    +0.000 A 
ENDBRANCH  16  19
ENDBRANCH   4  16
BRANCH   6  26
ATOM     26  C   UNL     1       0.070  10.256  22.452  0.00  0.00    +0.000 C 
ATOM     27  O   UNL     1      -0.246   9.215  23.020  0.00  0.00    +0.000 OA
BRANCH  26  28
ATOM     28  O   UNL     1      -0.378  11.448  22.893  0.00  0.00    +0.000 OA
ATOM     29  H   UNL     1      -0.759  11.445  23.803  0.00  0.00    +0.000 HD
ENDBRANCH  26  28
ENDBRANCH   6  26
BRANCH   1  30
ATOM     30  S   UNL     1       1.720   9.123  18.720  0.00  0.00    +0.000 S 
BRANCH  30  31
ATOM     31  C   UNL     1       2.344   7.420  18.902  0.00  0.00    +0.000 C 
BRANCH  31  32
ATOM     32  C   UNL     1       3.416   7.216  17.828  0.00  0.00    +0.000 C 
BRANCH  32  34
ATOM     33  C   UNL     1       2.494   4.881  17.952  0.00  0.00    +0.000 C 
ATOM     34  C   UNL     1       3.681   5.740  17.536  0.00  0.00    +0.000 C 
ENDBRANCH  32  34
ENDBRANCH  31  32
ENDBRANCH  30  31
ENDBRANCH   1  30
TORSDOF 9
ENDMDL
MODEL 9
REMARK VINA RESULT:      -6.0      2.208      6.445
REMARK  Name = 
REMARK  11 active torsions:
REMARK  status: ('A' for Active; 'I' for Inactive)
REMARK    1  A    between atoms: C_1  and  C_2
REMARK    2  A    between atoms: C_2  and  C_3
REMARK    3  A    between atoms: C_3  and  C_4
REMARK    4  A    between atoms: C_4  and  S_5
REMARK    5  A    between atoms: S_5  and  C_6
REMARK    6  A    between atoms: C_8  and  C_9
REMARK    7  A    between atoms: N_18  and  S_19
REMARK    8  A    between atoms: S_19  and  C_22
REMARK    9  A    between atoms: C_25  and  C_26
REMARK   10  A    between atoms: C_30  and  C_31
REMARK   11  A    between atoms: C_31  and  O_33
REMARK                            x       y       z     vdW  Elec       q    Type
REMARK                         _______ _______ _______ _____ _____    ______ ____
ROOT
ATOM      1  C   UNL     1       0.607   9.578  19.733  0.00  0.00    +0.000 C 
ATOM      2  C   UNL     1      -0.809   9.938  19.259  0.00  0.00    +0.000 C 
ATOM      3  C   UNL     1      -0.962  11.436  18.892  0.00  0.00    +0.000 C 
ATOM      4  N   UNL     1      -0.565  12.307  20.074  0.00  0.00    +0.000 NA
ATOM      5  C   UNL     1       0.838  11.958  20.558  0.00  0.00    +0.000 C 
ATOM      6  C   UNL     1       0.981  10.476  20.916  0.00  0.00    +0.000 C 
ENDROOT
BRANCH   3   7
ATOM      7  C   UNL     1      -2.389  11.653  18.432  0.00  0.00    +0.000 A 
ATOM      8  C   UNL     1      -2.759  11.414  17.087  0.00  0.00    +0.000 A 
ATOM      9  C   UNL     1      -4.100  11.472  16.697  0.00  0.00    +0.000 A 
ATOM     10  C   UNL     1      -5.035  11.774  17.659  0.00  0.00    +0.000 A 
ATOM     11  C   UNL     1      -4.680  12.031  18.962  0.00  0.00    +0.000 A 
ATOM     12  C   UNL     1      -3.376  11.973  19.375  0.00  0.00    +0.000 A 
ATOM     13  O   UNL     1      -5.749  12.267  19.765  0.00  0.00    +0.000 OA
ATOM     14  C   UNL     1      -6.822  12.144  18.818  0.00  0.00    +0.000 C 
ATOM     15  O   UNL     1      -6.384  11.802  17.486  0.00  0.00    +0.000 OA
ENDBRANCH   3   7
BRANCH   4  16
ATOM     16  S   UNL     1      -0.672  14.039  19.681  0.00  0.00    +0.000 S 
ATOM     17  O   UNL     1      -0.502  14.159  18.260  0.00  0.00    +0.000 OA
ATOM     18  O   UNL     1      -1.855  14.584  20.342  0.00  0.00    +0.000 OA
BRANCH  16  19
ATOM     19  C   UNL     1       0.753  14.805  20.420  0.00  0.00    +0.000 A 
ATOM     20  C   UNL     1       1.852  15.145  19.625  0.00  0.00    +0.000 A 
ATOM     21  C   UNL     1       2.974  15.728  20.218  0.00  0.00    +0.000 A 
ATOM     22  C   UNL     1       2.982  16.027  21.587  0.00  0.00    +0.000 A 
ATOM     23  C   UNL     1       4.183  16.656  22.228  0.00  0.00    +0.000 C 
ATOM     24  C   UNL     1       1.849  15.743  22.359  0.00  0.00    +0.000 A 
ATOM     25  C   UNL     1       0.743  15.118  21.781  0.00  0.00    +0.000 A 
ENDBRANCH  16  19
ENDBRANCH   4  16
BRANCH   6  26
ATOM     26  C   UNL     1       0.183  10.168  22.184  0.00  0.00    +0.000 C 
ATOM     27  O   UNL     1      -0.069   9.026  22.558  0.00  0.00    +0.000 OA
BRANCH  26  28
ATOM     28  O   UNL     1      -0.269  11.236  22.872  0.00  0.00    +0.000 OA
ATOM     29  H   UNL     1      -1.248  11.285  22.978  0.00  0.00    +0.000 HD
ENDBRANCH  26  28
ENDBRANCH   6  26
BRANCH   1  30
ATOM     30  S   UNL     1       1.730   9.758  18.264  0.00  0.00    +0.000 S 
BRANCH  30  31
ATOM     31  C   UNL     1       2.250   8.040  17.940  0.00  0.00    +0.000 C 
BRANCH  31  32
ATOM     32  C   UNL     1       2.324   7.328  19.292  0.00  0.00    +0.000 C 
BRANCH  32  34
ATOM     33  C   UNL     1       2.164   4.963  18.457  0.00  0.00    +0.000 C 
ATOM     34  C   UNL     1       3.024   5.973  19.205  0.00  0.00    +0.000 C 
ENDBRANCH  32  34
ENDBRANCH  31  32
ENDBRANCH  30  31
ENDBRANCH   1  30
TORSDOF 9
ENDMDL
