MODEL 1
REMARK VINA RESULT:      -8.1      0.000      0.000
REMARK  Name = 
REMARK  4 active torsions:
REMARK  status: ('A' for Active; 'I' for Inactive)
REMARK    1  A    between atoms: C_2  and  O_3
REMARK    2  A    between atoms: C_2  and  C_4
REMARK    3  A    between atoms: N_12  and  C_13
REMARK    4  A    between atoms: C_13  and  C_14
REMARK                            x       y       z     vdW  Elec       q    Type
REMARK                         _______ _______ _______ _____ _____    ______ ____
ROOT
ATOM      1  C   UNL     1       6.429   4.200  14.527  0.00  0.00    +0.000 A 
ATOM      2  C   UNL     1       7.433   4.791  15.333  0.00  0.00    +0.000 A 
ATOM      3  C   UNL     1       7.182   5.094  16.679  0.00  0.00    +0.000 A 
ATOM      4  C   UNL     1       5.922   4.808  17.171  0.00  0.00    +0.000 A 
ATOM      5  C   UNL     1       4.934   4.250  16.382  0.00  0.00    +0.000 A 
ATOM      6  C   UNL     1       5.154   3.932  15.055  0.00  0.00    +0.000 A 
ATOM      7  C   UNL     1       3.722   4.153  17.200  0.00  0.00    +0.000 C 
ATOM      8  O   UNL     1       2.651   3.758  16.782  0.00  0.00    +0.000 OA
ATOM      9  N   UNL     1       4.046   4.627  18.439  0.00  0.00    +0.000 N 
ATOM     10  C   UNL     1       5.342   5.053  18.490  0.00  0.00    +0.000 C 
ATOM     11  O   UNL     1       5.948   5.576  19.404  0.00  0.00    +0.000 OA
ENDROOT
BRANCH   1  13
ATOM     12  O   UNL     1       7.355   4.620  12.380  0.00  0.00    +0.000 OA
ATOM     13  C   UNL     1       6.653   3.916  13.083  0.00  0.00    +0.000 C 
BRANCH  13  14
ATOM     14  O   UNL     1       5.993   2.835  12.620  0.00  0.00    +0.000 OA
ATOM     15  H   UNL     1       6.251   2.520  11.735  0.00  0.00    +0.000 HD
ENDBRANCH  13  14
ENDBRANCH   1  13
BRANCH   9  16
ATOM     16  C   UNL     1       3.105   4.784  19.531  0.00  0.00    +0.000 C 
BRANCH  16  17
ATOM     17  C   UNL     1       2.532   6.183  19.606  0.00  0.00    +0.000 A 
ATOM     18  C   UNL     1       1.871   6.618  20.780  0.00  0.00    +0.000 A 
ATOM     19  C   UNL     1       1.297   7.891  20.855  0.00  0.00    +0.000 A 
ATOM     20  C   UNL     1       1.393   8.706  19.749  0.00  0.00    +0.000 A 
ATOM     21  C   UNL     1       2.047   8.301  18.609  0.00  0.00    +0.000 A 
ATOM     22  C   UNL     1       2.625   7.052  18.505  0.00  0.00    +0.000 A 
ATOM     23  O   UNL     1       2.029   9.254  17.638  0.00  0.00    +0.000 OA
ATOM     24  C   UNL     1       1.244  10.282  18.278  0.00  0.00    +0.000 C 
ATOM     25  O   UNL     1       0.872   9.957  19.634  0.00  0.00    +0.000 OA
ENDBRANCH  16  17
ENDBRANCH   9  16
TORSDOF 4
ENDMDL
MODEL 2
REMARK VINA RESULT:      -8.0      0.725      1.500
REMARK  Name = 
REMARK  4 active torsions:
REMARK  status: ('A' for Active; 'I' for Inactive)
REMARK    1  A    between atoms: C_2  and  O_3
REMARK    2  A    between atoms: C_2  and  C_4
REMARK    3  A    between atoms: N_12  and  C_13
REMARK    4  A    between atoms: C_13  and  C_14
REMARK                            x       y       z     vdW  Elec       q    Type
REMARK                         _______ _______ _______ _____ _____    ______ ____
ROOT
ATOM      1  C   UNL     1       6.439   4.257  14.773  0.00  0.00    +0.000 A 
ATOM      2  C   UNL     1       7.464   4.767  15.608  0.00  0.00    +0.000 A 
ATOM      3  C   UNL     1       7.210   5.055  16.956  0.00  0.00    +0.000 A 
ATOM      4  C   UNL     1       5.926   4.838  17.422  0.00  0.00    +0.000 A 
ATOM      5  C   UNL     1       4.920   4.359  16.606  0.00  0.00    +0.000 A 
ATOM      6  C   UNL     1       5.141   4.057  15.275  0.00  0.00    +0.000 A 
ATOM      7  C   UNL     1       3.690   4.320  17.402  0.00  0.00    +0.000 C 
ATOM      8  O   UNL     1       2.604   4.001  16.959  0.00  0.00    +0.000 OA
ATOM      9  N   UNL     1       4.022   4.745  18.657  0.00  0.00    +0.000 N 
ATOM     10  C   UNL     1       5.341   5.089  18.738  0.00  0.00    +0.000 C 
ATOM     11  O   UNL     1       5.962   5.553  19.673  0.00  0.00    +0.000 OA
ENDROOT
BRANCH   1  13
ATOM     12  O   UNL     1       7.330   4.734  12.624  0.00  0.00    +0.000 OA
ATOM     13  C   UNL     1       6.668   3.992  13.327  0.00  0.00    +0.000 C 
BRANCH  13  14
ATOM     14  O   UNL     1       6.062   2.880  12.862  0.00  0.00    +0.000 OA
ATOM     15  H   UNL     1       5.107   2.804  13.040  0.00  0.00    +0.000 HD
ENDBRANCH  13  14
ENDBRANCH   1  13
BRANCH   9  16
ATOM     16  C   UNL     1       3.075   4.937  19.738  0.00  0.00    +0.000 C 
BRANCH  16  17
ATOM     17  C   UNL     1       2.447   6.314  19.723  0.00  0.00    +0.000 A 
ATOM     18  C   UNL     1       2.572   7.139  18.580  0.00  0.00    +0.000 A 
ATOM     19  C   UNL     1       2.037   8.432  18.561  0.00  0.00    +0.000 A 
ATOM     20  C   UNL     1       1.387   8.874  19.691  0.00  0.00    +0.000 A 
ATOM     21  C   UNL     1       1.245   8.077  20.801  0.00  0.00    +0.000 A 
ATOM     22  C   UNL     1       1.761   6.797  20.850  0.00  0.00    +0.000 A 
ATOM     23  O   UNL     1       0.572   8.703  21.804  0.00  0.00    +0.000 OA
ATOM     24  C   UNL     1       0.355  10.003  21.217  0.00  0.00    +0.000 C 
ATOM     25  O   UNL     1       0.833  10.105  19.860  0.00  0.00    +0.000 OA
ENDBRANCH  16  17
ENDBRANCH   9  16
TORSDOF 4
ENDMDL
MODEL 3
REMARK VINA RESULT:      -7.8      4.008      6.327
REMARK  Name = 
REMARK  4 active torsions:
REMARK  status: ('A' for Active; 'I' for Inactive)
REMARK    1  A    between atoms: C_2  and  O_3
REMARK    2  A    between atoms: C_2  and  C_4
REMARK    3  A    between atoms: N_12  and  C_13
REMARK    4  A    between atoms: C_13  and  C_14
REMARK                            x       y       z     vdW  Elec       q    Type
REMARK                         _______ _______ _______ _____ _____    ______ ____
ROOT
ATOM      1  C   UNL     1       2.193   4.517  20.214  0.00  0.00    +0.000 A 
ATOM      2  C   UNL     1       2.702   4.535  18.892  0.00  0.00    +0.000 A 
ATOM      3  C   UNL     1       2.775   5.735  18.172  0.00  0.00    +0.000 A 
ATOM      4  C   UNL     1       2.317   6.881  18.796  0.00  0.00    +0.000 A 
ATOM      5  C   UNL     1       1.801   6.863  20.077  0.00  0.00    +0.000 A 
ATOM      6  C   UNL     1       1.725   5.698  20.817  0.00  0.00    +0.000 A 
ATOM      7  C   UNL     1       1.351   8.223  20.388  0.00  0.00    +0.000 C 
ATOM      8  O   UNL     1       0.791   8.533  21.421  0.00  0.00    +0.000 OA
ATOM      9  N   UNL     1       1.644   8.991  19.297  0.00  0.00    +0.000 N 
ATOM     10  C   UNL     1       2.208   8.251  18.299  0.00  0.00    +0.000 C 
ATOM     11  O   UNL     1       2.542   8.590  17.181  0.00  0.00    +0.000 OA
ENDROOT
BRANCH   1  13
ATOM     12  O   UNL     1       3.021   2.631  21.397  0.00  0.00    +0.000 OA
ATOM     13  C   UNL     1       2.057   3.249  20.983  0.00  0.00    +0.000 C 
BRANCH  13  14
ATOM     14  O   UNL     1       0.785   2.836  21.154  0.00  0.00    +0.000 OA
ATOM     15  H   UNL     1       0.664   1.896  21.379  0.00  0.00    +0.000 HD
ENDBRANCH  13  14
ENDBRANCH   1  13
BRANCH   9  16
ATOM     16  C   UNL     1       1.286  10.389  19.157  0.00  0.00    +0.000 C 
BRANCH  16  17
ATOM     17  C   UNL     1      -0.184  10.585  18.856  0.00  0.00    +0.000 A 
ATOM     18  C   UNL     1      -0.772   9.945  17.738  0.00  0.00    +0.000 A 
ATOM     19  C   UNL     1      -2.118  10.146  17.417  0.00  0.00    +0.000 A 
ATOM     20  C   UNL     1      -2.852  10.988  18.222  0.00  0.00    +0.000 A 
ATOM     21  C   UNL     1      -2.297  11.602  19.320  0.00  0.00    +0.000 A 
ATOM     22  C   UNL     1      -0.972  11.423  19.663  0.00  0.00    +0.000 A 
ATOM     23  O   UNL     1      -3.191  12.389  19.978  0.00  0.00    +0.000 OA
ATOM     24  C   UNL     1      -4.355  12.241  19.138  0.00  0.00    +0.000 C 
ATOM     25  O   UNL     1      -4.159  11.320  18.045  0.00  0.00    +0.000 OA
ENDBRANCH  16  17
ENDBRANCH   9  16
TORSDOF 4
ENDMDL
MODEL 4
REMARK VINA RESULT:      -7.7      3.234      5.597
REMARK  Name = 
REMARK  4 active torsions:
REMARK  status: ('A' for Active; 'I' for Inactive)
REMARK    1  A    between atoms: C_2  and  O_3
REMARK    2  A    between atoms: C_2  and  C_4
REMARK    3  A    between atoms: N_12  and  C_13
REMARK    4  A    between atoms: C_13  and  C_14
REMARK                            x       y       z     vdW  Elec       q    Type
REMARK                         _______ _______ _______ _____ _____    ______ ____
ROOT
ATOM      1  C   UNL     1       3.265   4.550  19.024  0.00  0.00    +0.000 A 
ATOM      2  C   UNL     1       2.687   4.512  20.317  0.00  0.00    +0.000 A 
ATOM      3  C   UNL     1       2.004   5.626  20.826  0.00  0.00    +0.000 A 
ATOM      4  C   UNL     1       1.937   6.751  20.027  0.00  0.00    +0.000 A 
ATOM      5  C   UNL     1       2.517   6.798  18.773  0.00  0.00    +0.000 A 
ATOM      6  C   UNL     1       3.188   5.714  18.240  0.00  0.00    +0.000 A 
ATOM      7  C   UNL     1       2.315   8.151  18.246  0.00  0.00    +0.000 C 
ATOM      8  O   UNL     1       2.760   8.539  17.184  0.00  0.00    +0.000 OA
ATOM      9  N   UNL     1       1.603   8.836  19.190  0.00  0.00    +0.000 N 
ATOM     10  C   UNL     1       1.356   8.066  20.290  0.00  0.00    +0.000 C 
ATOM     11  O   UNL     1       0.804   8.362  21.330  0.00  0.00    +0.000 OA
ENDROOT
BRANCH   1  13
ATOM     12  O   UNL     1       3.587   2.651  17.634  0.00  0.00    +0.000 OA
ATOM     13  C   UNL     1       4.039   3.401  18.480  0.00  0.00    +0.000 C 
BRANCH  13  14
ATOM     14  O   UNL     1       5.265   3.249  19.022  0.00  0.00    +0.000 OA
ATOM     15  H   UNL     1       5.792   2.499  18.691  0.00  0.00    +0.000 HD
ENDBRANCH  13  14
ENDBRANCH   1  13
BRANCH   9  16
ATOM     16  C   UNL     1       1.262  10.242  19.100  0.00  0.00    +0.000 C 
BRANCH  16  17
ATOM     17  C   UNL     1      -0.202  10.466  18.785  0.00  0.00    +0.000 A 
ATOM     18  C   UNL     1      -0.787   9.851  17.653  0.00  0.00    +0.000 A 
ATOM     19  C   UNL     1      -2.127  10.077  17.320  0.00  0.00    +0.000 A 
ATOM     20  C   UNL     1      -2.856  10.920  18.129  0.00  0.00    +0.000 A 
ATOM     21  C   UNL     1      -2.303  11.510  19.241  0.00  0.00    +0.000 A 
ATOM     22  C   UNL     1      -0.985  11.305  19.596  0.00  0.00    +0.000 A 
ATOM     23  O   UNL     1      -3.192  12.302  19.901  0.00  0.00    +0.000 OA
ATOM     24  C   UNL     1      -4.349  12.184  19.046  0.00  0.00    +0.000 C 
ATOM     25  O   UNL     1      -4.155  11.275  17.942  0.00  0.00    +0.000 OA
ENDBRANCH  16  17
ENDBRANCH   9  16
TORSDOF 4
ENDMDL
MODEL 5
REMARK VINA RESULT:      -7.7      0.941      1.647
REMARK  Name = 
REMARK  4 active torsions:
REMARK  status: ('A' for Active; 'I' for Inactive)
REMARK    1  A    between atoms: C_2  and  O_3
REMARK    2  A    between atoms: C_2  and  C_4
REMARK    3  A    between atoms: N_12  and  C_13
REMARK    4  A    between atoms: C_13  and  C_14
REMARK                            x       y       z     vdW  Elec       q    Type
REMARK                         _______ _______ _______ _____ _____    ______ ____
ROOT
ATOM      1  C   UNL     1       5.967   3.892  13.909  0.00  0.00    +0.000 A 
ATOM      2  C   UNL     1       7.079   4.641  14.369  0.00  0.00    +0.000 A 
ATOM      3  C   UNL     1       7.105   5.153  15.673  0.00  0.00    +0.000 A 
ATOM      4  C   UNL     1       6.003   4.911  16.473  0.00  0.00    +0.000 A 
ATOM      5  C   UNL     1       4.909   4.199  16.022  0.00  0.00    +0.000 A 
ATOM      6  C   UNL     1       4.858   3.673  14.744  0.00  0.00    +0.000 A 
ATOM      7  C   UNL     1       3.911   4.199  17.096  0.00  0.00    +0.000 C 
ATOM      8  O   UNL     1       2.805   3.706  16.994  0.00  0.00    +0.000 OA
ATOM      9  N   UNL     1       4.463   4.881  18.143  0.00  0.00    +0.000 N 
ATOM     10  C   UNL     1       5.707   5.351  17.836  0.00  0.00    +0.000 C 
ATOM     11  O   UNL     1       6.459   6.037  18.499  0.00  0.00    +0.000 OA
ENDROOT
BRANCH   1  13
ATOM     12  O   UNL     1       4.836   3.253  11.921  0.00  0.00    +0.000 OA
ATOM     13  C   UNL     1       5.892   3.382  12.513  0.00  0.00    +0.000 C 
BRANCH  13  14
ATOM     14  O   UNL     1       7.085   3.052  11.976  0.00  0.00    +0.000 OA
ATOM     15  H   UNL     1       7.287   3.441  11.106  0.00  0.00    +0.000 HD
ENDBRANCH  13  14
ENDBRANCH   1  13
BRANCH   9  16
ATOM     16  C   UNL     1       3.772   5.185  19.380  0.00  0.00    +0.000 C 
BRANCH  16  17
ATOM     17  C   UNL     1       2.952   6.454  19.290  0.00  0.00    +0.000 A 
ATOM     18  C   UNL     1       2.979   7.236  18.111  0.00  0.00    +0.000 A 
ATOM     19  C   UNL     1       2.262   8.434  18.022  0.00  0.00    +0.000 A 
ATOM     20  C   UNL     1       1.532   8.828  19.121  0.00  0.00    +0.000 A 
ATOM     21  C   UNL     1       1.484   8.069  20.266  0.00  0.00    +0.000 A 
ATOM     22  C   UNL     1       2.178   6.882  20.384  0.00  0.00    +0.000 A 
ATOM     23  O   UNL     1       0.706   8.635  21.228  0.00  0.00    +0.000 OA
ATOM     24  C   UNL     1       0.315   9.862  20.576  0.00  0.00    +0.000 C 
ATOM     25  O   UNL     1       0.802   9.971  19.222  0.00  0.00    +0.000 OA
ENDBRANCH  16  17
ENDBRANCH   9  16
TORSDOF 4
ENDMDL
MODEL 6
REMARK VINA RESULT:      -7.7      4.065      6.222
REMARK  Name = 
REMARK  4 active torsions:
REMARK  status: ('A' for Active; 'I' for Inactive)
REMARK    1  A    between atoms: C_2  and  O_3
REMARK    2  A    between atoms: C_2  and  C_4
REMARK    3  A    between atoms: N_12  and  C_13
REMARK    4  A    between atoms: C_13  and  C_14
REMARK                            x       y       z     vdW  Elec       q    Type
REMARK                         _______ _______ _______ _____ _____    ______ ____
ROOT
ATOM      1  C   UNL     1       2.062   4.521  20.123  0.00  0.00    +0.000 A 
ATOM      2  C   UNL     1       2.513   4.567  18.780  0.00  0.00    +0.000 A 
ATOM      3  C   UNL     1       2.616   5.790  18.103  0.00  0.00    +0.000 A 
ATOM      4  C   UNL     1       2.247   6.931  18.790  0.00  0.00    +0.000 A 
ATOM      5  C   UNL     1       1.788   6.888  20.093  0.00  0.00    +0.000 A 
ATOM      6  C   UNL     1       1.683   5.699  20.790  0.00  0.00    +0.000 A 
ATOM      7  C   UNL     1       1.424   8.255  20.476  0.00  0.00    +0.000 C 
ATOM      8  O   UNL     1       0.927   8.551  21.544  0.00  0.00    +0.000 OA
ATOM      9  N   UNL     1       1.708   9.051  19.402  0.00  0.00    +0.000 N 
ATOM     10  C   UNL     1       2.188   8.324  18.351  0.00  0.00    +0.000 C 
ATOM     11  O   UNL     1       2.490   8.690  17.233  0.00  0.00    +0.000 OA
ENDROOT
BRANCH   1  13
ATOM     12  O   UNL     1       1.493   2.221  20.298  0.00  0.00    +0.000 OA
ATOM     13  C   UNL     1       1.894   3.232  20.847  0.00  0.00    +0.000 C 
BRANCH  13  14
ATOM     14  O   UNL     1       2.196   3.289  22.161  0.00  0.00    +0.000 OA
ATOM     15  H   UNL     1       2.022   4.138  22.606  0.00  0.00    +0.000 HD
ENDBRANCH  13  14
ENDBRANCH   1  13
BRANCH   9  16
ATOM     16  C   UNL     1       1.418  10.470  19.332  0.00  0.00    +0.000 C 
BRANCH  16  17
ATOM     17  C   UNL     1      -0.030  10.750  18.991  0.00  0.00    +0.000 A 
ATOM     18  C   UNL     1      -0.794  11.623  19.800  0.00  0.00    +0.000 A 
ATOM     19  C   UNL     1      -2.145  11.863  19.528  0.00  0.00    +0.000 A 
ATOM     20  C   UNL     1      -2.706  11.220  18.448  0.00  0.00    +0.000 A 
ATOM     21  C   UNL     1      -1.970  10.382  17.644  0.00  0.00    +0.000 A 
ATOM     22  C   UNL     1      -0.635  10.126  17.886  0.00  0.00    +0.000 A 
ATOM     23  O   UNL     1      -2.712   9.851  16.634  0.00  0.00    +0.000 OA
ATOM     24  C   UNL     1      -4.011  10.409  16.928  0.00  0.00    +0.000 C 
ATOM     25  O   UNL     1      -4.005  11.311  18.054  0.00  0.00    +0.000 OA
ENDBRANCH  16  17
ENDBRANCH   9  16
TORSDOF 4
ENDMDL
MODEL 7
REMARK VINA RESULT:      -7.6      3.342      5.430
REMARK  Name = 
REMARK  4 active torsions:
REMARK  status: ('A' for Active; 'I' for Inactive)
REMARK    1  A    between atoms: C_2  and  O_3
REMARK    2  A    between atoms: C_2  and  C_4
REMARK    3  A    between atoms: N_12  and  C_13
REMARK    4  A    between atoms: C_13  and  C_14
REMARK                            x       y       z     vdW  Elec       q    Type
REMARK                         _______ _______ _______ _____ _____    ______ ____
ROOT
ATOM      1  C   UNL     1       2.893   4.446  18.829  0.00  0.00    +0.000 A 
ATOM      2  C   UNL     1       2.459   4.422  20.178  0.00  0.00    +0.000 A 
ATOM      3  C   UNL     1       1.950   5.579  20.785  0.00  0.00    +0.000 A 
ATOM      4  C   UNL     1       1.907   6.731  20.023  0.00  0.00    +0.000 A 
ATOM      5  C   UNL     1       2.348   6.763  18.714  0.00  0.00    +0.000 A 
ATOM      6  C   UNL     1       2.846   5.638  18.085  0.00  0.00    +0.000 A 
ATOM      7  C   UNL     1       2.224   8.146  18.242  0.00  0.00    +0.000 C 
ATOM      8  O   UNL     1       2.586   8.523  17.146  0.00  0.00    +0.000 OA
ATOM      9  N   UNL     1       1.692   8.865  19.274  0.00  0.00    +0.000 N 
ATOM     10  C   UNL     1       1.492   8.087  20.378  0.00  0.00    +0.000 C 
ATOM     11  O   UNL     1       1.089   8.400  21.480  0.00  0.00    +0.000 OA
ENDROOT
BRANCH   1  13
ATOM     12  O   UNL     1       2.843   2.521  17.440  0.00  0.00    +0.000 OA
ATOM     13  C   UNL     1       3.485   3.247  18.177  0.00  0.00    +0.000 C 
BRANCH  13  14
ATOM     14  O   UNL     1       4.777   3.022  18.493  0.00  0.00    +0.000 OA
ATOM     15  H   UNL     1       5.050   3.276  19.393  0.00  0.00    +0.000 HD
ENDBRANCH  13  14
ENDBRANCH   1  13
BRANCH   9  16
ATOM     16  C   UNL     1       1.483  10.299  19.254  0.00  0.00    +0.000 C 
BRANCH  16  17
ATOM     17  C   UNL     1       0.051  10.674  18.939  0.00  0.00    +0.000 A 
ATOM     18  C   UNL     1      -0.647  11.578  19.774  0.00  0.00    +0.000 A 
ATOM     19  C   UNL     1      -1.985  11.904  19.526  0.00  0.00    +0.000 A 
ATOM     20  C   UNL     1      -2.599  11.315  18.444  0.00  0.00    +0.000 A 
ATOM     21  C   UNL     1      -1.927  10.448  17.615  0.00  0.00    +0.000 A 
ATOM     22  C   UNL     1      -0.607  10.108  17.833  0.00  0.00    +0.000 A 
ATOM     23  O   UNL     1      -2.714   9.981  16.608  0.00  0.00    +0.000 OA
ATOM     24  C   UNL     1      -3.972  10.612  16.930  0.00  0.00    +0.000 C 
ATOM     25  O   UNL     1      -3.895  11.493  18.070  0.00  0.00    +0.000 OA
ENDBRANCH  16  17
ENDBRANCH   9  16
TORSDOF 4
ENDMDL
MODEL 8
REMARK VINA RESULT:      -7.5      2.661      3.662
REMARK  Name = 
REMARK  4 active torsions:
REMARK  status: ('A' for Active; 'I' for Inactive)
REMARK    1  A    between atoms: C_2  and  O_3
REMARK    2  A    between atoms: C_2  and  C_4
REMARK    3  A    between atoms: N_12  and  C_13
REMARK    4  A    between atoms: C_13  and  C_14
REMARK                            x       y       z     vdW  Elec       q    Type
REMARK                         _______ _______ _______ _____ _____    ______ ____
ROOT
ATOM      1  C   UNL     1       6.031   3.473  12.879  0.00  0.00    +0.000 A 
ATOM      2  C   UNL     1       6.995   4.500  12.724  0.00  0.00    +0.000 A 
ATOM      3  C   UNL     1       7.404   5.267  13.824  0.00  0.00    +0.000 A 
ATOM      4  C   UNL     1       6.819   4.990  15.045  0.00  0.00    +0.000 A 
ATOM      5  C   UNL     1       5.865   4.002  15.196  0.00  0.00    +0.000 A 
ATOM      6  C   UNL     1       5.448   3.223  14.133  0.00  0.00    +0.000 A 
ATOM      7  C   UNL     1       5.416   4.034  16.592  0.00  0.00    +0.000 C 
ATOM      8  O   UNL     1       4.533   3.328  17.037  0.00  0.00    +0.000 OA
ATOM      9  N   UNL     1       6.140   5.012  17.213  0.00  0.00    +0.000 N 
ATOM     10  C   UNL     1       6.988   5.638  16.345  0.00  0.00    +0.000 C 
ATOM     11  O   UNL     1       7.733   6.577  16.537  0.00  0.00    +0.000 OA
ENDROOT
BRANCH   1  13
ATOM     12  O   UNL     1       4.485   2.917  11.164  0.00  0.00    +0.000 OA
ATOM     13  C   UNL     1       5.542   2.679  11.719  0.00  0.00    +0.000 C 
BRANCH  13  14
ATOM     14  O   UNL     1       6.353   1.664  11.358  0.00  0.00    +0.000 OA
ATOM     15  H   UNL     1       7.076   1.888  10.744  0.00  0.00    +0.000 HD
ENDBRANCH  13  14
ENDBRANCH   1  13
BRANCH   9  16
ATOM     16  C   UNL     1       5.947   5.428  18.588  0.00  0.00    +0.000 C 
BRANCH  16  17
ATOM     17  C   UNL     1       4.563   5.099  19.106  0.00  0.00    +0.000 A 
ATOM     18  C   UNL     1       3.485   5.982  18.863  0.00  0.00    +0.000 A 
ATOM     19  C   UNL     1       2.207   5.719  19.368  0.00  0.00    +0.000 A 
ATOM     20  C   UNL     1       2.035   4.573  20.111  0.00  0.00    +0.000 A 
ATOM     21  C   UNL     1       3.070   3.698  20.340  0.00  0.00    +0.000 A 
ATOM     22  C   UNL     1       4.341   3.930  19.854  0.00  0.00    +0.000 A 
ATOM     23  O   UNL     1       2.687   2.631  21.093  0.00  0.00    +0.000 OA
ATOM     24  C   UNL     1       1.308   2.963  21.356  0.00  0.00    +0.000 C 
ATOM     25  O   UNL     1       0.876   4.174  20.701  0.00  0.00    +0.000 OA
ENDBRANCH  16  17
ENDBRANCH   9  16
TORSDOF 4
ENDMDL
MODEL 9
REMARK VINA RESULT:      -7.5      3.469      8.260
REMARK  Name = 
REMARK  4 active torsions:
REMARK  status: ('A' for Active; 'I' for Inactive)
REMARK    1  A    between atoms: C_2  and  O_3
REMARK    2  A    between atoms: C_2  and  C_4
REMARK    3  A    between atoms: N_12  and  C_13
REMARK    4  A    between atoms: C_13  and  C_14
REMARK                            x       y       z     vdW  Elec       q    Type
REMARK                         _______ _______ _______ _____ _____    ______ ____
ROOT
ATOM      1  C   UNL     1      -0.051   9.937  21.832  0.00  0.00    +0.000 A 
ATOM      2  C   UNL     1      -0.140  10.909  20.805  0.00  0.00    +0.000 A 
ATOM      3  C   UNL     1       0.463  10.687  19.559  0.00  0.00    +0.000 A 
ATOM      4  C   UNL     1       1.151   9.500  19.387  0.00  0.00    +0.000 A 
ATOM      5  C   UNL     1       1.255   8.559  20.393  0.00  0.00    +0.000 A 
ATOM      6  C   UNL     1       0.665   8.745  21.629  0.00  0.00    +0.000 A 
ATOM      7  C   UNL     1       2.104   7.474  19.893  0.00  0.00    +0.000 C 
ATOM      8  O   UNL     1       2.443   6.515  20.559  0.00  0.00    +0.000 OA
ATOM      9  N   UNL     1       2.441   7.800  18.610  0.00  0.00    +0.000 N 
ATOM     10  C   UNL     1       1.919   9.008  18.245  0.00  0.00    +0.000 C 
ATOM     11  O   UNL     1       2.058   9.627  17.210  0.00  0.00    +0.000 OA
ENDROOT
BRANCH   1  13
ATOM     12  O   UNL     1      -1.638  10.842  23.350  0.00  0.00    +0.000 OA
ATOM     13  C   UNL     1      -0.637  10.169  23.180  0.00  0.00    +0.000 C 
BRANCH  13  14
ATOM     14  O   UNL     1       0.048   9.597  24.191  0.00  0.00    +0.000 OA
ATOM     15  H   UNL     1       0.384   8.697  24.028  0.00  0.00    +0.000 HD
ENDBRANCH  13  14
ENDBRANCH   1  13
BRANCH   9  16
ATOM     16  C   UNL     1       3.345   7.031  17.777  0.00  0.00    +0.000 C 
BRANCH  16  17
ATOM     17  C   UNL     1       3.274   5.545  18.061  0.00  0.00    +0.000 A 
ATOM     18  C   UNL     1       2.144   4.797  17.652  0.00  0.00    +0.000 A 
ATOM     19  C   UNL     1       2.039   3.432  17.942  0.00  0.00    +0.000 A 
ATOM     20  C   UNL     1       3.069   2.843  18.640  0.00  0.00    +0.000 A 
ATOM     21  C   UNL     1       4.179   3.555  19.028  0.00  0.00    +0.000 A 
ATOM     22  C   UNL     1       4.313   4.902  18.755  0.00  0.00    +0.000 A 
ATOM     23  O   UNL     1       5.077   2.786  19.702  0.00  0.00    +0.000 OA
ATOM     24  C   UNL     1       4.380   1.523  19.739  0.00  0.00    +0.000 C 
ATOM     25  O   UNL     1       3.123   1.541  19.031  0.00  0.00    +0.000 OA
ENDBRANCH  16  17
ENDBRANCH   9  16
TORSDOF 4
ENDMDL
