MODEL 1
REMARK VINA RESULT:      -7.5      0.000      0.000
REMARK  Name = 
REMARK  3 active torsions:
REMARK  status: ('A' for Active; 'I' for Inactive)
REMARK    1  A    between atoms: C_2  and  C_3
REMARK    2  A    between atoms: C_2  and  C_10
REMARK    3  A    between atoms: C_3  and  C_4
REMARK                            x       y       z     vdW  Elec       q    Type
REMARK                         _______ _______ _______ _____ _____    ______ ____
ROOT
ATOM      1  C   UNL     1       3.280   5.724  19.036  0.00  0.00    +0.000 A 
ATOM      2  C   UNL     1       3.041   6.744  18.138  0.00  0.00    +0.000 A 
ATOM      3  C   UNL     1       2.268   7.743  18.783  0.00  0.00    +0.000 A 
ATOM      4  C   UNL     1       1.738   8.973  18.359  0.00  0.00    +0.000 A 
ATOM      5  C   UNL     1       1.005   9.736  19.269  0.00  0.00    +0.000 A 
ATOM      6 BR   UNL     1       0.275  11.387  18.703  0.00  0.00    +0.000 Br
ATOM      7  C   UNL     1       0.802   9.300  20.577  0.00  0.00    +0.000 A 
ATOM      8  C   UNL     1       1.324   8.075  21.014  0.00  0.00    +0.000 A 
ATOM      9  C   UNL     1       2.051   7.315  20.091  0.00  0.00    +0.000 A 
ATOM     10  N   UNL     1       2.665   6.088  20.218  0.00  0.00    +0.000 N 
ATOM     11  H   UNL     1       2.671   5.521  21.057  0.00  0.00    +0.000 HD
ENDROOT
BRANCH   1  13
ATOM     12  O   UNL     1       3.438   3.389  18.875  0.00  0.00    +0.000 OA
ATOM     13  C   UNL     1       4.011   4.480  18.879  0.00  0.00    +0.000 C 
BRANCH  13  14
ATOM     14  C   UNL     1       5.522   4.565  18.706  0.00  0.00    +0.000 C 
BRANCH  14  15
ATOM     15  C   UNL     1       5.950   4.660  17.267  0.00  0.00    +0.000 A 
ATOM     16  C   UNL     1       5.253   4.010  16.245  0.00  0.00    +0.000 A 
ATOM     17  C   UNL     1       5.678   4.142  14.925  0.00  0.00    +0.000 A 
ATOM     18  C   UNL     1       6.791   4.926  14.671  0.00  0.00    +0.000 A 
ATOM     19  N   UNL     1       7.489   5.569  15.630  0.00  0.00    +0.000 NA
ATOM     20  C   UNL     1       7.057   5.422  16.902  0.00  0.00    +0.000 A 
ENDBRANCH  14  15
ENDBRANCH  13  14
ENDBRANCH   1  13
TORSDOF 3
ENDMDL
MODEL 2
REMARK VINA RESULT:      -7.3      3.949      5.852
REMARK  Name = 
REMARK  3 active torsions:
REMARK  status: ('A' for Active; 'I' for Inactive)
REMARK    1  A    between atoms: C_2  and  C_3
REMARK    2  A    between atoms: C_2  and  C_10
REMARK    3  A    between atoms: C_3  and  C_4
REMARK                            x       y       z     vdW  Elec       q    Type
REMARK                         _______ _______ _______ _____ _____    ______ ____
ROOT
ATOM      1  C   UNL     1       4.431   4.205  17.365  0.00  0.00    +0.000 A 
ATOM      2  C   UNL     1       4.499   5.514  16.934  0.00  0.00    +0.000 A 
ATOM      3  C   UNL     1       5.700   6.090  17.423  0.00  0.00    +0.000 A 
ATOM      4  C   UNL     1       6.274   7.367  17.305  0.00  0.00    +0.000 A 
ATOM      5  C   UNL     1       7.501   7.611  17.923  0.00  0.00    +0.000 A 
ATOM      6 BR   UNL     1       8.273   9.331  17.781  0.00  0.00    +0.000 Br
ATOM      7  C   UNL     1       8.158   6.611  18.639  0.00  0.00    +0.000 A 
ATOM      8  C   UNL     1       7.599   5.333  18.766  0.00  0.00    +0.000 A 
ATOM      9  C   UNL     1       6.364   5.103  18.149  0.00  0.00    +0.000 A 
ATOM     10  N   UNL     1       5.574   3.975  18.107  0.00  0.00    +0.000 N 
ATOM     11  H   UNL     1       5.789   3.093  18.555  0.00  0.00    +0.000 HD
ENDROOT
BRANCH   1  13
ATOM     12  O   UNL     1       2.625   3.259  16.205  0.00  0.00    +0.000 OA
ATOM     13  C   UNL     1       3.417   3.191  17.146  0.00  0.00    +0.000 C 
BRANCH  13  14
ATOM     14  C   UNL     1       3.369   2.019  18.118  0.00  0.00    +0.000 C 
BRANCH  14  15
ATOM     15  C   UNL     1       2.714   2.360  19.428  0.00  0.00    +0.000 A 
ATOM     16  C   UNL     1       1.376   2.761  19.503  0.00  0.00    +0.000 A 
ATOM     17  C   UNL     1       0.809   3.051  20.741  0.00  0.00    +0.000 A 
ATOM     18  C   UNL     1       1.602   2.927  21.870  0.00  0.00    +0.000 A 
ATOM     19  N   UNL     1       2.895   2.543  21.838  0.00  0.00    +0.000 NA
ATOM     20  C   UNL     1       3.422   2.270  20.624  0.00  0.00    +0.000 A 
ENDBRANCH  14  15
ENDBRANCH  13  14
ENDBRANCH   1  13
TORSDOF 3
ENDMDL
MODEL 3
REMARK VINA RESULT:      -7.3      0.920      1.505
REMARK  Name = 
REMARK  3 active torsions:
REMARK  status: ('A' for Active; 'I' for Inactive)
REMARK    1  A    between atoms: C_2  and  C_3
REMARK    2  A    between atoms: C_2  and  C_10
REMARK    3  A    between atoms: C_3  and  C_4
REMARK                            x       y       z     vdW  Elec       q    Type
REMARK                         _______ _______ _______ _____ _____    ______ ____
ROOT
ATOM      1  C   UNL     1       3.414   5.446  18.852  0.00  0.00    +0.000 A 
ATOM      2  C   UNL     1       2.762   5.917  19.974  0.00  0.00    +0.000 A 
ATOM      3  C   UNL     1       2.218   7.193  19.679  0.00  0.00    +0.000 A 
ATOM      4  C   UNL     1       1.476   8.120  20.431  0.00  0.00    +0.000 A 
ATOM      5  C   UNL     1       1.084   9.313  19.824  0.00  0.00    +0.000 A 
ATOM      6 BR   UNL     1       0.097  10.574  20.832  0.00  0.00    +0.000 Br
ATOM      7  C   UNL     1       1.409   9.588  18.497  0.00  0.00    +0.000 A 
ATOM      8  C   UNL     1       2.148   8.674  17.735  0.00  0.00    +0.000 A 
ATOM      9  C   UNL     1       2.543   7.483  18.356  0.00  0.00    +0.000 A 
ATOM     10  N   UNL     1       3.274   6.418  17.879  0.00  0.00    +0.000 N 
ATOM     11  H   UNL     1       3.661   6.343  16.946  0.00  0.00    +0.000 HD
ENDROOT
BRANCH   1  13
ATOM     12  O   UNL     1       3.552   3.123  18.560  0.00  0.00    +0.000 OA
ATOM     13  C   UNL     1       4.134   4.207  18.628  0.00  0.00    +0.000 C 
BRANCH  13  14
ATOM     14  C   UNL     1       5.647   4.287  18.467  0.00  0.00    +0.000 C 
BRANCH  14  15
ATOM     15  C   UNL     1       6.082   4.497  17.042  0.00  0.00    +0.000 A 
ATOM     16  C   UNL     1       5.522   3.773  15.985  0.00  0.00    +0.000 A 
ATOM     17  C   UNL     1       5.945   4.015  14.681  0.00  0.00    +0.000 A 
ATOM     18  C   UNL     1       6.917   4.979  14.475  0.00  0.00    +0.000 A 
ATOM     19  N   UNL     1       7.480   5.698  15.468  0.00  0.00    +0.000 NA
ATOM     20  C   UNL     1       7.053   5.442  16.725  0.00  0.00    +0.000 A 
ENDBRANCH  14  15
ENDBRANCH  13  14
ENDBRANCH   1  13
TORSDOF 3
ENDMDL
MODEL 4
REMARK VINA RESULT:      -7.2      4.296      5.021
REMARK  Name = 
REMARK  3 active torsions:
REMARK  status: ('A' for Active; 'I' for Inactive)
REMARK    1  A    between atoms: C_2  and  C_3
REMARK    2  A    between atoms: C_2  and  C_10
REMARK    3  A    between atoms: C_3  and  C_4
REMARK                            x       y       z     vdW  Elec       q    Type
REMARK                         _______ _______ _______ _____ _____    ______ ____
ROOT
ATOM      1  C   UNL     1       5.862   4.125  17.549  0.00  0.00    +0.000 A 
ATOM      2  C   UNL     1       5.472   4.426  18.838  0.00  0.00    +0.000 A 
ATOM      3  C   UNL     1       4.290   3.701  19.135  0.00  0.00    +0.000 A 
ATOM      4  C   UNL     1       3.465   3.626  20.270  0.00  0.00    +0.000 A 
ATOM      5  C   UNL     1       2.348   2.792  20.234  0.00  0.00    +0.000 A 
ATOM      6 BR   UNL     1       1.225   2.696  21.753  0.00  0.00    +0.000 Br
ATOM      7  C   UNL     1       2.049   2.037  19.101  0.00  0.00    +0.000 A 
ATOM      8  C   UNL     1       2.861   2.101  17.961  0.00  0.00    +0.000 A 
ATOM      9  C   UNL     1       3.975   2.948  18.006  0.00  0.00    +0.000 A 
ATOM     10  N   UNL     1       4.934   3.226  17.057  0.00  0.00    +0.000 N 
ATOM     11  H   UNL     1       4.966   2.834  16.124  0.00  0.00    +0.000 HD
ENDROOT
BRANCH   1  13
ATOM     12  O   UNL     1       8.143   4.233  17.013  0.00  0.00    +0.000 OA
ATOM     13  C   UNL     1       6.991   4.596  16.769  0.00  0.00    +0.000 C 
BRANCH  13  14
ATOM     14  C   UNL     1       6.705   5.553  15.618  0.00  0.00    +0.000 C 
BRANCH  14  15
ATOM     15  C   UNL     1       6.690   4.878  14.274  0.00  0.00    +0.000 A 
ATOM     16  C   UNL     1       5.708   3.946  13.927  0.00  0.00    +0.000 A 
ATOM     17  C   UNL     1       5.727   3.360  12.663  0.00  0.00    +0.000 A 
ATOM     18  C   UNL     1       6.730   3.730  11.784  0.00  0.00    +0.000 A 
ATOM     19  N   UNL     1       7.694   4.625  12.083  0.00  0.00    +0.000 NA
ATOM     20  C   UNL     1       7.655   5.177  13.316  0.00  0.00    +0.000 A 
ENDBRANCH  14  15
ENDBRANCH  13  14
ENDBRANCH   1  13
TORSDOF 3
ENDMDL
MODEL 5
REMARK VINA RESULT:      -7.2      1.617      2.096
REMARK  Name = 
REMARK  3 active torsions:
REMARK  status: ('A' for Active; 'I' for Inactive)
REMARK    1  A    between atoms: C_2  and  C_3
REMARK    2  A    between atoms: C_2  and  C_10
REMARK    3  A    between atoms: C_3  and  C_4
REMARK                            x       y       z     vdW  Elec       q    Type
REMARK                         _______ _______ _______ _____ _____    ______ ____
ROOT
ATOM      1  C   UNL     1       2.601   6.254  18.875  0.00  0.00    +0.000 A 
ATOM      2  C   UNL     1       2.374   7.360  18.083  0.00  0.00    +0.000 A 
ATOM      3  C   UNL     1       1.823   8.389  18.888  0.00  0.00    +0.000 A 
ATOM      4  C   UNL     1       1.399   9.701  18.618  0.00  0.00    +0.000 A 
ATOM      5  C   UNL     1       0.893  10.472  19.665  0.00  0.00    +0.000 A 
ATOM      6 BR   UNL     1       0.306  12.234  19.307  0.00  0.00    +0.000 Br
ATOM      7  C   UNL     1       0.811   9.962  20.960  0.00  0.00    +0.000 A 
ATOM      8  C   UNL     1       1.230   8.657  21.246  0.00  0.00    +0.000 A 
ATOM      9  C   UNL     1       1.728   7.890  20.185  0.00  0.00    +0.000 A 
ATOM     10  N   UNL     1       2.196   6.595  20.152  0.00  0.00    +0.000 N 
ATOM     11  H   UNL     1       2.242   5.968  20.946  0.00  0.00    +0.000 HD
ENDROOT
BRANCH   1  13
ATOM     12  O   UNL     1       2.735   3.921  19.086  0.00  0.00    +0.000 OA
ATOM     13  C   UNL     1       3.144   4.950  18.544  0.00  0.00    +0.000 C 
BRANCH  13  14
ATOM     14  C   UNL     1       4.238   4.888  17.486  0.00  0.00    +0.000 C 
BRANCH  14  15
ATOM     15  C   UNL     1       5.563   5.408  17.971  0.00  0.00    +0.000 A 
ATOM     16  C   UNL     1       6.317   6.319  17.225  0.00  0.00    +0.000 A 
ATOM     17  C   UNL     1       7.531   6.785  17.725  0.00  0.00    +0.000 A 
ATOM     18  C   UNL     1       7.951   6.324  18.961  0.00  0.00    +0.000 A 
ATOM     19  N   UNL     1       7.252   5.446  19.710  0.00  0.00    +0.000 NA
ATOM     20  C   UNL     1       6.079   5.008  19.201  0.00  0.00    +0.000 A 
ENDBRANCH  14  15
ENDBRANCH  13  14
ENDBRANCH   1  13
TORSDOF 3
ENDMDL
MODEL 6
REMARK VINA RESULT:      -7.1      2.357      3.793
REMARK  Name = 
REMARK  3 active torsions:
REMARK  status: ('A' for Active; 'I' for Inactive)
REMARK    1  A    between atoms: C_2  and  C_3
REMARK    2  A    between atoms: C_2  and  C_10
REMARK    3  A    between atoms: C_3  and  C_4
REMARK                            x       y       z     vdW  Elec       q    Type
REMARK                         _______ _______ _______ _____ _____    ______ ____
ROOT
ATOM      1  C   UNL     1       3.450   6.529  18.438  0.00  0.00    +0.000 A 
ATOM      2  C   UNL     1       2.982   7.558  17.648  0.00  0.00    +0.000 A 
ATOM      3  C   UNL     1       2.102   8.358  18.421  0.00  0.00    +0.000 A 
ATOM      4  C   UNL     1       1.347   9.509  18.137  0.00  0.00    +0.000 A 
ATOM      5  C   UNL     1       0.564  10.064  19.150  0.00  0.00    +0.000 A 
ATOM      6 BR   UNL     1      -0.467  11.604  18.773  0.00  0.00    +0.000 Br
ATOM      7  C   UNL     1       0.530   9.500  20.425  0.00  0.00    +0.000 A 
ATOM      8  C   UNL     1       1.277   8.353  20.723  0.00  0.00    +0.000 A 
ATOM      9  C   UNL     1       2.052   7.801  19.697  0.00  0.00    +0.000 A 
ATOM     10  N   UNL     1       2.868   6.691  19.681  0.00  0.00    +0.000 N 
ATOM     11  H   UNL     1       3.028   6.071  20.466  0.00  0.00    +0.000 HD
ENDROOT
BRANCH   1  13
ATOM     12  O   UNL     1       5.583   5.613  18.099  0.00  0.00    +0.000 OA
ATOM     13  C   UNL     1       4.363   5.443  18.133  0.00  0.00    +0.000 C 
BRANCH  13  14
ATOM     14  C   UNL     1       3.763   4.069  17.864  0.00  0.00    +0.000 C 
BRANCH  14  15
ATOM     15  C   UNL     1       2.892   3.572  18.985  0.00  0.00    +0.000 A 
ATOM     16  C   UNL     1       1.498   3.527  18.873  0.00  0.00    +0.000 A 
ATOM     17  C   UNL     1       0.735   3.043  19.933  0.00  0.00    +0.000 A 
ATOM     18  C   UNL     1       1.394   2.615  21.073  0.00  0.00    +0.000 A 
ATOM     19  N   UNL     1       2.735   2.641  21.218  0.00  0.00    +0.000 NA
ATOM     20  C   UNL     1       3.452   3.118  20.176  0.00  0.00    +0.000 A 
ENDBRANCH  14  15
ENDBRANCH  13  14
ENDBRANCH   1  13
TORSDOF 3
ENDMDL
MODEL 7
REMARK VINA RESULT:      -7.1      2.357      3.347
REMARK  Name = 
REMARK  3 active torsions:
REMARK  status: ('A' for Active; 'I' for Inactive)
REMARK    1  A    between atoms: C_2  and  C_3
REMARK    2  A    between atoms: C_2  and  C_10
REMARK    3  A    between atoms: C_3  and  C_4
REMARK                            x       y       z     vdW  Elec       q    Type
REMARK                         _______ _______ _______ _____ _____    ______ ____
ROOT
ATOM      1  C   UNL     1       3.358   6.943  18.423  0.00  0.00    +0.000 A 
ATOM      2  C   UNL     1       2.734   8.020  17.828  0.00  0.00    +0.000 A 
ATOM      3  C   UNL     1       1.823   8.586  18.757  0.00  0.00    +0.000 A 
ATOM      4  C   UNL     1       0.932   9.671  18.693  0.00  0.00    +0.000 A 
ATOM      5  C   UNL     1       0.160   9.971  19.816  0.00  0.00    +0.000 A 
ATOM      6 BR   UNL     1      -1.052  11.421  19.735  0.00  0.00    +0.000 Br
ATOM      7  C   UNL     1       0.267   9.220  20.986  0.00  0.00    +0.000 A 
ATOM      8  C   UNL     1       1.150   8.136  21.064  0.00  0.00    +0.000 A 
ATOM      9  C   UNL     1       1.914   7.839  19.929  0.00  0.00    +0.000 A 
ATOM     10  N   UNL     1       2.842   6.846  19.702  0.00  0.00    +0.000 N 
ATOM     11  H   UNL     1       3.116   6.137  20.370  0.00  0.00    +0.000 HD
ENDROOT
BRANCH   1  13
ATOM     12  O   UNL     1       5.555   6.157  18.186  0.00  0.00    +0.000 OA
ATOM     13  C   UNL     1       4.362   6.030  17.909  0.00  0.00    +0.000 C 
BRANCH  13  14
ATOM     14  C   UNL     1       3.888   4.891  17.015  0.00  0.00    +0.000 C 
BRANCH  14  15
ATOM     15  C   UNL     1       3.106   3.841  17.756  0.00  0.00    +0.000 A 
ATOM     16  C   UNL     1       1.713   3.892  17.859  0.00  0.00    +0.000 A 
ATOM     17  C   UNL     1       1.032   2.887  18.542  0.00  0.00    +0.000 A 
ATOM     18  C   UNL     1       1.771   1.857  19.098  0.00  0.00    +0.000 A 
ATOM     19  N   UNL     1       3.115   1.772  19.019  0.00  0.00    +0.000 NA
ATOM     20  C   UNL     1       3.752   2.761  18.354  0.00  0.00    +0.000 A 
ENDBRANCH  14  15
ENDBRANCH  13  14
ENDBRANCH   1  13
TORSDOF 3
ENDMDL
MODEL 8
REMARK VINA RESULT:      -7.1      1.304      1.536
REMARK  Name = 
REMARK  3 active torsions:
REMARK  status: ('A' for Active; 'I' for Inactive)
REMARK    1  A    between atoms: C_2  and  C_3
REMARK    2  A    between atoms: C_2  and  C_10
REMARK    3  A    between atoms: C_3  and  C_4
REMARK                            x       y       z     vdW  Elec       q    Type
REMARK                         _______ _______ _______ _____ _____    ______ ____
ROOT
ATOM      1  C   UNL     1       2.685   7.006  19.045  0.00  0.00    +0.000 A 
ATOM      2  C   UNL     1       2.296   7.949  18.117  0.00  0.00    +0.000 A 
ATOM      3  C   UNL     1       1.503   8.927  18.769  0.00  0.00    +0.000 A 
ATOM      4  C   UNL     1       0.846  10.088  18.326  0.00  0.00    +0.000 A 
ATOM      5  C   UNL     1       0.133  10.850  19.251  0.00  0.00    +0.000 A 
ATOM      6 BR   UNL     1      -0.765  12.406  18.661  0.00  0.00    +0.000 Br
ATOM      7  C   UNL     1       0.071  10.481  20.594  0.00  0.00    +0.000 A 
ATOM      8  C   UNL     1       0.720   9.326  21.052  0.00  0.00    +0.000 A 
ATOM      9  C   UNL     1       1.426   8.565  20.112  0.00  0.00    +0.000 A 
ATOM     10  N   UNL     1       2.141   7.396  20.254  0.00  0.00    +0.000 N 
ATOM     11  H   UNL     1       2.259   6.883  21.119  0.00  0.00    +0.000 HD
ENDROOT
BRANCH   1  13
ATOM     12  O   UNL     1       4.313   5.472  19.751  0.00  0.00    +0.000 OA
ATOM     13  C   UNL     1       3.494   5.811  18.895  0.00  0.00    +0.000 C 
BRANCH  13  14
ATOM     14  C   UNL     1       3.290   4.972  17.640  0.00  0.00    +0.000 C 
BRANCH  14  15
ATOM     15  C   UNL     1       4.492   4.952  16.736  0.00  0.00    +0.000 A 
ATOM     16  C   UNL     1       5.075   3.756  16.309  0.00  0.00    +0.000 A 
ATOM     17  C   UNL     1       6.177   3.789  15.459  0.00  0.00    +0.000 A 
ATOM     18  C   UNL     1       6.659   5.024  15.059  0.00  0.00    +0.000 A 
ATOM     19  N   UNL     1       6.123   6.199  15.448  0.00  0.00    +0.000 NA
ATOM     20  C   UNL     1       5.056   6.139  16.276  0.00  0.00    +0.000 A 
ENDBRANCH  14  15
ENDBRANCH  13  14
ENDBRANCH   1  13
TORSDOF 3
ENDMDL
MODEL 9
REMARK VINA RESULT:      -7.1      1.622      2.060
REMARK  Name = 
REMARK  3 active torsions:
REMARK  status: ('A' for Active; 'I' for Inactive)
REMARK    1  A    between atoms: C_2  and  C_3
REMARK    2  A    between atoms: C_2  and  C_10
REMARK    3  A    between atoms: C_3  and  C_4
REMARK                            x       y       z     vdW  Elec       q    Type
REMARK                         _______ _______ _______ _____ _____    ______ ____
ROOT
ATOM      1  C   UNL     1       2.690   6.539  19.262  0.00  0.00    +0.000 A 
ATOM      2  C   UNL     1       2.432   7.536  18.344  0.00  0.00    +0.000 A 
ATOM      3  C   UNL     1       1.744   8.589  19.000  0.00  0.00    +0.000 A 
ATOM      4  C   UNL     1       1.236   9.825  18.565  0.00  0.00    +0.000 A 
ATOM      5  C   UNL     1       0.596  10.649  19.491  0.00  0.00    +0.000 A 
ATOM      6 BR   UNL     1      -0.103  12.309  18.912  0.00  0.00    +0.000 Br
ATOM      7  C   UNL     1       0.463  10.267  20.826  0.00  0.00    +0.000 A 
ATOM      8  C   UNL     1       0.964   9.038  21.274  0.00  0.00    +0.000 A 
ATOM      9  C   UNL     1       1.597   8.216  20.334  0.00  0.00    +0.000 A 
ATOM     10  N   UNL     1       2.169   6.970  20.468  0.00  0.00    +0.000 N 
ATOM     11  H   UNL     1       2.209   6.432  21.325  0.00  0.00    +0.000 HD
ENDROOT
BRANCH   1  13
ATOM     12  O   UNL     1       3.219   4.352  19.926  0.00  0.00    +0.000 OA
ATOM     13  C   UNL     1       3.358   5.261  19.105  0.00  0.00    +0.000 C 
BRANCH  13  14
ATOM     14  C   UNL     1       4.237   5.069  17.876  0.00  0.00    +0.000 C 
BRANCH  14  15
ATOM     15  C   UNL     1       5.555   5.788  17.970  0.00  0.00    +0.000 A 
ATOM     16  C   UNL     1       6.515   5.448  18.927  0.00  0.00    +0.000 A 
ATOM     17  C   UNL     1       7.728   6.133  18.964  0.00  0.00    +0.000 A 
ATOM     18  C   UNL     1       7.942   7.136  18.035  0.00  0.00    +0.000 A 
ATOM     19  N   UNL     1       7.041   7.492  17.095  0.00  0.00    +0.000 NA
ATOM     20  C   UNL     1       5.871   6.814  17.083  0.00  0.00    +0.000 A 
ENDBRANCH  14  15
ENDBRANCH  13  14
ENDBRANCH   1  13
TORSDOF 3
ENDMDL
