MODEL 1
REMARK VINA RESULT:      -7.6      0.000      0.000
REMARK  Name = 
REMARK  11 active torsions:
REMARK  status: ('A' for Active; 'I' for Inactive)
REMARK    1  A    between atoms: C_1  and  O_2
REMARK    2  A    between atoms: O_2  and  C_3
REMARK    3  A    between atoms: C_3  and  C_5
REMARK    4  A    between atoms: C_8  and  C_9
REMARK    5  A    between atoms: C_9  and  N_10
REMARK    6  A    between atoms: C_13  and  C_14
REMARK    7  A    between atoms: C_13  and  C_16
REMARK    8  A    between atoms: C_14  and  O_15
REMARK    9  A    between atoms: C_16  and  C_17
REMARK   10  A    between atoms: C_21  and  O_22
REMARK   11  A    between atoms: O_22  and  C_23
REMARK                            x       y       z     vdW  Elec       q    Type
REMARK                         _______ _______ _______ _____ _____    ______ ____
ROOT
ATOM      1  N   UNL     1       2.273   8.072  19.015  0.00  0.00    +0.000 NA
ATOM      2  C   UNL     1       1.564   8.518  17.809  0.00  0.00    +0.000 C 
ATOM      3  C   UNL     1       1.132   9.987  17.874  0.00  0.00    +0.000 C 
ATOM      4  C   UNL     1       0.282  10.337  19.126  0.00  0.00    +0.000 C 
ATOM      5  C   UNL     1       1.106   9.866  20.345  0.00  0.00    +0.000 C 
ATOM      6  C   UNL     1       1.537   8.397  20.250  0.00  0.00    +0.000 C 
ENDROOT
BRANCH   1   7
ATOM      7  C   UNL     1       2.512   6.608  18.967  0.00  0.00    +0.000 C 
BRANCH   7  11
ATOM      8  C   UNL     1       5.548   5.333  16.147  0.00  0.00    +0.000 A 
ATOM      9  C   UNL     1       5.489   6.668  16.566  0.00  0.00    +0.000 A 
ATOM     10  C   UNL     1       4.498   7.078  17.464  0.00  0.00    +0.000 A 
ATOM     11  C   UNL     1       3.555   6.167  17.954  0.00  0.00    +0.000 A 
ATOM     12  C   UNL     1       3.628   4.830  17.539  0.00  0.00    +0.000 A 
ATOM     13  C   UNL     1       4.619   4.413  16.645  0.00  0.00    +0.000 A 
BRANCH   8  14
ATOM     14  C   UNL     1       6.578   4.854  15.186  0.00  0.00    +0.000 C 
ATOM     15  O   UNL     1       7.628   5.435  14.969  0.00  0.00    +0.000 OA
BRANCH  14  17
ATOM     16  C   UNL     1       6.061   3.689  13.223  0.00  0.00    +0.000 C 
ATOM     17  O   UNL     1       6.192   3.670  14.646  0.00  0.00    +0.000 OA
ENDBRANCH  14  17
ENDBRANCH   8  14
ENDBRANCH   7  11
ENDBRANCH   1   7
BRANCH   4  18
ATOM     18  C   UNL     1       0.104  11.874  19.185  0.00  0.00    +0.000 C 
BRANCH  18  19
ATOM     19  O   UNL     1       0.723  12.517  18.074  0.00  0.00    +0.000 OA
ATOM     20  H   UNL     1       0.089  12.504  17.336  0.00  0.00    +0.000 HD
ENDBRANCH  18  19
ENDBRANCH   4  18
BRANCH   4  21
ATOM     21  C   UNL     1      -1.115   9.639  19.033  0.00  0.00    +0.000 C 
BRANCH  21  22
ATOM     22  C   UNL     1      -2.110  10.204  18.035  0.00  0.00    +0.000 A 
ATOM     23  C   UNL     1      -2.024   9.887  16.672  0.00  0.00    +0.000 A 
ATOM     24  C   UNL     1      -2.963  10.385  15.766  0.00  0.00    +0.000 A 
ATOM     25  C   UNL     1      -4.006  11.194  16.217  0.00  0.00    +0.000 A 
ATOM     26  C   UNL     1      -4.114  11.517  17.569  0.00  0.00    +0.000 A 
ATOM     27  C   UNL     1      -3.162  11.027  18.468  0.00  0.00    +0.000 A 
BRANCH  26  28
ATOM     28  O   UNL     1      -5.190  12.297  17.893  0.00  0.00    +0.000 OA
ATOM     29  C   UNL     1      -6.474  11.698  17.765  0.00  0.00    +0.000 C 
ENDBRANCH  26  28
ENDBRANCH  21  22
ENDBRANCH   4  21
TORSDOF 9
ENDMDL
MODEL 2
REMARK VINA RESULT:      -7.6      2.098      9.337
REMARK  Name = 
REMARK  11 active torsions:
REMARK  status: ('A' for Active; 'I' for Inactive)
REMARK    1  A    between atoms: C_1  and  O_2
REMARK    2  A    between atoms: O_2  and  C_3
REMARK    3  A    between atoms: C_3  and  C_5
REMARK    4  A    between atoms: C_8  and  C_9
REMARK    5  A    between atoms: C_9  and  N_10
REMARK    6  A    between atoms: C_13  and  C_14
REMARK    7  A    between atoms: C_13  and  C_16
REMARK    8  A    between atoms: C_14  and  O_15
REMARK    9  A    between atoms: C_16  and  C_17
REMARK   10  A    between atoms: C_21  and  O_22
REMARK   11  A    between atoms: O_22  and  C_23
REMARK                            x       y       z     vdW  Elec       q    Type
REMARK                         _______ _______ _______ _____ _____    ______ ____
ROOT
ATOM      1  N   UNL     1       1.899   6.249  19.673  0.00  0.00    +0.000 NA
ATOM      2  C   UNL     1       2.552   6.174  18.360  0.00  0.00    +0.000 C 
ATOM      3  C   UNL     1       2.424   4.796  17.702  0.00  0.00    +0.000 C 
ATOM      4  C   UNL     1       2.928   3.626  18.591  0.00  0.00    +0.000 C 
ATOM      5  C   UNL     1       2.174   3.758  19.933  0.00  0.00    +0.000 C 
ATOM      6  C   UNL     1       2.307   5.150  20.565  0.00  0.00    +0.000 C 
ENDROOT
BRANCH   1   7
ATOM      7  C   UNL     1       2.201   7.543  20.331  0.00  0.00    +0.000 C 
BRANCH   7  11
ATOM      8  C   UNL     1      -0.490  10.816  19.413  0.00  0.00    +0.000 A 
ATOM      9  C   UNL     1      -0.551  10.179  20.658  0.00  0.00    +0.000 A 
ATOM     10  C   UNL     1       0.309   9.114  20.944  0.00  0.00    +0.000 A 
ATOM     11  C   UNL     1       1.237   8.669  19.996  0.00  0.00    +0.000 A 
ATOM     12  C   UNL     1       1.299   9.318  18.756  0.00  0.00    +0.000 A 
ATOM     13  C   UNL     1       0.445  10.387  18.465  0.00  0.00    +0.000 A 
BRANCH   8  14
ATOM     14  C   UNL     1      -1.392  11.946  19.061  0.00  0.00    +0.000 C 
ATOM     15  O   UNL     1      -1.748  12.804  19.852  0.00  0.00    +0.000 OA
BRANCH  14  17
ATOM     16  C   UNL     1      -3.009  11.392  17.462  0.00  0.00    +0.000 C 
ATOM     17  O   UNL     1      -1.702  11.897  17.741  0.00  0.00    +0.000 OA
ENDBRANCH  14  17
ENDBRANCH   8  14
ENDBRANCH   7  11
ENDBRANCH   1   7
BRANCH   4  18
ATOM     18  C   UNL     1       2.541   2.289  17.912  0.00  0.00    +0.000 C 
BRANCH  18  19
ATOM     19  O   UNL     1       1.415   1.686  18.545  0.00  0.00    +0.000 OA
ATOM     20  H   UNL     1       1.074   2.316  19.202  0.00  0.00    +0.000 HD
ENDBRANCH  18  19
ENDBRANCH   4  18
BRANCH   4  21
ATOM     21  C   UNL     1       4.481   3.713  18.757  0.00  0.00    +0.000 C 
BRANCH  21  22
ATOM     22  C   UNL     1       5.284   4.175  17.554  0.00  0.00    +0.000 A 
ATOM     23  C   UNL     1       5.154   3.537  16.313  0.00  0.00    +0.000 A 
ATOM     24  C   UNL     1       5.872   3.989  15.204  0.00  0.00    +0.000 A 
ATOM     25  C   UNL     1       6.716   5.093  15.321  0.00  0.00    +0.000 A 
ATOM     26  C   UNL     1       6.856   5.746  16.546  0.00  0.00    +0.000 A 
ATOM     27  C   UNL     1       6.146   5.279  17.656  0.00  0.00    +0.000 A 
BRANCH  26  28
ATOM     28  O   UNL     1       7.694   6.828  16.532  0.00  0.00    +0.000 OA
ATOM     29  C   UNL     1       7.622   7.704  17.650  0.00  0.00    +0.000 C 
ENDBRANCH  26  28
ENDBRANCH  21  22
ENDBRANCH   4  21
TORSDOF 9
ENDMDL
MODEL 3
REMARK VINA RESULT:      -7.5      3.244      9.923
REMARK  Name = 
REMARK  11 active torsions:
REMARK  status: ('A' for Active; 'I' for Inactive)
REMARK    1  A    between atoms: C_1  and  O_2
REMARK    2  A    between atoms: O_2  and  C_3
REMARK    3  A    between atoms: C_3  and  C_5
REMARK    4  A    between atoms: C_8  and  C_9
REMARK    5  A    between atoms: C_9  and  N_10
REMARK    6  A    between atoms: C_13  and  C_14
REMARK    7  A    between atoms: C_13  and  C_16
REMARK    8  A    between atoms: C_14  and  O_15
REMARK    9  A    between atoms: C_16  and  C_17
REMARK   10  A    between atoms: C_21  and  O_22
REMARK   11  A    between atoms: O_22  and  C_23
REMARK                            x       y       z     vdW  Elec       q    Type
REMARK                         _______ _______ _______ _____ _____    ______ ____
ROOT
ATOM      1  N   UNL     1       1.548   7.165  20.386  0.00  0.00    +0.000 NA
ATOM      2  C   UNL     1       2.390   7.389  19.204  0.00  0.00    +0.000 C 
ATOM      3  C   UNL     1       2.209   6.317  18.124  0.00  0.00    +0.000 C 
ATOM      4  C   UNL     1       2.423   4.867  18.638  0.00  0.00    +0.000 C 
ATOM      5  C   UNL     1       1.483   4.704  19.854  0.00  0.00    +0.000 C 
ATOM      6  C   UNL     1       1.675   5.796  20.914  0.00  0.00    +0.000 C 
ENDROOT
BRANCH   1   7
ATOM      7  C   UNL     1       1.890   8.131  21.459  0.00  0.00    +0.000 C 
BRANCH   7  11
ATOM      8  C   UNL     1      -1.171  11.122  22.153  0.00  0.00    +0.000 A 
ATOM      9  C   UNL     1      -0.574  11.001  20.893  0.00  0.00    +0.000 A 
ATOM     10  C   UNL     1       0.424  10.045  20.678  0.00  0.00    +0.000 A 
ATOM     11  C   UNL     1       0.840   9.199  21.713  0.00  0.00    +0.000 A 
ATOM     12  C   UNL     1       0.230   9.319  22.968  0.00  0.00    +0.000 A 
ATOM     13  C   UNL     1      -0.772  10.271  23.188  0.00  0.00    +0.000 A 
BRANCH   8  14
ATOM     14  C   UNL     1      -2.228  12.131  22.431  0.00  0.00    +0.000 C 
ATOM     15  O   UNL     1      -2.369  13.162  21.794  0.00  0.00    +0.000 OA
BRANCH  14  17
ATOM     16  C   UNL     1      -3.689  12.750  24.152  0.00  0.00    +0.000 C 
ATOM     17  O   UNL     1      -3.022  11.703  23.445  0.00  0.00    +0.000 OA
ENDBRANCH  14  17
ENDBRANCH   8  14
ENDBRANCH   7  11
ENDBRANCH   1   7
BRANCH   4  18
ATOM     18  C   UNL     1       1.996   3.882  17.521  0.00  0.00    +0.000 C 
BRANCH  18  19
ATOM     19  O   UNL     1       1.502   2.659  18.061  0.00  0.00    +0.000 OA
ATOM     20  H   UNL     1       2.122   2.370  18.752  0.00  0.00    +0.000 HD
ENDBRANCH  18  19
ENDBRANCH   4  18
BRANCH   4  21
ATOM     21  C   UNL     1       3.928   4.646  19.001  0.00  0.00    +0.000 C 
BRANCH  21  22
ATOM     22  C   UNL     1       4.940   4.772  17.876  0.00  0.00    +0.000 A 
ATOM     23  C   UNL     1       4.916   3.895  16.782  0.00  0.00    +0.000 A 
ATOM     24  C   UNL     1       5.830   4.038  15.737  0.00  0.00    +0.000 A 
ATOM     25  C   UNL     1       6.768   5.070  15.766  0.00  0.00    +0.000 A 
ATOM     26  C   UNL     1       6.806   5.957  16.842  0.00  0.00    +0.000 A 
ATOM     27  C   UNL     1       5.899   5.799  17.893  0.00  0.00    +0.000 A 
BRANCH  26  28
ATOM     28  O   UNL     1       7.755   6.939  16.748  0.00  0.00    +0.000 OA
ATOM     29  C   UNL     1       7.574   8.081  17.577  0.00  0.00    +0.000 C 
ENDBRANCH  26  28
ENDBRANCH  21  22
ENDBRANCH   4  21
TORSDOF 9
ENDMDL
MODEL 4
REMARK VINA RESULT:      -7.4      3.772      5.951
REMARK  Name = 
REMARK  11 active torsions:
REMARK  status: ('A' for Active; 'I' for Inactive)
REMARK    1  A    between atoms: C_1  and  O_2
REMARK    2  A    between atoms: O_2  and  C_3
REMARK    3  A    between atoms: C_3  and  C_5
REMARK    4  A    between atoms: C_8  and  C_9
REMARK    5  A    between atoms: C_9  and  N_10
REMARK    6  A    between atoms: C_13  and  C_14
REMARK    7  A    between atoms: C_13  and  C_16
REMARK    8  A    between atoms: C_14  and  O_15
REMARK    9  A    between atoms: C_16  and  C_17
REMARK   10  A    between atoms: C_21  and  O_22
REMARK   11  A    between atoms: O_22  and  C_23
REMARK                            x       y       z     vdW  Elec       q    Type
REMARK                         _______ _______ _______ _____ _____    ______ ____
ROOT
ATOM      1  N   UNL     1       4.485   3.599  17.786  0.00  0.00    +0.000 NA
ATOM      2  C   UNL     1       4.624   3.504  19.245  0.00  0.00    +0.000 C 
ATOM      3  C   UNL     1       3.278   3.447  19.975  0.00  0.00    +0.000 C 
ATOM      4  C   UNL     1       2.324   4.622  19.627  0.00  0.00    +0.000 C 
ATOM      5  C   UNL     1       2.208   4.633  18.086  0.00  0.00    +0.000 C 
ATOM      6  C   UNL     1       3.568   4.677  17.379  0.00  0.00    +0.000 C 
ENDROOT
BRANCH   1   7
ATOM      7  C   UNL     1       5.807   3.822  17.150  0.00  0.00    +0.000 C 
BRANCH   7  11
ATOM      8  C   UNL     1       7.618   7.700  17.842  0.00  0.00    +0.000 A 
ATOM      9  C   UNL     1       8.005   6.593  18.607  0.00  0.00    +0.000 A 
ATOM     10  C   UNL     1       7.407   5.347  18.390  0.00  0.00    +0.000 A 
ATOM     11  C   UNL     1       6.417   5.188  17.413  0.00  0.00    +0.000 A 
ATOM     12  C   UNL     1       6.044   6.299  16.644  0.00  0.00    +0.000 A 
ATOM     13  C   UNL     1       6.641   7.546  16.853  0.00  0.00    +0.000 A 
BRANCH   8  14
ATOM     14  C   UNL     1       8.220   9.046  18.043  0.00  0.00    +0.000 C 
ATOM     15  O   UNL     1       7.931  10.027  17.377  0.00  0.00    +0.000 OA
BRANCH  14  17
ATOM     16  C   UNL     1       9.411  10.305  19.616  0.00  0.00    +0.000 C 
ATOM     17  O   UNL     1       9.078   9.017  19.094  0.00  0.00    +0.000 OA
ENDBRANCH  14  17
ENDBRANCH   8  14
ENDBRANCH   7  11
ENDBRANCH   1   7
BRANCH   4  18
ATOM     18  C   UNL     1       0.936   4.329  20.247  0.00  0.00    +0.000 C 
BRANCH  18  19
ATOM     19  O   UNL     1       0.865   3.005  20.771  0.00  0.00    +0.000 OA
ATOM     20  H   UNL     1       1.455   2.446  20.238  0.00  0.00    +0.000 HD
ENDBRANCH  18  19
ENDBRANCH   4  18
BRANCH   4  21
ATOM     21  C   UNL     1       2.897   5.961  20.200  0.00  0.00    +0.000 C 
BRANCH  21  22
ATOM     22  C   UNL     1       2.268   7.253  19.710  0.00  0.00    +0.000 A 
ATOM     23  C   UNL     1       2.430   7.675  18.383  0.00  0.00    +0.000 A 
ATOM     24  C   UNL     1       1.821   8.848  17.932  0.00  0.00    +0.000 A 
ATOM     25  C   UNL     1       1.031   9.602  18.799  0.00  0.00    +0.000 A 
ATOM     26  C   UNL     1       0.851   9.197  20.121  0.00  0.00    +0.000 A 
ATOM     27  C   UNL     1       1.476   8.030  20.571  0.00  0.00    +0.000 A 
BRANCH  26  28
ATOM     28  O   UNL     1       0.038  10.005  20.869  0.00  0.00    +0.000 OA
ATOM     29  C   UNL     1       0.466  11.350  21.048  0.00  0.00    +0.000 C 
ENDBRANCH  26  28
ENDBRANCH  21  22
ENDBRANCH   4  21
TORSDOF 9
ENDMDL
MODEL 5
REMARK VINA RESULT:      -7.3      2.634      9.502
REMARK  Name = 
REMARK  11 active torsions:
REMARK  status: ('A' for Active; 'I' for Inactive)
REMARK    1  A    between atoms: C_1  and  O_2
REMARK    2  A    between atoms: O_2  and  C_3
REMARK    3  A    between atoms: C_3  and  C_5
REMARK    4  A    between atoms: C_8  and  C_9
REMARK    5  A    between atoms: C_9  and  N_10
REMARK    6  A    between atoms: C_13  and  C_14
REMARK    7  A    between atoms: C_13  and  C_16
REMARK    8  A    between atoms: C_14  and  O_15
REMARK    9  A    between atoms: C_16  and  C_17
REMARK   10  A    between atoms: C_21  and  O_22
REMARK   11  A    between atoms: O_22  and  C_23
REMARK                            x       y       z     vdW  Elec       q    Type
REMARK                         _______ _______ _______ _____ _____    ______ ____
ROOT
ATOM      1  N   UNL     1       1.712   6.302  19.788  0.00  0.00    +0.000 NA
ATOM      2  C   UNL     1       2.588   6.226  18.611  0.00  0.00    +0.000 C 
ATOM      3  C   UNL     1       2.475   4.894  17.863  0.00  0.00    +0.000 C 
ATOM      4  C   UNL     1       2.713   3.648  18.759  0.00  0.00    +0.000 C 
ATOM      5  C   UNL     1       1.739   3.788  19.950  0.00  0.00    +0.000 C 
ATOM      6  C   UNL     1       1.862   5.135  20.674  0.00  0.00    +0.000 C 
ENDROOT
BRANCH   1   7
ATOM      7  C   UNL     1       1.989   7.537  20.563  0.00  0.00    +0.000 C 
BRANCH   7  11
ATOM      8  C   UNL     1      -0.349  11.022  19.479  0.00  0.00    +0.000 A 
ATOM      9  C   UNL     1      -0.524  10.415  20.728  0.00  0.00    +0.000 A 
ATOM     10  C   UNL     1       0.222   9.281  21.068  0.00  0.00    +0.000 A 
ATOM     11  C   UNL     1       1.148   8.738  20.169  0.00  0.00    +0.000 A 
ATOM     12  C   UNL     1       1.325   9.359  18.925  0.00  0.00    +0.000 A 
ATOM     13  C   UNL     1       0.585  10.496  18.582  0.00  0.00    +0.000 A 
BRANCH   8  14
ATOM     14  C   UNL     1      -1.127  12.223  19.071  0.00  0.00    +0.000 C 
ATOM     15  O   UNL     1      -0.938  12.836  18.033  0.00  0.00    +0.000 OA
BRANCH  14  17
ATOM     16  C   UNL     1      -2.029  13.801  20.545  0.00  0.00    +0.000 C 
ATOM     17  O   UNL     1      -2.090  12.486  19.990  0.00  0.00    +0.000 OA
ENDBRANCH  14  17
ENDBRANCH   8  14
ENDBRANCH   7  11
ENDBRANCH   1   7
BRANCH   4  18
ATOM     18  C   UNL     1       2.354   2.380  17.945  0.00  0.00    +0.000 C 
BRANCH  18  19
ATOM     19  O   UNL     1       3.126   1.256  18.359  0.00  0.00    +0.000 OA
ATOM     20  H   UNL     1       2.748   0.930  19.193  0.00  0.00    +0.000 HD
ENDBRANCH  18  19
ENDBRANCH   4  18
BRANCH   4  21
ATOM     21  C   UNL     1       4.212   3.592  19.206  0.00  0.00    +0.000 C 
BRANCH  21  22
ATOM     22  C   UNL     1       5.235   4.244  18.293  0.00  0.00    +0.000 A 
ATOM     23  C   UNL     1       5.305   3.908  16.933  0.00  0.00    +0.000 A 
ATOM     24  C   UNL     1       6.228   4.536  16.094  0.00  0.00    +0.000 A 
ATOM     25  C   UNL     1       7.078   5.518  16.602  0.00  0.00    +0.000 A 
ATOM     26  C   UNL     1       7.020   5.872  17.950  0.00  0.00    +0.000 A 
ATOM     27  C   UNL     1       6.105   5.228  18.788  0.00  0.00    +0.000 A 
BRANCH  26  28
ATOM     28  O   UNL     1       7.886   6.862  18.326  0.00  0.00    +0.000 OA
ATOM     29  C   UNL     1       7.781   8.100  17.632  0.00  0.00    +0.000 C 
ENDBRANCH  26  28
ENDBRANCH  21  22
ENDBRANCH   4  21
TORSDOF 9
ENDMDL
MODEL 6
REMARK VINA RESULT:      -7.3      3.990      6.262
REMARK  Name = 
REMARK  11 active torsions:
REMARK  status: ('A' for Active; 'I' for Inactive)
REMARK    1  A    between atoms: C_1  and  O_2
REMARK    2  A    between atoms: O_2  and  C_3
REMARK    3  A    between atoms: C_3  and  C_5
REMARK    4  A    between atoms: C_8  and  C_9
REMARK    5  A    between atoms: C_9  and  N_10
REMARK    6  A    between atoms: C_13  and  C_14
REMARK    7  A    between atoms: C_13  and  C_16
REMARK    8  A    between atoms: C_14  and  O_15
REMARK    9  A    between atoms: C_16  and  C_17
REMARK   10  A    between atoms: C_21  and  O_22
REMARK   11  A    between atoms: O_22  and  C_23
REMARK                            x       y       z     vdW  Elec       q    Type
REMARK                         _______ _______ _______ _____ _____    ______ ____
ROOT
ATOM      1  N   UNL     1       3.434   3.035  17.254  0.00  0.00    +0.000 NA
ATOM      2  C   UNL     1       4.042   2.664  18.537  0.00  0.00    +0.000 C 
ATOM      3  C   UNL     1       3.012   2.430  19.646  0.00  0.00    +0.000 C 
ATOM      4  C   UNL     1       2.043   3.624  19.866  0.00  0.00    +0.000 C 
ATOM      5  C   UNL     1       1.425   3.930  18.484  0.00  0.00    +0.000 C 
ATOM      6  C   UNL     1       2.477   4.147  17.388  0.00  0.00    +0.000 C 
ENDROOT
BRANCH   1   7
ATOM      7  C   UNL     1       4.479   3.413  16.271  0.00  0.00    +0.000 C 
BRANCH   7  11
ATOM      8  C   UNL     1       7.036   6.644  17.618  0.00  0.00    +0.000 A 
ATOM      9  C   UNL     1       5.790   6.922  17.045  0.00  0.00    +0.000 A 
ATOM     10  C   UNL     1       4.975   5.877  16.598  0.00  0.00    +0.000 A 
ATOM     11  C   UNL     1       5.390   4.545  16.714  0.00  0.00    +0.000 A 
ATOM     12  C   UNL     1       6.634   4.275  17.300  0.00  0.00    +0.000 A 
ATOM     13  C   UNL     1       7.452   5.316  17.753  0.00  0.00    +0.000 A 
BRANCH   8  14
ATOM     14  C   UNL     1       7.941   7.724  18.099  0.00  0.00    +0.000 C 
ATOM     15  O   UNL     1       8.714   7.598  19.034  0.00  0.00    +0.000 OA
BRANCH  14  17
ATOM     16  C   UNL     1       8.421  10.000  17.843  0.00  0.00    +0.000 C 
ATOM     17  O   UNL     1       7.807   8.823  17.314  0.00  0.00    +0.000 OA
ENDBRANCH  14  17
ENDBRANCH   8  14
ENDBRANCH   7  11
ENDBRANCH   1   7
BRANCH   4  18
ATOM     18  C   UNL     1       0.927   3.179  20.843  0.00  0.00    +0.000 C 
BRANCH  18  19
ATOM     19  O   UNL     1       1.469   2.649  22.051  0.00  0.00    +0.000 OA
ATOM     20  H   UNL     1       1.724   3.399  22.614  0.00  0.00    +0.000 HD
ENDBRANCH  18  19
ENDBRANCH   4  18
BRANCH   4  21
ATOM     21  C   UNL     1       2.825   4.841  20.463  0.00  0.00    +0.000 C 
BRANCH  21  22
ATOM     22  C   UNL     1       2.228   6.221  20.254  0.00  0.00    +0.000 A 
ATOM     23  C   UNL     1       1.344   6.774  21.192  0.00  0.00    +0.000 A 
ATOM     24  C   UNL     1       0.825   8.057  21.007  0.00  0.00    +0.000 A 
ATOM     25  C   UNL     1       1.197   8.807  19.892  0.00  0.00    +0.000 A 
ATOM     26  C   UNL     1       2.079   8.279  18.950  0.00  0.00    +0.000 A 
ATOM     27  C   UNL     1       2.583   6.988  19.132  0.00  0.00    +0.000 A 
BRANCH  26  28
ATOM     28  O   UNL     1       2.386   9.115  17.911  0.00  0.00    +0.000 OA
ATOM     29  C   UNL     1       1.885  10.444  17.993  0.00  0.00    +0.000 C 
ENDBRANCH  26  28
ENDBRANCH  21  22
ENDBRANCH   4  21
TORSDOF 9
ENDMDL
MODEL 7
REMARK VINA RESULT:      -7.3      2.027      9.451
REMARK  Name = 
REMARK  11 active torsions:
REMARK  status: ('A' for Active; 'I' for Inactive)
REMARK    1  A    between atoms: C_1  and  O_2
REMARK    2  A    between atoms: O_2  and  C_3
REMARK    3  A    between atoms: C_3  and  C_5
REMARK    4  A    between atoms: C_8  and  C_9
REMARK    5  A    between atoms: C_9  and  N_10
REMARK    6  A    between atoms: C_13  and  C_14
REMARK    7  A    between atoms: C_13  and  C_16
REMARK    8  A    between atoms: C_14  and  O_15
REMARK    9  A    between atoms: C_16  and  C_17
REMARK   10  A    between atoms: C_21  and  O_22
REMARK   11  A    between atoms: O_22  and  C_23
REMARK                            x       y       z     vdW  Elec       q    Type
REMARK                         _______ _______ _______ _____ _____    ______ ____
ROOT
ATOM      1  N   UNL     1       1.986   5.991  19.765  0.00  0.00    +0.000 NA
ATOM      2  C   UNL     1       2.889   5.995  18.608  0.00  0.00    +0.000 C 
ATOM      3  C   UNL     1       2.896   4.666  17.845  0.00  0.00    +0.000 C 
ATOM      4  C   UNL     1       3.211   3.433  18.735  0.00  0.00    +0.000 C 
ATOM      5  C   UNL     1       2.204   3.485  19.905  0.00  0.00    +0.000 C 
ATOM      6  C   UNL     1       2.207   4.829  20.644  0.00  0.00    +0.000 C 
ENDROOT
BRANCH   1   7
ATOM      7  C   UNL     1       2.150   7.234  20.558  0.00  0.00    +0.000 C 
BRANCH   7  11
ATOM      8  C   UNL     1      -0.276  10.536  19.142  0.00  0.00    +0.000 A 
ATOM      9  C   UNL     1       0.670   9.942  18.298  0.00  0.00    +0.000 A 
ATOM     10  C   UNL     1       1.461   8.886  18.764  0.00  0.00    +0.000 A 
ATOM     11  C   UNL     1       1.322   8.412  20.074  0.00  0.00    +0.000 A 
ATOM     12  C   UNL     1       0.365   9.005  20.909  0.00  0.00    +0.000 A 
ATOM     13  C   UNL     1      -0.432  10.058  20.447  0.00  0.00    +0.000 A 
BRANCH   8  14
ATOM     14  C   UNL     1      -1.132  11.667  18.693  0.00  0.00    +0.000 C 
ATOM     15  O   UNL     1      -1.152  12.761  19.233  0.00  0.00    +0.000 OA
BRANCH  14  17
ATOM     16  C   UNL     1      -3.109  10.738  17.852  0.00  0.00    +0.000 C 
ATOM     17  O   UNL     1      -1.827  11.310  17.584  0.00  0.00    +0.000 OA
ENDBRANCH  14  17
ENDBRANCH   8  14
ENDBRANCH   7  11
ENDBRANCH   1   7
BRANCH   4  18
ATOM     18  C   UNL     1       2.968   2.150  17.901  0.00  0.00    +0.000 C 
BRANCH  18  19
ATOM     19  O   UNL     1       3.910   1.130  18.223  0.00  0.00    +0.000 OA
ATOM     20  H   UNL     1       4.385   1.409  19.025  0.00  0.00    +0.000 HD
ENDBRANCH  18  19
ENDBRANCH   4  18
BRANCH   4  21
ATOM     21  C   UNL     1       4.700   3.488  19.213  0.00  0.00    +0.000 C 
BRANCH  21  22
ATOM     22  C   UNL     1       5.646   4.388  18.439  0.00  0.00    +0.000 A 
ATOM     23  C   UNL     1       6.282   5.471  19.061  0.00  0.00    +0.000 A 
ATOM     24  C   UNL     1       7.175   6.274  18.349  0.00  0.00    +0.000 A 
ATOM     25  C   UNL     1       7.455   5.992  17.012  0.00  0.00    +0.000 A 
ATOM     26  C   UNL     1       6.839   4.914  16.376  0.00  0.00    +0.000 A 
ATOM     27  C   UNL     1       5.933   4.124  17.090  0.00  0.00    +0.000 A 
BRANCH  26  28
ATOM     28  O   UNL     1       7.209   4.724  15.072  0.00  0.00    +0.000 OA
ATOM     29  C   UNL     1       6.298   4.007  14.249  0.00  0.00    +0.000 C 
ENDBRANCH  26  28
ENDBRANCH  21  22
ENDBRANCH   4  21
TORSDOF 9
ENDMDL
MODEL 8
REMARK VINA RESULT:      -7.3      2.758      9.601
REMARK  Name = 
REMARK  11 active torsions:
REMARK  status: ('A' for Active; 'I' for Inactive)
REMARK    1  A    between atoms: C_1  and  O_2
REMARK    2  A    between atoms: O_2  and  C_3
REMARK    3  A    between atoms: C_3  and  C_5
REMARK    4  A    between atoms: C_8  and  C_9
REMARK    5  A    between atoms: C_9  and  N_10
REMARK    6  A    between atoms: C_13  and  C_14
REMARK    7  A    between atoms: C_13  and  C_16
REMARK    8  A    between atoms: C_14  and  O_15
REMARK    9  A    between atoms: C_16  and  C_17
REMARK   10  A    between atoms: C_21  and  O_22
REMARK   11  A    between atoms: O_22  and  C_23
REMARK                            x       y       z     vdW  Elec       q    Type
REMARK                         _______ _______ _______ _____ _____    ______ ____
ROOT
ATOM      1  N   UNL     1       1.706   6.402  20.057  0.00  0.00    +0.000 NA
ATOM      2  C   UNL     1       2.308   6.403  18.718  0.00  0.00    +0.000 C 
ATOM      3  C   UNL     1       2.068   5.100  17.949  0.00  0.00    +0.000 C 
ATOM      4  C   UNL     1       2.522   3.826  18.713  0.00  0.00    +0.000 C 
ATOM      5  C   UNL     1       1.824   3.885  20.090  0.00  0.00    +0.000 C 
ATOM      6  C   UNL     1       2.069   5.204  20.834  0.00  0.00    +0.000 C 
ENDROOT
BRANCH   1   7
ATOM      7  C   UNL     1       2.115   7.611  20.813  0.00  0.00    +0.000 C 
BRANCH   7  11
ATOM      8  C   UNL     1      -0.721  10.890  20.831  0.00  0.00    +0.000 A 
ATOM      9  C   UNL     1      -0.543  10.104  21.976  0.00  0.00    +0.000 A 
ATOM     10  C   UNL     1       0.363   9.038  21.961  0.00  0.00    +0.000 A 
ATOM     11  C   UNL     1       1.098   8.739  20.808  0.00  0.00    +0.000 A 
ATOM     12  C   UNL     1       0.922   9.538  19.670  0.00  0.00    +0.000 A 
ATOM     13  C   UNL     1       0.021  10.608  19.680  0.00  0.00    +0.000 A 
BRANCH   8  14
ATOM     14  C   UNL     1      -1.680  12.027  20.798  0.00  0.00    +0.000 C 
ATOM     15  O   UNL     1      -2.200  12.449  19.779  0.00  0.00    +0.000 OA
BRANCH  14  17
ATOM     16  C   UNL     1      -3.295  12.690  22.357  0.00  0.00    +0.000 C 
ATOM     17  O   UNL     1      -1.915  12.471  22.059  0.00  0.00    +0.000 OA
ENDBRANCH  14  17
ENDBRANCH   8  14
ENDBRANCH   7  11
ENDBRANCH   1   7
BRANCH   4  18
ATOM     18  C   UNL     1       2.025   2.583  17.935  0.00  0.00    +0.000 C 
BRANCH  18  19
ATOM     19  O   UNL     1       2.794   1.425  18.252  0.00  0.00    +0.000 OA
ATOM     20  H   UNL     1       3.705   1.715  18.429  0.00  0.00    +0.000 HD
ENDBRANCH  18  19
ENDBRANCH   4  18
BRANCH   4  21
ATOM     21  C   UNL     1       4.082   3.800  18.825  0.00  0.00    +0.000 C 
BRANCH  21  22
ATOM     22  C   UNL     1       4.873   4.347  17.650  0.00  0.00    +0.000 A 
ATOM     23  C   UNL     1       4.852   3.703  16.405  0.00  0.00    +0.000 A 
ATOM     24  C   UNL     1       5.557   4.231  15.321  0.00  0.00    +0.000 A 
ATOM     25  C   UNL     1       6.276   5.417  15.467  0.00  0.00    +0.000 A 
ATOM     26  C   UNL     1       6.305   6.077  16.695  0.00  0.00    +0.000 A 
ATOM     27  C   UNL     1       5.611   5.535  17.780  0.00  0.00    +0.000 A 
BRANCH  26  28
ATOM     28  O   UNL     1       7.026   7.241  16.709  0.00  0.00    +0.000 OA
ATOM     29  C   UNL     1       7.772   7.513  17.889  0.00  0.00    +0.000 C 
ENDBRANCH  26  28
ENDBRANCH  21  22
ENDBRANCH   4  21
TORSDOF 9
ENDMDL
MODEL 9
REMARK VINA RESULT:      -7.3      2.221      9.452
REMARK  Name = 
REMARK  11 active torsions:
REMARK  status: ('A' for Active; 'I' for Inactive)
REMARK    1  A    between atoms: C_1  and  O_2
REMARK    2  A    between atoms: O_2  and  C_3
REMARK    3  A    between atoms: C_3  and  C_5
REMARK    4  A    between atoms: C_8  and  C_9
REMARK    5  A    between atoms: C_9  and  N_10
REMARK    6  A    between atoms: C_13  and  C_14
REMARK    7  A    between atoms: C_13  and  C_16
REMARK    8  A    between atoms: C_14  and  O_15
REMARK    9  A    between atoms: C_16  and  C_17
REMARK   10  A    between atoms: C_21  and  O_22
REMARK   11  A    between atoms: O_22  and  C_23
REMARK                            x       y       z     vdW  Elec       q    Type
REMARK                         _______ _______ _______ _____ _____    ______ ____
ROOT
ATOM      1  N   UNL     1       1.800   6.254  19.721  0.00  0.00    +0.000 NA
ATOM      2  C   UNL     1       2.751   6.211  18.602  0.00  0.00    +0.000 C 
ATOM      3  C   UNL     1       2.713   4.888  17.831  0.00  0.00    +0.000 C 
ATOM      4  C   UNL     1       2.919   3.634  18.724  0.00  0.00    +0.000 C 
ATOM      5  C   UNL     1       1.867   3.738  19.851  0.00  0.00    +0.000 C 
ATOM      6  C   UNL     1       1.916   5.077  20.600  0.00  0.00    +0.000 C 
ENDROOT
BRANCH   1   7
ATOM      7  C   UNL     1       2.001   7.482  20.529  0.00  0.00    +0.000 C 
BRANCH   7  11
ATOM      8  C   UNL     1      -0.276  10.888  19.115  0.00  0.00    +0.000 A 
ATOM      9  C   UNL     1       0.713  10.315  18.307  0.00  0.00    +0.000 A 
ATOM     10  C   UNL     1       1.455   9.225  18.773  0.00  0.00    +0.000 A 
ATOM     11  C   UNL     1       1.225   8.695  20.048  0.00  0.00    +0.000 A 
ATOM     12  C   UNL     1       0.225   9.267  20.846  0.00  0.00    +0.000 A 
ATOM     13  C   UNL     1      -0.524  10.354  20.383  0.00  0.00    +0.000 A 
BRANCH   8  14
ATOM     14  C   UNL     1      -1.084  12.054  18.664  0.00  0.00    +0.000 C 
ATOM     15  O   UNL     1      -1.892  12.010  17.751  0.00  0.00    +0.000 OA
BRANCH  14  17
ATOM     16  C   UNL     1      -0.165  14.204  18.772  0.00  0.00    +0.000 C 
ATOM     17  O   UNL     1      -0.822  13.130  19.449  0.00  0.00    +0.000 OA
ENDBRANCH  14  17
ENDBRANCH   8  14
ENDBRANCH   7  11
ENDBRANCH   1   7
BRANCH   4  18
ATOM     18  C   UNL     1       2.638   2.372  17.872  0.00  0.00    +0.000 C 
BRANCH  18  19
ATOM     19  O   UNL     1       1.814   1.441  18.569  0.00  0.00    +0.000 OA
ATOM     20  H   UNL     1       2.170   1.349  19.470  0.00  0.00    +0.000 HD
ENDBRANCH  18  19
ENDBRANCH   4  18
BRANCH   4  21
ATOM     21  C   UNL     1       4.386   3.600  19.266  0.00  0.00    +0.000 C 
BRANCH  21  22
ATOM     22  C   UNL     1       5.419   4.432  18.527  0.00  0.00    +0.000 A 
ATOM     23  C   UNL     1       6.204   5.375  19.204  0.00  0.00    +0.000 A 
ATOM     24  C   UNL     1       7.174   6.112  18.521  0.00  0.00    +0.000 A 
ATOM     25  C   UNL     1       7.380   5.902  17.158  0.00  0.00    +0.000 A 
ATOM     26  C   UNL     1       6.614   4.964  16.466  0.00  0.00    +0.000 A 
ATOM     27  C   UNL     1       5.634   4.241  17.152  0.00  0.00    +0.000 A 
BRANCH  26  28
ATOM     28  O   UNL     1       6.922   4.831  15.140  0.00  0.00    +0.000 OA
ATOM     29  C   UNL     1       6.165   3.880  14.402  0.00  0.00    +0.000 C 
ENDBRANCH  26  28
ENDBRANCH  21  22
ENDBRANCH   4  21
TORSDOF 9
ENDMDL
