MODEL 1
REMARK VINA RESULT:      -8.0      0.000      0.000
REMARK  Name = 
REMARK  11 active torsions:
REMARK  status: ('A' for Active; 'I' for Inactive)
REMARK    1  A    between atoms: C_1  and  O_2
REMARK    2  A    between atoms: O_2  and  C_3
REMARK    3  A    between atoms: C_6  and  C_7
REMARK    4  A    between atoms: C_11  and  N_12
REMARK    5  A    between atoms: N_12  and  S_13
REMARK    6  A    between atoms: S_13  and  C_16
REMARK    7  A    between atoms: C_18  and  C_19
REMARK    8  A    between atoms: C_20  and  O_21
REMARK    9  A    between atoms: O_21  and  C_22
REMARK   10  A    between atoms: C_23  and  C_24
REMARK   11  A    between atoms: C_25  and  C_26
REMARK                            x       y       z     vdW  Elec       q    Type
REMARK                         _______ _______ _______ _____ _____    ______ ____
ROOT
ATOM      1  N   UNL     1       6.981   5.369  15.770  0.00  0.00    +0.000 N 
ATOM      2  H   UNL     1       7.634   4.902  15.146  0.00  0.00    +0.000 HD
ENDROOT
BRANCH   1   7
ATOM      3  C   UNL     1       8.147   7.891  18.244  0.00  0.00    +0.000 A 
ATOM      4  C   UNL     1       8.264   7.057  19.375  0.00  0.00    +0.000 A 
ATOM      5  C   UNL     1       7.964   5.692  19.316  0.00  0.00    +0.000 A 
ATOM      6  C   UNL     1       7.523   5.130  18.122  0.00  0.00    +0.000 A 
ATOM      7  C   UNL     1       7.405   5.933  16.993  0.00  0.00    +0.000 A 
ATOM      8  C   UNL     1       7.699   7.297  17.051  0.00  0.00    +0.000 A 
BRANCH   3  12
ATOM      9  C   UNL     1       8.937  12.014  18.366  0.00  0.00    +0.000 A 
ATOM     10  C   UNL     1       9.590  11.231  19.292  0.00  0.00    +0.000 A 
ATOM     11  C   UNL     1       9.369   9.856  19.275  0.00  0.00    +0.000 A 
ATOM     12  C   UNL     1       8.498   9.322  18.325  0.00  0.00    +0.000 A 
ATOM     13  N   UNL     1       7.893  10.132  17.426  0.00  0.00    +0.000 NA
ATOM     14  N   UNL     1       8.111  11.484  17.439  0.00  0.00    +0.000 NA
BRANCH   9  16
ATOM     15  C   UNL     1       7.920  14.113  18.305  0.00  0.00    +0.000 C 
ATOM     16  O   UNL     1       9.135  13.376  18.432  0.00  0.00    +0.000 OA
ENDBRANCH   9  16
ENDBRANCH   3  12
ENDBRANCH   1   7
BRANCH   1  17
ATOM     17  S   UNL     1       5.383   5.504  15.291  0.00  0.00    +0.000 S 
ATOM     18  O   UNL     1       5.131   6.914  15.084  0.00  0.00    +0.000 OA
ATOM     19  O   UNL     1       5.137   4.558  14.221  0.00  0.00    +0.000 OA
BRANCH  17  20
ATOM     20  C   UNL     1       4.496   4.949  16.753  0.00  0.00    +0.000 A 
ATOM     21  C   UNL     1       4.388   3.563  16.921  0.00  0.00    +0.000 A 
ATOM     22  C   UNL     1       3.693   3.023  18.008  0.00  0.00    +0.000 A 
ATOM     23  C   UNL     1       3.605   1.526  18.138  0.00  0.00    +0.000 C 
ATOM     24  C   UNL     1       3.064   3.880  18.932  0.00  0.00    +0.000 A 
ATOM     25  C   UNL     1       3.126   5.285  18.758  0.00  0.00    +0.000 A 
ATOM     26  C   UNL     1       2.353   6.239  19.635  0.00  0.00    +0.000 C 
ATOM     27  C   UNL     1       3.894   5.831  17.679  0.00  0.00    +0.000 A 
ATOM     28  C   UNL     1       4.012   7.327  17.501  0.00  0.00    +0.000 C 
BRANCH  24  29
ATOM     29  O   UNL     1       2.281   3.238  19.861  0.00  0.00    +0.000 OA
ATOM     30  C   UNL     1       2.819   3.054  21.165  0.00  0.00    +0.000 C 
ENDBRANCH  24  29
ENDBRANCH  17  20
ENDBRANCH   1  17
TORSDOF 6
ENDMDL
MODEL 2
REMARK VINA RESULT:      -7.8      4.937      7.382
REMARK  Name = 
REMARK  11 active torsions:
REMARK  status: ('A' for Active; 'I' for Inactive)
REMARK    1  A    between atoms: C_1  and  O_2
REMARK    2  A    between atoms: O_2  and  C_3
REMARK    3  A    between atoms: C_6  and  C_7
REMARK    4  A    between atoms: C_11  and  N_12
REMARK    5  A    between atoms: N_12  and  S_13
REMARK    6  A    between atoms: S_13  and  C_16
REMARK    7  A    between atoms: C_18  and  C_19
REMARK    8  A    between atoms: C_20  and  O_21
REMARK    9  A    between atoms: O_21  and  C_22
REMARK   10  A    between atoms: C_23  and  C_24
REMARK   11  A    between atoms: C_25  and  C_26
REMARK                            x       y       z     vdW  Elec       q    Type
REMARK                         _______ _______ _______ _____ _____    ______ ____
ROOT
ATOM      1  N   UNL     1       2.821   6.174  20.435  0.00  0.00    +0.000 N 
ATOM      2  H   UNL     1       3.386   6.232  21.278  0.00  0.00    +0.000 HD
ENDROOT
BRANCH   1   7
ATOM      3  C   UNL     1       0.897   9.340  20.091  0.00  0.00    +0.000 A 
ATOM      4  C   UNL     1       1.106   9.580  18.717  0.00  0.00    +0.000 A 
ATOM      5  C   UNL     1       1.866   8.712  17.926  0.00  0.00    +0.000 A 
ATOM      6  C   UNL     1       2.450   7.586  18.498  0.00  0.00    +0.000 A 
ATOM      7  C   UNL     1       2.253   7.327  19.849  0.00  0.00    +0.000 A 
ATOM      8  C   UNL     1       1.499   8.196  20.642  0.00  0.00    +0.000 A 
BRANCH   3  12
ATOM      9  C   UNL     1      -1.297  11.936  22.556  0.00  0.00    +0.000 A 
ATOM     10  C   UNL     1      -1.552  12.004  21.204  0.00  0.00    +0.000 A 
ATOM     11  C   UNL     1      -0.857  11.149  20.353  0.00  0.00    +0.000 A 
ATOM     12  C   UNL     1       0.067  10.257  20.896  0.00  0.00    +0.000 A 
ATOM     13  N   UNL     1       0.270  10.217  22.234  0.00  0.00    +0.000 NA
ATOM     14  N   UNL     1      -0.413  11.056  23.073  0.00  0.00    +0.000 NA
BRANCH   9  16
ATOM     15  C   UNL     1      -2.242  14.062  22.725  0.00  0.00    +0.000 C 
ATOM     16  O   UNL     1      -1.961  12.824  23.374  0.00  0.00    +0.000 OA
ENDBRANCH   9  16
ENDBRANCH   3  12
ENDBRANCH   1   7
BRANCH   1  17
ATOM     17  S   UNL     1       2.616   4.676  19.717  0.00  0.00    +0.000 S 
ATOM     18  O   UNL     1       2.679   3.697  20.780  0.00  0.00    +0.000 OA
ATOM     19  O   UNL     1       1.458   4.732  18.849  0.00  0.00    +0.000 OA
BRANCH  17  20
ATOM     20  C   UNL     1       4.087   4.538  18.692  0.00  0.00    +0.000 A 
ATOM     21  C   UNL     1       5.236   5.178  19.172  0.00  0.00    +0.000 A 
ATOM     22  C   UNL     1       6.428   5.159  18.440  0.00  0.00    +0.000 A 
ATOM     23  C   UNL     1       7.632   5.867  19.002  0.00  0.00    +0.000 C 
ATOM     24  C   UNL     1       6.469   4.517  17.187  0.00  0.00    +0.000 A 
ATOM     25  C   UNL     1       5.307   3.899  16.665  0.00  0.00    +0.000 A 
ATOM     26  C   UNL     1       5.260   3.324  15.270  0.00  0.00    +0.000 C 
ATOM     27  C   UNL     1       4.108   3.866  17.449  0.00  0.00    +0.000 A 
ATOM     28  C   UNL     1       2.870   3.172  16.931  0.00  0.00    +0.000 C 
BRANCH  24  29
ATOM     29  O   UNL     1       7.640   4.701  16.492  0.00  0.00    +0.000 OA
ATOM     30  C   UNL     1       7.562   5.321  15.215  0.00  0.00    +0.000 C 
ENDBRANCH  24  29
ENDBRANCH  17  20
ENDBRANCH   1  17
TORSDOF 6
ENDMDL
MODEL 3
REMARK VINA RESULT:      -7.8      5.425      8.061
REMARK  Name = 
REMARK  11 active torsions:
REMARK  status: ('A' for Active; 'I' for Inactive)
REMARK    1  A    between atoms: C_1  and  O_2
REMARK    2  A    between atoms: O_2  and  C_3
REMARK    3  A    between atoms: C_6  and  C_7
REMARK    4  A    between atoms: C_11  and  N_12
REMARK    5  A    between atoms: N_12  and  S_13
REMARK    6  A    between atoms: S_13  and  C_16
REMARK    7  A    between atoms: C_18  and  C_19
REMARK    8  A    between atoms: C_20  and  O_21
REMARK    9  A    between atoms: O_21  and  C_22
REMARK   10  A    between atoms: C_23  and  C_24
REMARK   11  A    between atoms: C_25  and  C_26
REMARK                            x       y       z     vdW  Elec       q    Type
REMARK                         _______ _______ _______ _____ _____    ______ ____
ROOT
ATOM      1  N   UNL     1       1.252   9.107  19.923  0.00  0.00    +0.000 N 
ATOM      2  H   UNL     1       0.869   9.450  20.799  0.00  0.00    +0.000 HD
ENDROOT
BRANCH   1   7
ATOM      3  C   UNL     1       3.147   6.198  18.585  0.00  0.00    +0.000 A 
ATOM      4  C   UNL     1       2.771   5.229  19.538  0.00  0.00    +0.000 A 
ATOM      5  C   UNL     1       1.910   5.534  20.597  0.00  0.00    +0.000 A 
ATOM      6  C   UNL     1       1.415   6.827  20.736  0.00  0.00    +0.000 A 
ATOM      7  C   UNL     1       1.767   7.797  19.805  0.00  0.00    +0.000 A 
ATOM      8  C   UNL     1       2.632   7.495  18.750  0.00  0.00    +0.000 A 
BRANCH   3  12
ATOM      9  C   UNL     1       5.772   5.403  15.405  0.00  0.00    +0.000 A 
ATOM     10  C   UNL     1       5.250   4.311  16.064  0.00  0.00    +0.000 A 
ATOM     11  C   UNL     1       4.362   4.531  17.114  0.00  0.00    +0.000 A 
ATOM     12  C   UNL     1       4.034   5.842  17.460  0.00  0.00    +0.000 A 
ATOM     13  N   UNL     1       4.561   6.880  16.771  0.00  0.00    +0.000 NA
ATOM     14  N   UNL     1       5.433   6.667  15.736  0.00  0.00    +0.000 NA
BRANCH   9  16
ATOM     15  C   UNL     1       6.364   4.004  13.634  0.00  0.00    +0.000 C 
ATOM     16  O   UNL     1       6.684   5.163  14.400  0.00  0.00    +0.000 OA
ENDBRANCH   9  16
ENDBRANCH   3  12
ENDBRANCH   1   7
BRANCH   1  17
ATOM     17  S   UNL     1       1.214  10.118  18.589  0.00  0.00    +0.000 S 
ATOM     18  O   UNL     1       1.978  11.295  18.943  0.00  0.00    +0.000 OA
ATOM     19  O   UNL     1       1.567   9.350  17.413  0.00  0.00    +0.000 OA
BRANCH  17  20
ATOM     20  C   UNL     1      -0.529  10.550  18.485  0.00  0.00    +0.000 A 
ATOM     21  C   UNL     1      -1.217  10.072  17.363  0.00  0.00    +0.000 A 
ATOM     22  C   UNL     1      -2.568  10.373  17.166  0.00  0.00    +0.000 A 
ATOM     23  C   UNL     1      -3.257   9.837  15.940  0.00  0.00    +0.000 C 
ATOM     24  C   UNL     1      -3.243  11.196  18.090  0.00  0.00    +0.000 A 
ATOM     25  C   UNL     1      -2.555  11.723  19.210  0.00  0.00    +0.000 A 
ATOM     26  C   UNL     1      -3.190  12.720  20.148  0.00  0.00    +0.000 C 
ATOM     27  C   UNL     1      -1.189  11.357  19.439  0.00  0.00    +0.000 A 
ATOM     28  C   UNL     1      -0.449  11.871  20.652  0.00  0.00    +0.000 C 
BRANCH  24  29
ATOM     29  O   UNL     1      -4.514  11.552  17.710  0.00  0.00    +0.000 OA
ATOM     30  C   UNL     1      -5.604  10.923  18.373  0.00  0.00    +0.000 C 
ENDBRANCH  24  29
ENDBRANCH  17  20
ENDBRANCH   1  17
TORSDOF 6
ENDMDL
MODEL 4
REMARK VINA RESULT:      -7.6      5.963      8.577
REMARK  Name = 
REMARK  11 active torsions:
REMARK  status: ('A' for Active; 'I' for Inactive)
REMARK    1  A    between atoms: C_1  and  O_2
REMARK    2  A    between atoms: O_2  and  C_3
REMARK    3  A    between atoms: C_6  and  C_7
REMARK    4  A    between atoms: C_11  and  N_12
REMARK    5  A    between atoms: N_12  and  S_13
REMARK    6  A    between atoms: S_13  and  C_16
REMARK    7  A    between atoms: C_18  and  C_19
REMARK    8  A    between atoms: C_20  and  O_21
REMARK    9  A    between atoms: O_21  and  C_22
REMARK   10  A    between atoms: C_23  and  C_24
REMARK   11  A    between atoms: C_25  and  C_26
REMARK                            x       y       z     vdW  Elec       q    Type
REMARK                         _______ _______ _______ _____ _____    ______ ____
ROOT
ATOM      1  N   UNL     1       1.254  10.217  18.011  0.00  0.00    +0.000 N 
ATOM      2  H   UNL     1       1.253  10.419  17.015  0.00  0.00    +0.000 HD
ENDROOT
BRANCH   1   7
ATOM      3  C   UNL     1       3.093   6.987  18.174  0.00  0.00    +0.000 A 
ATOM      4  C   UNL     1       2.713   6.578  19.469  0.00  0.00    +0.000 A 
ATOM      5  C   UNL     1       1.867   7.356  20.267  0.00  0.00    +0.000 A 
ATOM      6  C   UNL     1       1.392   8.574  19.791  0.00  0.00    +0.000 A 
ATOM      7  C   UNL     1       1.749   8.994  18.515  0.00  0.00    +0.000 A 
ATOM      8  C   UNL     1       2.598   8.221  17.718  0.00  0.00    +0.000 A 
BRANCH   3  12
ATOM      9  C   UNL     1       5.719   4.746  15.783  0.00  0.00    +0.000 A 
ATOM     10  C   UNL     1       4.880   4.036  16.615  0.00  0.00    +0.000 A 
ATOM     11  C   UNL     1       3.983   4.740  17.412  0.00  0.00    +0.000 A 
ATOM     12  C   UNL     1       3.963   6.133  17.341  0.00  0.00    +0.000 A 
ATOM     13  N   UNL     1       4.796   6.784  16.496  0.00  0.00    +0.000 NA
ATOM     14  N   UNL     1       5.678   6.093  15.709  0.00  0.00    +0.000 NA
BRANCH   9  16
ATOM     15  C   UNL     1       7.005   4.703  13.837  0.00  0.00    +0.000 C 
ATOM     16  O   UNL     1       6.631   4.031  15.038  0.00  0.00    +0.000 OA
ENDBRANCH   9  16
ENDBRANCH   3  12
ENDBRANCH   1   7
BRANCH   1  17
ATOM     17  S   UNL     1       0.698  11.396  19.062  0.00  0.00    +0.000 S 
ATOM     18  O   UNL     1       1.003  10.934  20.399  0.00  0.00    +0.000 OA
ATOM     19  O   UNL     1       1.180  12.685  18.611  0.00  0.00    +0.000 OA
BRANCH  17  20
ATOM     20  C   UNL     1      -1.081  11.332  18.802  0.00  0.00    +0.000 A 
ATOM     21  C   UNL     1      -1.516  10.612  17.683  0.00  0.00    +0.000 A 
ATOM     22  C   UNL     1      -2.876  10.522  17.370  0.00  0.00    +0.000 A 
ATOM     23  C   UNL     1      -3.287   9.738  16.153  0.00  0.00    +0.000 C 
ATOM     24  C   UNL     1      -3.823  11.193  18.169  0.00  0.00    +0.000 A 
ATOM     25  C   UNL     1      -3.400  11.962  19.281  0.00  0.00    +0.000 A 
ATOM     26  C   UNL     1      -4.357  12.811  20.081  0.00  0.00    +0.000 C 
ATOM     27  C   UNL     1      -2.012  11.994  19.633  0.00  0.00    +0.000 A 
ATOM     28  C   UNL     1      -1.545  12.770  20.843  0.00  0.00    +0.000 C 
BRANCH  24  29
ATOM     29  O   UNL     1      -5.104  11.166  17.674  0.00  0.00    +0.000 OA
ATOM     30  C   UNL     1      -5.594  12.341  17.040  0.00  0.00    +0.000 C 
ENDBRANCH  24  29
ENDBRANCH  17  20
ENDBRANCH   1  17
TORSDOF 6
ENDMDL
MODEL 5
REMARK VINA RESULT:      -7.6      5.561      8.792
REMARK  Name = 
REMARK  11 active torsions:
REMARK  status: ('A' for Active; 'I' for Inactive)
REMARK    1  A    between atoms: C_1  and  O_2
REMARK    2  A    between atoms: O_2  and  C_3
REMARK    3  A    between atoms: C_6  and  C_7
REMARK    4  A    between atoms: C_11  and  N_12
REMARK    5  A    between atoms: N_12  and  S_13
REMARK    6  A    between atoms: S_13  and  C_16
REMARK    7  A    between atoms: C_18  and  C_19
REMARK    8  A    between atoms: C_20  and  O_21
REMARK    9  A    between atoms: O_21  and  C_22
REMARK   10  A    between atoms: C_23  and  C_24
REMARK   11  A    between atoms: C_25  and  C_26
REMARK                            x       y       z     vdW  Elec       q    Type
REMARK                         _______ _______ _______ _____ _____    ______ ____
ROOT
ATOM      1  N   UNL     1       1.309   8.895  20.080  0.00  0.00    +0.000 N 
ATOM      2  H   UNL     1       1.356   9.593  19.344  0.00  0.00    +0.000 HD
ENDROOT
BRANCH   1   7
ATOM      3  C   UNL     1       3.184   6.053  18.579  0.00  0.00    +0.000 A 
ATOM      4  C   UNL     1       2.826   5.041  19.494  0.00  0.00    +0.000 A 
ATOM      5  C   UNL     1       1.983   5.297  20.581  0.00  0.00    +0.000 A 
ATOM      6  C   UNL     1       1.489   6.581  20.787  0.00  0.00    +0.000 A 
ATOM      7  C   UNL     1       1.824   7.593  19.895  0.00  0.00    +0.000 A 
ATOM      8  C   UNL     1       2.670   7.341  18.812  0.00  0.00    +0.000 A 
BRANCH   3  12
ATOM      9  C   UNL     1       5.762   5.401  15.329  0.00  0.00    +0.000 A 
ATOM     10  C   UNL     1       5.197   4.284  15.905  0.00  0.00    +0.000 A 
ATOM     11  C   UNL     1       4.323   4.457  16.975  0.00  0.00    +0.000 A 
ATOM     12  C   UNL     1       4.051   5.749  17.424  0.00  0.00    +0.000 A 
ATOM     13  N   UNL     1       4.619   6.816  16.815  0.00  0.00    +0.000 NA
ATOM     14  N   UNL     1       5.477   6.648  15.761  0.00  0.00    +0.000 NA
BRANCH   9  16
ATOM     15  C   UNL     1       6.429   3.985  13.600  0.00  0.00    +0.000 C 
ATOM     16  O   UNL     1       6.660   5.203  14.304  0.00  0.00    +0.000 OA
ENDBRANCH   9  16
ENDBRANCH   3  12
ENDBRANCH   1   7
BRANCH   1  17
ATOM     17  S   UNL     1       0.646   9.336  21.553  0.00  0.00    +0.000 S 
ATOM     18  O   UNL     1      -0.606   8.621  21.672  0.00  0.00    +0.000 OA
ATOM     19  O   UNL     1       1.660   9.199  22.578  0.00  0.00    +0.000 OA
BRANCH  17  20
ATOM     20  C   UNL     1       0.312  11.086  21.314  0.00  0.00    +0.000 A 
ATOM     21  C   UNL     1       1.019  11.715  20.281  0.00  0.00    +0.000 A 
ATOM     22  C   UNL     1       0.858  13.080  20.027  0.00  0.00    +0.000 A 
ATOM     23  C   UNL     1       1.646  13.705  18.907  0.00  0.00    +0.000 C 
ATOM     24  C   UNL     1      -0.001  13.846  20.840  0.00  0.00    +0.000 A 
ATOM     25  C   UNL     1      -0.695  13.239  21.915  0.00  0.00    +0.000 A 
ATOM     26  C   UNL     1      -1.513  14.039  22.898  0.00  0.00    +0.000 C 
ATOM     27  C   UNL     1      -0.575  11.827  22.128  0.00  0.00    +0.000 A 
ATOM     28  C   UNL     1      -1.341  11.150  23.241  0.00  0.00    +0.000 C 
BRANCH  24  29
ATOM     29  O   UNL     1       0.044  15.198  20.598  0.00  0.00    +0.000 OA
ATOM     30  C   UNL     1      -1.025  15.774  19.857  0.00  0.00    +0.000 C 
ENDBRANCH  24  29
ENDBRANCH  17  20
ENDBRANCH   1  17
TORSDOF 6
ENDMDL
MODEL 6
REMARK VINA RESULT:      -7.5      4.969      7.647
REMARK  Name = 
REMARK  11 active torsions:
REMARK  status: ('A' for Active; 'I' for Inactive)
REMARK    1  A    between atoms: C_1  and  O_2
REMARK    2  A    between atoms: O_2  and  C_3
REMARK    3  A    between atoms: C_6  and  C_7
REMARK    4  A    between atoms: C_11  and  N_12
REMARK    5  A    between atoms: N_12  and  S_13
REMARK    6  A    between atoms: S_13  and  C_16
REMARK    7  A    between atoms: C_18  and  C_19
REMARK    8  A    between atoms: C_20  and  O_21
REMARK    9  A    between atoms: O_21  and  C_22
REMARK   10  A    between atoms: C_23  and  C_24
REMARK   11  A    between atoms: C_25  and  C_26
REMARK                            x       y       z     vdW  Elec       q    Type
REMARK                         _______ _______ _______ _____ _____    ______ ____
ROOT
ATOM      1  N   UNL     1       3.006   6.605  19.905  0.00  0.00    +0.000 N 
ATOM      2  H   UNL     1       3.714   6.693  20.628  0.00  0.00    +0.000 HD
ENDROOT
BRANCH   1   7
ATOM      3  C   UNL     1       0.670   9.497  20.073  0.00  0.00    +0.000 A 
ATOM      4  C   UNL     1       0.677   9.869  18.713  0.00  0.00    +0.000 A 
ATOM      5  C   UNL     1       1.438   9.177  17.765  0.00  0.00    +0.000 A 
ATOM      6  C   UNL     1       2.225   8.099  18.161  0.00  0.00    +0.000 A 
ATOM      7  C   UNL     1       2.229   7.712  19.495  0.00  0.00    +0.000 A 
ATOM      8  C   UNL     1       1.475   8.406  20.445  0.00  0.00    +0.000 A 
BRANCH   3  12
ATOM      9  C   UNL     1      -1.844  11.643  22.663  0.00  0.00    +0.000 A 
ATOM     10  C   UNL     1      -1.112  10.618  23.220  0.00  0.00    +0.000 A 
ATOM     11  C   UNL     1      -0.253   9.892  22.398  0.00  0.00    +0.000 A 
ATOM     12  C   UNL     1      -0.164  10.226  21.047  0.00  0.00    +0.000 A 
ATOM     13  N   UNL     1      -0.893  11.253  20.551  0.00  0.00    +0.000 NA
ATOM     14  N   UNL     1      -1.736  11.970  21.357  0.00  0.00    +0.000 NA
BRANCH   9  16
ATOM     15  C   UNL     1      -3.168  13.547  22.917  0.00  0.00    +0.000 C 
ATOM     16  O   UNL     1      -2.722  12.317  23.483  0.00  0.00    +0.000 OA
ENDBRANCH   9  16
ENDBRANCH   3  12
ENDBRANCH   1   7
BRANCH   1  17
ATOM     17  S   UNL     1       2.807   5.117  19.164  0.00  0.00    +0.000 S 
ATOM     18  O   UNL     1       2.938   4.118  20.203  0.00  0.00    +0.000 OA
ATOM     19  O   UNL     1       1.612   5.161  18.346  0.00  0.00    +0.000 OA
BRANCH  17  20
ATOM     20  C   UNL     1       4.237   5.037  18.077  0.00  0.00    +0.000 A 
ATOM     21  C   UNL     1       5.161   6.082  18.193  0.00  0.00    +0.000 A 
ATOM     22  C   UNL     1       6.294   6.135  17.375  0.00  0.00    +0.000 A 
ATOM     23  C   UNL     1       7.252   7.284  17.540  0.00  0.00    +0.000 C 
ATOM     24  C   UNL     1       6.496   5.142  16.396  0.00  0.00    +0.000 A 
ATOM     25  C   UNL     1       5.553   4.098  16.234  0.00  0.00    +0.000 A 
ATOM     26  C   UNL     1       5.649   3.095  15.112  0.00  0.00    +0.000 C 
ATOM     27  C   UNL     1       4.429   4.015  17.119  0.00  0.00    +0.000 A 
ATOM     28  C   UNL     1       3.435   2.884  16.994  0.00  0.00    +0.000 C 
BRANCH  24  29
ATOM     29  O   UNL     1       7.552   5.384  15.551  0.00  0.00    +0.000 OA
ATOM     30  C   UNL     1       7.306   5.327  14.151  0.00  0.00    +0.000 C 
ENDBRANCH  24  29
ENDBRANCH  17  20
ENDBRANCH   1  17
TORSDOF 6
ENDMDL
MODEL 7
REMARK VINA RESULT:      -7.4      5.455      8.203
REMARK  Name = 
REMARK  11 active torsions:
REMARK  status: ('A' for Active; 'I' for Inactive)
REMARK    1  A    between atoms: C_1  and  O_2
REMARK    2  A    between atoms: O_2  and  C_3
REMARK    3  A    between atoms: C_6  and  C_7
REMARK    4  A    between atoms: C_11  and  N_12
REMARK    5  A    between atoms: N_12  and  S_13
REMARK    6  A    between atoms: S_13  and  C_16
REMARK    7  A    between atoms: C_18  and  C_19
REMARK    8  A    between atoms: C_20  and  O_21
REMARK    9  A    between atoms: O_21  and  C_22
REMARK   10  A    between atoms: C_23  and  C_24
REMARK   11  A    between atoms: C_25  and  C_26
REMARK                            x       y       z     vdW  Elec       q    Type
REMARK                         _______ _______ _______ _____ _____    ______ ____
ROOT
ATOM      1  N   UNL     1       1.481   8.930  19.748  0.00  0.00    +0.000 N 
ATOM      2  H   UNL     1       1.351   9.363  20.658  0.00  0.00    +0.000 HD
ENDROOT
BRANCH   1   7
ATOM      3  C   UNL     1       3.313   5.995  18.380  0.00  0.00    +0.000 A 
ATOM      4  C   UNL     1       2.936   5.031  19.337  0.00  0.00    +0.000 A 
ATOM      5  C   UNL     1       2.094   5.347  20.408  0.00  0.00    +0.000 A 
ATOM      6  C   UNL     1       1.620   6.648  20.556  0.00  0.00    +0.000 A 
ATOM      7  C   UNL     1       1.975   7.613  19.622  0.00  0.00    +0.000 A 
ATOM      8  C   UNL     1       2.820   7.300  18.554  0.00  0.00    +0.000 A 
BRANCH   3  12
ATOM      9  C   UNL     1       5.884   5.165  15.165  0.00  0.00    +0.000 A 
ATOM     10  C   UNL     1       5.346   4.081  15.823  0.00  0.00    +0.000 A 
ATOM     11  C   UNL     1       4.476   4.312  16.885  0.00  0.00    +0.000 A 
ATOM     12  C   UNL     1       4.179   5.627  17.243  0.00  0.00    +0.000 A 
ATOM     13  N   UNL     1       4.721   6.659  16.554  0.00  0.00    +0.000 NA
ATOM     14  N   UNL     1       5.575   6.433  15.508  0.00  0.00    +0.000 NA
BRANCH   9  16
ATOM     15  C   UNL     1       6.359   3.845  13.300  0.00  0.00    +0.000 C 
ATOM     16  O   UNL     1       6.779   4.912  14.148  0.00  0.00    +0.000 OA
ENDBRANCH   9  16
ENDBRANCH   3  12
ENDBRANCH   1   7
BRANCH   1  17
ATOM     17  S   UNL     1       1.046   9.800  18.385  0.00  0.00    +0.000 S 
ATOM     18  O   UNL     1       2.136  10.712  18.112  0.00  0.00    +0.000 OA
ATOM     19  O   UNL     1       0.603   8.873  17.364  0.00  0.00    +0.000 OA
BRANCH  17  20
ATOM     20  C   UNL     1      -0.379  10.731  18.963  0.00  0.00    +0.000 A 
ATOM     21  C   UNL     1      -1.529  10.657  18.167  0.00  0.00    +0.000 A 
ATOM     22  C   UNL     1      -2.686  11.366  18.507  0.00  0.00    +0.000 A 
ATOM     23  C   UNL     1      -3.892  11.254  17.613  0.00  0.00    +0.000 C 
ATOM     24  C   UNL     1      -2.688  12.194  19.647  0.00  0.00    +0.000 A 
ATOM     25  C   UNL     1      -1.523  12.315  20.443  0.00  0.00    +0.000 A 
ATOM     26  C   UNL     1      -1.429  13.294  21.588  0.00  0.00    +0.000 C 
ATOM     27  C   UNL     1      -0.364  11.535  20.125  0.00  0.00    +0.000 A 
ATOM     28  C   UNL     1       0.875  11.614  20.987  0.00  0.00    +0.000 C 
BRANCH  24  29
ATOM     29  O   UNL     1      -3.820  12.961  19.790  0.00  0.00    +0.000 OA
ATOM     30  C   UNL     1      -4.754  12.581  20.793  0.00  0.00    +0.000 C 
ENDBRANCH  24  29
ENDBRANCH  17  20
ENDBRANCH   1  17
TORSDOF 6
ENDMDL
MODEL 8
REMARK VINA RESULT:      -7.3      5.532      8.320
REMARK  Name = 
REMARK  11 active torsions:
REMARK  status: ('A' for Active; 'I' for Inactive)
REMARK    1  A    between atoms: C_1  and  O_2
REMARK    2  A    between atoms: O_2  and  C_3
REMARK    3  A    between atoms: C_6  and  C_7
REMARK    4  A    between atoms: C_11  and  N_12
REMARK    5  A    between atoms: N_12  and  S_13
REMARK    6  A    between atoms: S_13  and  C_16
REMARK    7  A    between atoms: C_18  and  C_19
REMARK    8  A    between atoms: C_20  and  O_21
REMARK    9  A    between atoms: O_21  and  C_22
REMARK   10  A    between atoms: C_23  and  C_24
REMARK   11  A    between atoms: C_25  and  C_26
REMARK                            x       y       z     vdW  Elec       q    Type
REMARK                         _______ _______ _______ _____ _____    ______ ____
ROOT
ATOM      1  N   UNL     1       1.418   9.063  19.828  0.00  0.00    +0.000 N 
ATOM      2  H   UNL     1       1.287   9.487  20.743  0.00  0.00    +0.000 HD
ENDROOT
BRANCH   1   7
ATOM      3  C   UNL     1       3.238   6.127  18.446  0.00  0.00    +0.000 A 
ATOM      4  C   UNL     1       2.833   5.153  19.382  0.00  0.00    +0.000 A 
ATOM      5  C   UNL     1       1.978   5.464  20.444  0.00  0.00    +0.000 A 
ATOM      6  C   UNL     1       1.517   6.767  20.604  0.00  0.00    +0.000 A 
ATOM      7  C   UNL     1       1.898   7.742  19.690  0.00  0.00    +0.000 A 
ATOM      8  C   UNL     1       2.757   7.435  18.632  0.00  0.00    +0.000 A 
BRANCH   3  12
ATOM      9  C   UNL     1       5.842   5.319  15.253  0.00  0.00    +0.000 A 
ATOM     10  C   UNL     1       5.332   4.231  15.926  0.00  0.00    +0.000 A 
ATOM     11  C   UNL     1       4.451   4.454  16.981  0.00  0.00    +0.000 A 
ATOM     12  C   UNL     1       4.118   5.766  17.318  0.00  0.00    +0.000 A 
ATOM     13  N   UNL     1       4.634   6.802  16.615  0.00  0.00    +0.000 NA
ATOM     14  N   UNL     1       5.498   6.584  15.576  0.00  0.00    +0.000 NA
BRANCH   9  16
ATOM     15  C   UNL     1       6.412   3.926  13.470  0.00  0.00    +0.000 C 
ATOM     16  O   UNL     1       6.748   5.076  14.244  0.00  0.00    +0.000 OA
ENDBRANCH   9  16
ENDBRANCH   3  12
ENDBRANCH   1   7
BRANCH   1  17
ATOM     17  S   UNL     1       1.002   9.953  18.473  0.00  0.00    +0.000 S 
ATOM     18  O   UNL     1       2.153  10.766  18.144  0.00  0.00    +0.000 OA
ATOM     19  O   UNL     1       0.439   9.057  17.483  0.00  0.00    +0.000 OA
BRANCH  17  20
ATOM     20  C   UNL     1      -0.314  11.009  19.096  0.00  0.00    +0.000 A 
ATOM     21  C   UNL     1      -0.011  11.765  20.235  0.00  0.00    +0.000 A 
ATOM     22  C   UNL     1      -0.970  12.597  20.822  0.00  0.00    +0.000 A 
ATOM     23  C   UNL     1      -0.592  13.384  22.047  0.00  0.00    +0.000 C 
ATOM     24  C   UNL     1      -2.271  12.653  20.282  0.00  0.00    +0.000 A 
ATOM     25  C   UNL     1      -2.609  11.865  19.155  0.00  0.00    +0.000 A 
ATOM     26  C   UNL     1      -4.021  11.781  18.628  0.00  0.00    +0.000 C 
ATOM     27  C   UNL     1      -1.603  11.066  18.521  0.00  0.00    +0.000 A 
ATOM     28  C   UNL     1      -1.931  10.253  17.290  0.00  0.00    +0.000 C 
BRANCH  24  29
ATOM     29  O   UNL     1      -3.166  13.376  21.032  0.00  0.00    +0.000 OA
ATOM     30  C   UNL     1      -3.957  12.671  21.982  0.00  0.00    +0.000 C 
ENDBRANCH  24  29
ENDBRANCH  17  20
ENDBRANCH   1  17
TORSDOF 6
ENDMDL
MODEL 9
REMARK VINA RESULT:      -7.2      5.419      8.756
REMARK  Name = 
REMARK  11 active torsions:
REMARK  status: ('A' for Active; 'I' for Inactive)
REMARK    1  A    between atoms: C_1  and  O_2
REMARK    2  A    between atoms: O_2  and  C_3
REMARK    3  A    between atoms: C_6  and  C_7
REMARK    4  A    between atoms: C_11  and  N_12
REMARK    5  A    between atoms: N_12  and  S_13
REMARK    6  A    between atoms: S_13  and  C_16
REMARK    7  A    between atoms: C_18  and  C_19
REMARK    8  A    between atoms: C_20  and  O_21
REMARK    9  A    between atoms: O_21  and  C_22
REMARK   10  A    between atoms: C_23  and  C_24
REMARK   11  A    between atoms: C_25  and  C_26
REMARK                            x       y       z     vdW  Elec       q    Type
REMARK                         _______ _______ _______ _____ _____    ______ ____
ROOT
ATOM      1  N   UNL     1       1.444   8.716  20.058  0.00  0.00    +0.000 N 
ATOM      2  H   UNL     1       1.574   9.393  19.311  0.00  0.00    +0.000 HD
ENDROOT
BRANCH   1   7
ATOM      3  C   UNL     1       3.232   5.741  18.718  0.00  0.00    +0.000 A 
ATOM      4  C   UNL     1       2.822   4.786  19.670  0.00  0.00    +0.000 A 
ATOM      5  C   UNL     1       1.973   5.122  20.730  0.00  0.00    +0.000 A 
ATOM      6  C   UNL     1       1.524   6.432  20.870  0.00  0.00    +0.000 A 
ATOM      7  C   UNL     1       1.911   7.389  19.940  0.00  0.00    +0.000 A 
ATOM      8  C   UNL     1       2.764   7.057  18.884  0.00  0.00    +0.000 A 
BRANCH   3  12
ATOM      9  C   UNL     1       5.607   4.423  15.515  0.00  0.00    +0.000 A 
ATOM     10  C   UNL     1       5.452   5.785  15.651  0.00  0.00    +0.000 A 
ATOM     11  C   UNL     1       4.685   6.265  16.710  0.00  0.00    +0.000 A 
ATOM     12  C   UNL     1       4.104   5.354  17.592  0.00  0.00    +0.000 A 
ATOM     13  N   UNL     1       4.299   4.025  17.425  0.00  0.00    +0.000 NA
ATOM     14  N   UNL     1       5.055   3.551  16.385  0.00  0.00    +0.000 NA
BRANCH   9  16
ATOM     15  C   UNL     1       7.197   4.966  13.897  0.00  0.00    +0.000 C 
ATOM     16  O   UNL     1       6.330   3.970  14.433  0.00  0.00    +0.000 OA
ENDBRANCH   9  16
ENDBRANCH   3  12
ENDBRANCH   1   7
BRANCH   1  17
ATOM     17  S   UNL     1       0.700   9.224  21.469  0.00  0.00    +0.000 S 
ATOM     18  O   UNL     1      -0.519   8.452  21.593  0.00  0.00    +0.000 OA
ATOM     19  O   UNL     1       1.677   9.215  22.538  0.00  0.00    +0.000 OA
BRANCH  17  20
ATOM     20  C   UNL     1       0.286  10.932  21.091  0.00  0.00    +0.000 A 
ATOM     21  C   UNL     1       0.898  11.480  19.957  0.00  0.00    +0.000 A 
ATOM     22  C   UNL     1       0.671  12.809  19.588  0.00  0.00    +0.000 A 
ATOM     23  C   UNL     1       1.358  13.347  18.361  0.00  0.00    +0.000 C 
ATOM     24  C   UNL     1      -0.159  13.623  20.384  0.00  0.00    +0.000 A 
ATOM     25  C   UNL     1      -0.756  13.101  21.558  0.00  0.00    +0.000 A 
ATOM     26  C   UNL     1      -1.534  13.967  22.517  0.00  0.00    +0.000 C 
ATOM     27  C   UNL     1      -0.570  11.721  21.893  0.00  0.00    +0.000 A 
ATOM     28  C   UNL     1      -1.234  11.131  23.116  0.00  0.00    +0.000 C 
BRANCH  24  29
ATOM     29  O   UNL     1      -0.180  14.947  20.014  0.00  0.00    +0.000 OA
ATOM     30  C   UNL     1       0.710  15.834  20.680  0.00  0.00    +0.000 C 
ENDBRANCH  24  29
ENDBRANCH  17  20
ENDBRANCH   1  17
TORSDOF 6
ENDMDL
