MODEL 1
REMARK VINA RESULT:      -7.1      0.000      0.000
REMARK  Name = 
REMARK  21 active torsions:
REMARK  status: ('A' for Active; 'I' for Inactive)
REMARK    1  A    between atoms: C_1  and  C_2
REMARK    2  A    between atoms: C_2  and  C_3
REMARK    3  A    between atoms: C_3  and  C_4
REMARK    4  A    between atoms: C_4  and  C_5
REMARK    5  A    between atoms: C_5  and  N_6
REMARK    6  A    between atoms: C_5  and  C_23
REMARK    7  A    between atoms: C_7  and  C_9
REMARK    8  A    between atoms: C_9  and  C_11
REMARK    9  A    between atoms: C_11  and  C_12
REMARK   10  A    between atoms: C_12  and  C_13
REMARK   11  A    between atoms: C_13  and  C_14
REMARK   12  A    between atoms: C_14  and  C_15
REMARK   13  A    between atoms: C_18  and  O_19
REMARK   14  A    between atoms: O_19  and  C_20
REMARK   15  A    between atoms: N_25  and  C_26
REMARK   16  A    between atoms: C_26  and  C_27
REMARK   17  A    between atoms: C_27  and  O_29
REMARK   18  A    between atoms: O_29  and  C_30
REMARK   19  A    between atoms: C_30  and  C_31
REMARK   20  A    between atoms: C_30  and  C_32
REMARK   21  A    between atoms: C_30  and  C_33
REMARK                            x       y       z     vdW  Elec       q    Type
REMARK                         _______ _______ _______ _____ _____    ______ ____
ROOT
ATOM      1  N   UNL     1       2.337   5.756  17.968  0.00  0.00    +0.000 N 
ATOM      2  C   UNL     1       2.458   6.773  18.880  0.00  0.00    +0.000 C 
ATOM      3  O   UNL     1       2.845   6.658  20.036  0.00  0.00    +0.000 OA
ATOM      4  H   UNL     1       2.021   5.958  17.023  0.00  0.00    +0.000 HD
ENDROOT
BRANCH   2   5
ATOM      5  C   UNL     1       2.112   8.159  18.341  0.00  0.00    +0.000 C 
ATOM      6  O   UNL     1       2.642   8.545  17.303  0.00  0.00    +0.000 OA
BRANCH   5   7
ATOM      7  C   UNL     1       1.239   8.999  19.236  0.00  0.00    +0.000 C 
BRANCH   7   8
ATOM      8  C   UNL     1       0.820  10.319  18.588  0.00  0.00    +0.000 C 
BRANCH   8   9
ATOM      9  C   UNL     1       1.157  11.495  19.514  0.00  0.00    +0.000 C 
BRANCH   9  10
ATOM     10  C   UNL     1       0.065  12.568  19.521  0.00  0.00    +0.000 C 
BRANCH  10  11
ATOM     11  C   UNL     1      -0.876  12.420  20.697  0.00  0.00    +0.000 A 
ATOM     12  C   UNL     1      -0.504  11.660  21.812  0.00  0.00    +0.000 A 
ATOM     13  C   UNL     1      -1.379  11.513  22.895  0.00  0.00    +0.000 A 
ATOM     14  C   UNL     1      -2.627  12.134  22.890  0.00  0.00    +0.000 A 
ATOM     15  C   UNL     1      -3.014  12.875  21.776  0.00  0.00    +0.000 A 
ATOM     16  C   UNL     1      -2.145  13.018  20.688  0.00  0.00    +0.000 A 
BRANCH  14  17
ATOM     17  O   UNL     1      -3.404  11.905  23.995  0.00  0.00    +0.000 OA
ATOM     18  C   UNL     1      -4.619  12.642  24.051  0.00  0.00    +0.000 C 
ENDBRANCH  14  17
ENDBRANCH  10  11
ENDBRANCH   9  10
ENDBRANCH   8   9
ENDBRANCH   7   8
ENDBRANCH   5   7
ENDBRANCH   2   5
BRANCH   1  19
ATOM     19  C   UNL     1       2.583   4.357  18.328  0.00  0.00    +0.000 C 
BRANCH  19  20
ATOM     20  C   UNL     1       3.726   3.859  17.420  0.00  0.00    +0.000 C 
ATOM     21  O   UNL     1       4.151   2.703  17.456  0.00  0.00    +0.000 OA
ATOM     22  N   UNL     1       4.218   4.803  16.551  0.00  0.00    +0.000 N 
ATOM     23  H   UNL     1       3.802   5.733  16.516  0.00  0.00    +0.000 HD
BRANCH  22  24
ATOM     24  C   UNL     1       5.256   4.515  15.563  0.00  0.00    +0.000 C 
BRANCH  24  25
ATOM     25  C   UNL     1       6.418   5.454  15.838  0.00  0.00    +0.000 C 
ATOM     26  O   UNL     1       7.392   5.517  15.095  0.00  0.00    +0.000 OA
BRANCH  25  27
ATOM     27  O   UNL     1       6.236   6.171  16.988  0.00  0.00    +0.000 OA
BRANCH  27  28
ATOM     28  C   UNL     1       7.040   5.831  18.157  0.00  0.00    +0.000 C 
ATOM     29  C   UNL     1       6.146   5.574  19.380  0.00  0.00    +0.000 C 
ATOM     30  C   UNL     1       7.813   4.540  17.824  0.00  0.00    +0.000 C 
ATOM     31  C   UNL     1       8.072   6.927  18.438  0.00  0.00    +0.000 C 
ENDBRANCH  27  28
ENDBRANCH  25  27
ENDBRANCH  24  25
ENDBRANCH  22  24
ENDBRANCH  19  20
BRANCH  19  32
ATOM     32  C   UNL     1       1.290   3.531  18.203  0.00  0.00    +0.000 C 
BRANCH  32  33
ATOM     33  C   UNL     1       0.773   2.888  19.496  0.00  0.00    +0.000 C 
BRANCH  33  35
ATOM     34  C   UNL     1       2.203   2.990  21.600  0.00  0.00    +0.000 C 
ATOM     35  C   UNL     1       1.203   3.717  20.716  0.00  0.00    +0.000 C 
ENDBRANCH  33  35
ENDBRANCH  32  33
ENDBRANCH  19  32
ENDBRANCH   1  19
TORSDOF 16
ENDMDL
MODEL 2
REMARK VINA RESULT:      -7.0      5.589      8.433
REMARK  Name = 
REMARK  21 active torsions:
REMARK  status: ('A' for Active; 'I' for Inactive)
REMARK    1  A    between atoms: C_1  and  C_2
REMARK    2  A    between atoms: C_2  and  C_3
REMARK    3  A    between atoms: C_3  and  C_4
REMARK    4  A    between atoms: C_4  and  C_5
REMARK    5  A    between atoms: C_5  and  N_6
REMARK    6  A    between atoms: C_5  and  C_23
REMARK    7  A    between atoms: C_7  and  C_9
REMARK    8  A    between atoms: C_9  and  C_11
REMARK    9  A    between atoms: C_11  and  C_12
REMARK   10  A    between atoms: C_12  and  C_13
REMARK   11  A    between atoms: C_13  and  C_14
REMARK   12  A    between atoms: C_14  and  C_15
REMARK   13  A    between atoms: C_18  and  O_19
REMARK   14  A    between atoms: O_19  and  C_20
REMARK   15  A    between atoms: N_25  and  C_26
REMARK   16  A    between atoms: C_26  and  C_27
REMARK   17  A    between atoms: C_27  and  O_29
REMARK   18  A    between atoms: O_29  and  C_30
REMARK   19  A    between atoms: C_30  and  C_31
REMARK   20  A    between atoms: C_30  and  C_32
REMARK   21  A    between atoms: C_30  and  C_33
REMARK                            x       y       z     vdW  Elec       q    Type
REMARK                         _______ _______ _______ _____ _____    ______ ____
ROOT
ATOM      1  N   UNL     1       6.074   6.271  16.648  0.00  0.00    +0.000 N 
ATOM      2  C   UNL     1       7.078   5.733  17.413  0.00  0.00    +0.000 C 
ATOM      3  O   UNL     1       7.397   4.552  17.449  0.00  0.00    +0.000 OA
ATOM      4  H   UNL     1       5.897   7.272  16.674  0.00  0.00    +0.000 HD
ENDROOT
BRANCH   2   5
ATOM      5  C   UNL     1       7.868   6.749  18.234  0.00  0.00    +0.000 C 
ATOM      6  O   UNL     1       8.296   6.421  19.338  0.00  0.00    +0.000 OA
BRANCH   5   7
ATOM      7  C   UNL     1       7.923   8.140  17.658  0.00  0.00    +0.000 C 
BRANCH   7   8
ATOM      8  C   UNL     1       8.550   9.154  18.614  0.00  0.00    +0.000 C 
BRANCH   8   9
ATOM      9  C   UNL     1       8.714  10.510  17.916  0.00  0.00    +0.000 C 
BRANCH   9  10
ATOM     10  C   UNL     1      10.104  11.114  18.126  0.00  0.00    +0.000 C 
BRANCH  10  11
ATOM     11  C   UNL     1      10.116  12.160  19.220  0.00  0.00    +0.000 A 
ATOM     12  C   UNL     1       9.962  11.786  20.560  0.00  0.00    +0.000 A 
ATOM     13  C   UNL     1       9.961  12.753  21.572  0.00  0.00    +0.000 A 
ATOM     14  C   UNL     1      10.130  14.103  21.265  0.00  0.00    +0.000 A 
ATOM     15  C   UNL     1      10.263  14.486  19.933  0.00  0.00    +0.000 A 
ATOM     16  C   UNL     1      10.257  13.523  18.918  0.00  0.00    +0.000 A 
BRANCH  14  17
ATOM     17  O   UNL     1      10.093  14.959  22.334  0.00  0.00    +0.000 OA
ATOM     18  C   UNL     1      10.756  16.203  22.142  0.00  0.00    +0.000 C 
ENDBRANCH  14  17
ENDBRANCH  10  11
ENDBRANCH   9  10
ENDBRANCH   8   9
ENDBRANCH   7   8
ENDBRANCH   5   7
ENDBRANCH   2   5
BRANCH   1  19
ATOM     19  C   UNL     1       5.186   5.436  15.835  0.00  0.00    +0.000 C 
BRANCH  19  20
ATOM     20  C   UNL     1       4.264   4.682  16.816  0.00  0.00    +0.000 C 
ATOM     21  O   UNL     1       3.267   5.197  17.325  0.00  0.00    +0.000 OA
ATOM     22  N   UNL     1       4.632   3.380  17.059  0.00  0.00    +0.000 N 
ATOM     23  H   UNL     1       5.433   2.976  16.576  0.00  0.00    +0.000 HD
BRANCH  22  24
ATOM     24  C   UNL     1       3.855   2.477  17.906  0.00  0.00    +0.000 C 
BRANCH  24  25
ATOM     25  C   UNL     1       4.215   2.785  19.349  0.00  0.00    +0.000 C 
ATOM     26  O   UNL     1       5.253   3.365  19.649  0.00  0.00    +0.000 OA
BRANCH  25  27
ATOM     27  O   UNL     1       3.267   2.327  20.223  0.00  0.00    +0.000 OA
BRANCH  27  28
ATOM     28  C   UNL     1       2.094   3.156  20.475  0.00  0.00    +0.000 C 
ATOM     29  C   UNL     1       1.360   2.692  21.743  0.00  0.00    +0.000 C 
ATOM     30  C   UNL     1       2.586   4.601  20.684  0.00  0.00    +0.000 C 
ATOM     31  C   UNL     1       1.163   3.157  19.259  0.00  0.00    +0.000 C 
ENDBRANCH  27  28
ENDBRANCH  25  27
ENDBRANCH  24  25
ENDBRANCH  22  24
ENDBRANCH  19  20
BRANCH  19  32
ATOM     32  C   UNL     1       6.004   4.509  14.919  0.00  0.00    +0.000 C 
BRANCH  32  33
ATOM     33  C   UNL     1       5.392   4.208  13.544  0.00  0.00    +0.000 C 
BRANCH  33  35
ATOM     34  C   UNL     1       7.025   3.886  11.618  0.00  0.00    +0.000 C 
ATOM     35  C   UNL     1       6.280   3.225  12.766  0.00  0.00    +0.000 C 
ENDBRANCH  33  35
ENDBRANCH  32  33
ENDBRANCH  19  32
ENDBRANCH   1  19
TORSDOF 16
ENDMDL
MODEL 3
REMARK VINA RESULT:      -6.9      3.692      8.854
REMARK  Name = 
REMARK  21 active torsions:
REMARK  status: ('A' for Active; 'I' for Inactive)
REMARK    1  A    between atoms: C_1  and  C_2
REMARK    2  A    between atoms: C_2  and  C_3
REMARK    3  A    between atoms: C_3  and  C_4
REMARK    4  A    between atoms: C_4  and  C_5
REMARK    5  A    between atoms: C_5  and  N_6
REMARK    6  A    between atoms: C_5  and  C_23
REMARK    7  A    between atoms: C_7  and  C_9
REMARK    8  A    between atoms: C_9  and  C_11
REMARK    9  A    between atoms: C_11  and  C_12
REMARK   10  A    between atoms: C_12  and  C_13
REMARK   11  A    between atoms: C_13  and  C_14
REMARK   12  A    between atoms: C_14  and  C_15
REMARK   13  A    between atoms: C_18  and  O_19
REMARK   14  A    between atoms: O_19  and  C_20
REMARK   15  A    between atoms: N_25  and  C_26
REMARK   16  A    between atoms: C_26  and  C_27
REMARK   17  A    between atoms: C_27  and  O_29
REMARK   18  A    between atoms: O_29  and  C_30
REMARK   19  A    between atoms: C_30  and  C_31
REMARK   20  A    between atoms: C_30  and  C_32
REMARK   21  A    between atoms: C_30  and  C_33
REMARK                            x       y       z     vdW  Elec       q    Type
REMARK                         _______ _______ _______ _____ _____    ______ ____
ROOT
ATOM      1  N   UNL     1       4.941   5.739  18.747  0.00  0.00    +0.000 N 
ATOM      2  C   UNL     1       5.802   5.447  17.720  0.00  0.00    +0.000 C 
ATOM      3  O   UNL     1       5.485   5.224  16.559  0.00  0.00    +0.000 OA
ATOM      4  H   UNL     1       5.305   5.928  19.676  0.00  0.00    +0.000 HD
ENDROOT
BRANCH   2   5
ATOM      5  C   UNL     1       7.280   5.464  18.103  0.00  0.00    +0.000 C 
ATOM      6  O   UNL     1       7.861   4.398  18.289  0.00  0.00    +0.000 OA
BRANCH   5   7
ATOM      7  C   UNL     1       7.862   6.829  18.365  0.00  0.00    +0.000 C 
BRANCH   7   8
ATOM      8  C   UNL     1       7.362   7.886  17.380  0.00  0.00    +0.000 C 
BRANCH   8   9
ATOM      9  C   UNL     1       8.050   9.230  17.651  0.00  0.00    +0.000 C 
BRANCH   9  10
ATOM     10  C   UNL     1       8.844   9.229  18.960  0.00  0.00    +0.000 C 
BRANCH  10  11
ATOM     11  C   UNL     1       9.553  10.545  19.201  0.00  0.00    +0.000 A 
ATOM     12  C   UNL     1       9.690  11.049  20.499  0.00  0.00    +0.000 A 
ATOM     13  C   UNL     1      10.335  12.271  20.722  0.00  0.00    +0.000 A 
ATOM     14  C   UNL     1      10.867  12.999  19.658  0.00  0.00    +0.000 A 
ATOM     15  C   UNL     1      10.718  12.515  18.361  0.00  0.00    +0.000 A 
ATOM     16  C   UNL     1      10.066  11.297  18.133  0.00  0.00    +0.000 A 
BRANCH  14  17
ATOM     17  O   UNL     1      11.459  14.187  19.994  0.00  0.00    +0.000 OA
ATOM     18  C   UNL     1      11.310  15.234  19.044  0.00  0.00    +0.000 C 
ENDBRANCH  14  17
ENDBRANCH  10  11
ENDBRANCH   9  10
ENDBRANCH   8   9
ENDBRANCH   7   8
ENDBRANCH   5   7
ENDBRANCH   2   5
BRANCH   1  19
ATOM     19  C   UNL     1       3.486   5.722  18.568  0.00  0.00    +0.000 C 
BRANCH  19  20
ATOM     20  C   UNL     1       3.059   7.173  18.262  0.00  0.00    +0.000 C 
ATOM     21  O   UNL     1       3.439   7.783  17.261  0.00  0.00    +0.000 OA
ATOM     22  N   UNL     1       2.202   7.723  19.184  0.00  0.00    +0.000 N 
ATOM     23  H   UNL     1       1.870   7.165  19.970  0.00  0.00    +0.000 HD
BRANCH  22  24
ATOM     24  C   UNL     1       1.630   9.060  19.044  0.00  0.00    +0.000 C 
BRANCH  24  25
ATOM     25  C   UNL     1       0.716   9.291  20.236  0.00  0.00    +0.000 C 
ATOM     26  O   UNL     1       1.005   8.898  21.360  0.00  0.00    +0.000 OA
BRANCH  25  27
ATOM     27  O   UNL     1      -0.428   9.952  19.883  0.00  0.00    +0.000 OA
BRANCH  27  28
ATOM     28  C   UNL     1      -0.530  11.377  20.179  0.00  0.00    +0.000 C 
ATOM     29  C   UNL     1      -0.176  11.657  21.648  0.00  0.00    +0.000 C 
ATOM     30  C   UNL     1       0.481  12.108  19.274  0.00  0.00    +0.000 C 
ATOM     31  C   UNL     1      -1.925  11.902  19.830  0.00  0.00    +0.000 C 
ENDBRANCH  27  28
ENDBRANCH  25  27
ENDBRANCH  24  25
ENDBRANCH  22  24
ENDBRANCH  19  20
BRANCH  19  32
ATOM     32  C   UNL     1       2.796   5.123  19.806  0.00  0.00    +0.000 C 
BRANCH  32  33
ATOM     33  C   UNL     1       1.676   4.111  19.530  0.00  0.00    +0.000 C 
BRANCH  33  35
ATOM     34  C   UNL     1       2.320   2.324  17.836  0.00  0.00    +0.000 C 
ATOM     35  C   UNL     1       1.688   3.688  18.053  0.00  0.00    +0.000 C 
ENDBRANCH  33  35
ENDBRANCH  32  33
ENDBRANCH  19  32
ENDBRANCH   1  19
TORSDOF 16
ENDMDL
MODEL 4
REMARK VINA RESULT:      -6.9      5.129      8.389
REMARK  Name = 
REMARK  21 active torsions:
REMARK  status: ('A' for Active; 'I' for Inactive)
REMARK    1  A    between atoms: C_1  and  C_2
REMARK    2  A    between atoms: C_2  and  C_3
REMARK    3  A    between atoms: C_3  and  C_4
REMARK    4  A    between atoms: C_4  and  C_5
REMARK    5  A    between atoms: C_5  and  N_6
REMARK    6  A    between atoms: C_5  and  C_23
REMARK    7  A    between atoms: C_7  and  C_9
REMARK    8  A    between atoms: C_9  and  C_11
REMARK    9  A    between atoms: C_11  and  C_12
REMARK   10  A    between atoms: C_12  and  C_13
REMARK   11  A    between atoms: C_13  and  C_14
REMARK   12  A    between atoms: C_14  and  C_15
REMARK   13  A    between atoms: C_18  and  O_19
REMARK   14  A    between atoms: O_19  and  C_20
REMARK   15  A    between atoms: N_25  and  C_26
REMARK   16  A    between atoms: C_26  and  C_27
REMARK   17  A    between atoms: C_27  and  O_29
REMARK   18  A    between atoms: O_29  and  C_30
REMARK   19  A    between atoms: C_30  and  C_31
REMARK   20  A    between atoms: C_30  and  C_32
REMARK   21  A    between atoms: C_30  and  C_33
REMARK                            x       y       z     vdW  Elec       q    Type
REMARK                         _______ _______ _______ _____ _____    ______ ____
ROOT
ATOM      1  N   UNL     1       6.604   6.357  16.411  0.00  0.00    +0.000 N 
ATOM      2  C   UNL     1       7.424   5.848  17.386  0.00  0.00    +0.000 C 
ATOM      3  O   UNL     1       7.728   4.670  17.525  0.00  0.00    +0.000 OA
ATOM      4  H   UNL     1       6.426   7.356  16.369  0.00  0.00    +0.000 HD
ENDROOT
BRANCH   2   5
ATOM      5  C   UNL     1       8.023   6.891  18.325  0.00  0.00    +0.000 C 
ATOM      6  O   UNL     1       8.348   6.557  19.461  0.00  0.00    +0.000 OA
BRANCH   5   7
ATOM      7  C   UNL     1       8.023   8.304  17.801  0.00  0.00    +0.000 C 
BRANCH   7   8
ATOM      8  C   UNL     1       8.772   9.276  18.713  0.00  0.00    +0.000 C 
BRANCH   8   9
ATOM      9  C   UNL     1       8.862  10.658  18.054  0.00  0.00    +0.000 C 
BRANCH   9  10
ATOM     10  C   UNL     1      10.166  11.386  18.393  0.00  0.00    +0.000 C 
BRANCH  10  11
ATOM     11  C   UNL     1       9.964  12.472  19.428  0.00  0.00    +0.000 A 
ATOM     12  C   UNL     1       9.932  13.818  19.046  0.00  0.00    +0.000 A 
ATOM     13  C   UNL     1       9.758  14.824  20.003  0.00  0.00    +0.000 A 
ATOM     14  C   UNL     1       9.596  14.503  21.350  0.00  0.00    +0.000 A 
ATOM     15  C   UNL     1       9.647  13.167  21.742  0.00  0.00    +0.000 A 
ATOM     16  C   UNL     1       9.829  12.159  20.788  0.00  0.00    +0.000 A 
BRANCH  14  17
ATOM     17  O   UNL     1       9.451  15.569  22.198  0.00  0.00    +0.000 OA
ATOM     18  C   UNL     1      10.654  16.057  22.777  0.00  0.00    +0.000 C 
ENDBRANCH  14  17
ENDBRANCH  10  11
ENDBRANCH   9  10
ENDBRANCH   8   9
ENDBRANCH   7   8
ENDBRANCH   5   7
ENDBRANCH   2   5
BRANCH   1  19
ATOM     19  C   UNL     1       5.908   5.493  15.453  0.00  0.00    +0.000 C 
BRANCH  19  20
ATOM     20  C   UNL     1       4.797   4.765  16.239  0.00  0.00    +0.000 C 
ATOM     21  O   UNL     1       4.665   3.540  16.227  0.00  0.00    +0.000 OA
ATOM     22  N   UNL     1       3.979   5.592  16.970  0.00  0.00    +0.000 N 
ATOM     23  H   UNL     1       4.156   6.596  16.995  0.00  0.00    +0.000 HD
BRANCH  22  24
ATOM     24  C   UNL     1       2.909   5.096  17.834  0.00  0.00    +0.000 C 
BRANCH  24  25
ATOM     25  C   UNL     1       3.536   4.724  19.166  0.00  0.00    +0.000 C 
ATOM     26  O   UNL     1       4.341   5.456  19.732  0.00  0.00    +0.000 OA
BRANCH  25  27
ATOM     27  O   UNL     1       3.107   3.504  19.611  0.00  0.00    +0.000 OA
BRANCH  27  28
ATOM     28  C   UNL     1       1.830   3.428  20.314  0.00  0.00    +0.000 C 
ATOM     29  C   UNL     1       0.791   2.665  19.477  0.00  0.00    +0.000 C 
ATOM     30  C   UNL     1       2.073   2.661  21.628  0.00  0.00    +0.000 C 
ATOM     31  C   UNL     1       1.333   4.829  20.682  0.00  0.00    +0.000 C 
ENDBRANCH  27  28
ENDBRANCH  25  27
ENDBRANCH  24  25
ENDBRANCH  22  24
ENDBRANCH  19  20
BRANCH  19  32
ATOM     32  C   UNL     1       6.901   4.540  14.763  0.00  0.00    +0.000 C 
BRANCH  32  33
ATOM     33  C   UNL     1       6.802   4.455  13.235  0.00  0.00    +0.000 C 
BRANCH  33  35
ATOM     34  C   UNL     1       5.915   2.583  11.755  0.00  0.00    +0.000 C 
ATOM     35  C   UNL     1       5.584   3.613  12.822  0.00  0.00    +0.000 C 
ENDBRANCH  33  35
ENDBRANCH  32  33
ENDBRANCH  19  32
ENDBRANCH   1  19
TORSDOF 16
ENDMDL
MODEL 5
REMARK VINA RESULT:      -6.9      3.797      8.588
REMARK  Name = 
REMARK  21 active torsions:
REMARK  status: ('A' for Active; 'I' for Inactive)
REMARK    1  A    between atoms: C_1  and  C_2
REMARK    2  A    between atoms: C_2  and  C_3
REMARK    3  A    between atoms: C_3  and  C_4
REMARK    4  A    between atoms: C_4  and  C_5
REMARK    5  A    between atoms: C_5  and  N_6
REMARK    6  A    between atoms: C_5  and  C_23
REMARK    7  A    between atoms: C_7  and  C_9
REMARK    8  A    between atoms: C_9  and  C_11
REMARK    9  A    between atoms: C_11  and  C_12
REMARK   10  A    between atoms: C_12  and  C_13
REMARK   11  A    between atoms: C_13  and  C_14
REMARK   12  A    between atoms: C_14  and  C_15
REMARK   13  A    between atoms: C_18  and  O_19
REMARK   14  A    between atoms: O_19  and  C_20
REMARK   15  A    between atoms: N_25  and  C_26
REMARK   16  A    between atoms: C_26  and  C_27
REMARK   17  A    between atoms: C_27  and  O_29
REMARK   18  A    between atoms: O_29  and  C_30
REMARK   19  A    between atoms: C_30  and  C_31
REMARK   20  A    between atoms: C_30  and  C_32
REMARK   21  A    between atoms: C_30  and  C_33
REMARK                            x       y       z     vdW  Elec       q    Type
REMARK                         _______ _______ _______ _____ _____    ______ ____
ROOT
ATOM      1  N   UNL     1       4.797   5.475  17.857  0.00  0.00    +0.000 N 
ATOM      2  C   UNL     1       5.682   5.017  16.915  0.00  0.00    +0.000 C 
ATOM      3  O   UNL     1       5.668   3.908  16.396  0.00  0.00    +0.000 OA
ATOM      4  H   UNL     1       4.883   6.422  18.215  0.00  0.00    +0.000 HD
ENDROOT
BRANCH   2   5
ATOM      5  C   UNL     1       6.729   6.037  16.474  0.00  0.00    +0.000 C 
ATOM      6  O   UNL     1       7.610   5.689  15.692  0.00  0.00    +0.000 OA
BRANCH   5   7
ATOM      7  C   UNL     1       6.663   7.370  17.173  0.00  0.00    +0.000 C 
BRANCH   7   8
ATOM      8  C   UNL     1       7.934   7.691  17.960  0.00  0.00    +0.000 C 
BRANCH   8   9
ATOM      9  C   UNL     1       8.188   9.204  17.963  0.00  0.00    +0.000 C 
BRANCH   9  10
ATOM     10  C   UNL     1       9.101   9.643  19.110  0.00  0.00    +0.000 C 
BRANCH  10  11
ATOM     11  C   UNL     1       9.687  11.020  18.881  0.00  0.00    +0.000 A 
ATOM     12  C   UNL     1      10.777  11.462  19.639  0.00  0.00    +0.000 A 
ATOM     13  C   UNL     1      11.312  12.740  19.436  0.00  0.00    +0.000 A 
ATOM     14  C   UNL     1      10.781  13.587  18.464  0.00  0.00    +0.000 A 
ATOM     15  C   UNL     1       9.684  13.163  17.719  0.00  0.00    +0.000 A 
ATOM     16  C   UNL     1       9.141  11.889  17.925  0.00  0.00    +0.000 A 
BRANCH  14  17
ATOM     17  O   UNL     1      11.374  14.818  18.367  0.00  0.00    +0.000 OA
ATOM     18  C   UNL     1      11.842  15.170  17.072  0.00  0.00    +0.000 C 
ENDBRANCH  14  17
ENDBRANCH  10  11
ENDBRANCH   9  10
ENDBRANCH   8   9
ENDBRANCH   7   8
ENDBRANCH   5   7
ENDBRANCH   2   5
BRANCH   1  19
ATOM     19  C   UNL     1       3.756   4.615  18.427  0.00  0.00    +0.000 C 
BRANCH  19  20
ATOM     20  C   UNL     1       2.612   5.545  18.882  0.00  0.00    +0.000 C 
ATOM     21  O   UNL     1       1.460   5.145  19.062  0.00  0.00    +0.000 OA
ATOM     22  N   UNL     1       2.986   6.850  19.093  0.00  0.00    +0.000 N 
ATOM     23  H   UNL     1       3.960   7.127  18.984  0.00  0.00    +0.000 HD
BRANCH  22  24
ATOM     24  C   UNL     1       2.067   7.873  19.589  0.00  0.00    +0.000 C 
BRANCH  24  25
ATOM     25  C   UNL     1       1.693   8.757  18.412  0.00  0.00    +0.000 C 
ATOM     26  O   UNL     1       2.395   8.835  17.409  0.00  0.00    +0.000 OA
BRANCH  25  27
ATOM     27  O   UNL     1       0.525   9.435  18.630  0.00  0.00    +0.000 OA
BRANCH  27  28
ATOM     28  C   UNL     1       0.597  10.823  19.075  0.00  0.00    +0.000 C 
ATOM     29  C   UNL     1       0.725  10.901  20.604  0.00  0.00    +0.000 C 
ATOM     30  C   UNL     1       1.853  11.446  18.436  0.00  0.00    +0.000 C 
ATOM     31  C   UNL     1      -0.616  11.613  18.574  0.00  0.00    +0.000 C 
ENDBRANCH  27  28
ENDBRANCH  25  27
ENDBRANCH  24  25
ENDBRANCH  22  24
ENDBRANCH  19  20
BRANCH  19  32
ATOM     32  C   UNL     1       4.333   3.746  19.558  0.00  0.00    +0.000 C 
BRANCH  32  33
ATOM     33  C   UNL     1       3.743   2.336  19.693  0.00  0.00    +0.000 C 
BRANCH  33  35
ATOM     34  C   UNL     1       1.536   1.827  18.531  0.00  0.00    +0.000 C 
ATOM     35  C   UNL     1       3.046   1.920  18.389  0.00  0.00    +0.000 C 
ENDBRANCH  33  35
ENDBRANCH  32  33
ENDBRANCH  19  32
ENDBRANCH   1  19
TORSDOF 16
ENDMDL
MODEL 6
REMARK VINA RESULT:      -6.8      2.272      2.805
REMARK  Name = 
REMARK  21 active torsions:
REMARK  status: ('A' for Active; 'I' for Inactive)
REMARK    1  A    between atoms: C_1  and  C_2
REMARK    2  A    between atoms: C_2  and  C_3
REMARK    3  A    between atoms: C_3  and  C_4
REMARK    4  A    between atoms: C_4  and  C_5
REMARK    5  A    between atoms: C_5  and  N_6
REMARK    6  A    between atoms: C_5  and  C_23
REMARK    7  A    between atoms: C_7  and  C_9
REMARK    8  A    between atoms: C_9  and  C_11
REMARK    9  A    between atoms: C_11  and  C_12
REMARK   10  A    between atoms: C_12  and  C_13
REMARK   11  A    between atoms: C_13  and  C_14
REMARK   12  A    between atoms: C_14  and  C_15
REMARK   13  A    between atoms: C_18  and  O_19
REMARK   14  A    between atoms: O_19  and  C_20
REMARK   15  A    between atoms: N_25  and  C_26
REMARK   16  A    between atoms: C_26  and  C_27
REMARK   17  A    between atoms: C_27  and  O_29
REMARK   18  A    between atoms: O_29  and  C_30
REMARK   19  A    between atoms: C_30  and  C_31
REMARK   20  A    between atoms: C_30  and  C_32
REMARK   21  A    between atoms: C_30  and  C_33
REMARK                            x       y       z     vdW  Elec       q    Type
REMARK                         _______ _______ _______ _____ _____    ______ ____
ROOT
ATOM      1  N   UNL     1       2.963   5.572  18.547  0.00  0.00    +0.000 N 
ATOM      2  C   UNL     1       2.454   6.159  19.678  0.00  0.00    +0.000 C 
ATOM      3  O   UNL     1       2.323   5.620  20.769  0.00  0.00    +0.000 OA
ATOM      4  H   UNL     1       3.048   6.112  17.690  0.00  0.00    +0.000 HD
ENDROOT
BRANCH   2   5
ATOM      5  C   UNL     1       2.079   7.630  19.520  0.00  0.00    +0.000 C 
ATOM      6  O   UNL     1       1.627   8.239  20.486  0.00  0.00    +0.000 OA
BRANCH   5   7
ATOM      7  C   UNL     1       2.166   8.169  18.116  0.00  0.00    +0.000 C 
BRANCH   7   8
ATOM      8  C   UNL     1       1.794   9.649  18.023  0.00  0.00    +0.000 C 
BRANCH   8   9
ATOM      9  C   UNL     1       0.270   9.809  17.953  0.00  0.00    +0.000 C 
BRANCH   9  10
ATOM     10  C   UNL     1      -0.239  10.965  18.817  0.00  0.00    +0.000 C 
BRANCH  10  11
ATOM     11  C   UNL     1      -1.736  11.154  18.697  0.00  0.00    +0.000 A 
ATOM     12  C   UNL     1      -2.402  12.077  19.511  0.00  0.00    +0.000 A 
ATOM     13  C   UNL     1      -3.788  12.245  19.409  0.00  0.00    +0.000 A 
ATOM     14  C   UNL     1      -4.527  11.508  18.484  0.00  0.00    +0.000 A 
ATOM     15  C   UNL     1      -3.876  10.572  17.685  0.00  0.00    +0.000 A 
ATOM     16  C   UNL     1      -2.491  10.396  17.789  0.00  0.00    +0.000 A 
BRANCH  14  17
ATOM     17  O   UNL     1      -5.876  11.742  18.486  0.00  0.00    +0.000 OA
ATOM     18  C   UNL     1      -6.697  10.587  18.598  0.00  0.00    +0.000 C 
ENDBRANCH  14  17
ENDBRANCH  10  11
ENDBRANCH   9  10
ENDBRANCH   8   9
ENDBRANCH   7   8
ENDBRANCH   5   7
ENDBRANCH   2   5
BRANCH   1  19
ATOM     19  C   UNL     1       3.330   4.154  18.507  0.00  0.00    +0.000 C 
BRANCH  19  20
ATOM     20  C   UNL     1       4.845   4.096  18.221  0.00  0.00    +0.000 C 
ATOM     21  O   UNL     1       5.685   3.911  19.104  0.00  0.00    +0.000 OA
ATOM     22  N   UNL     1       5.183   4.245  16.897  0.00  0.00    +0.000 N 
ATOM     23  H   UNL     1       4.454   4.342  16.191  0.00  0.00    +0.000 HD
BRANCH  22  24
ATOM     24  C   UNL     1       6.558   4.155  16.409  0.00  0.00    +0.000 C 
BRANCH  24  25
ATOM     25  C   UNL     1       6.890   5.479  15.741  0.00  0.00    +0.000 C 
ATOM     26  O   UNL     1       6.355   5.830  14.695  0.00  0.00    +0.000 OA
BRANCH  25  27
ATOM     27  O   UNL     1       7.839   6.178  16.434  0.00  0.00    +0.000 OA
BRANCH  27  28
ATOM     28  C   UNL     1       7.406   7.058  17.515  0.00  0.00    +0.000 C 
ATOM     29  C   UNL     1       5.887   7.283  17.461  0.00  0.00    +0.000 C 
ATOM     30  C   UNL     1       7.761   6.363  18.844  0.00  0.00    +0.000 C 
ATOM     31  C   UNL     1       8.170   8.384  17.469  0.00  0.00    +0.000 C 
ENDBRANCH  27  28
ENDBRANCH  25  27
ENDBRANCH  24  25
ENDBRANCH  22  24
ENDBRANCH  19  20
BRANCH  19  32
ATOM     32  C   UNL     1       2.477   3.403  17.470  0.00  0.00    +0.000 C 
BRANCH  32  33
ATOM     33  C   UNL     1       2.300   1.897  17.706  0.00  0.00    +0.000 C 
BRANCH  33  35
ATOM     34  C   UNL     1       0.380   2.750  19.144  0.00  0.00    +0.000 C 
ATOM     35  C   UNL     1       1.403   1.648  18.929  0.00  0.00    +0.000 C 
ENDBRANCH  33  35
ENDBRANCH  32  33
ENDBRANCH  19  32
ENDBRANCH   1  19
TORSDOF 16
ENDMDL
MODEL 7
REMARK VINA RESULT:      -6.8      5.303      8.538
REMARK  Name = 
REMARK  21 active torsions:
REMARK  status: ('A' for Active; 'I' for Inactive)
REMARK    1  A    between atoms: C_1  and  C_2
REMARK    2  A    between atoms: C_2  and  C_3
REMARK    3  A    between atoms: C_3  and  C_4
REMARK    4  A    between atoms: C_4  and  C_5
REMARK    5  A    between atoms: C_5  and  N_6
REMARK    6  A    between atoms: C_5  and  C_23
REMARK    7  A    between atoms: C_7  and  C_9
REMARK    8  A    between atoms: C_9  and  C_11
REMARK    9  A    between atoms: C_11  and  C_12
REMARK   10  A    between atoms: C_12  and  C_13
REMARK   11  A    between atoms: C_13  and  C_14
REMARK   12  A    between atoms: C_14  and  C_15
REMARK   13  A    between atoms: C_18  and  O_19
REMARK   14  A    between atoms: O_19  and  C_20
REMARK   15  A    between atoms: N_25  and  C_26
REMARK   16  A    between atoms: C_26  and  C_27
REMARK   17  A    between atoms: C_27  and  O_29
REMARK   18  A    between atoms: O_29  and  C_30
REMARK   19  A    between atoms: C_30  and  C_31
REMARK   20  A    between atoms: C_30  and  C_32
REMARK   21  A    between atoms: C_30  and  C_33
REMARK                            x       y       z     vdW  Elec       q    Type
REMARK                         _______ _______ _______ _____ _____    ______ ____
ROOT
ATOM      1  N   UNL     1       7.198   5.907  17.476  0.00  0.00    +0.000 N 
ATOM      2  C   UNL     1       7.213   7.277  17.424  0.00  0.00    +0.000 C 
ATOM      3  O   UNL     1       6.457   7.979  16.764  0.00  0.00    +0.000 OA
ATOM      4  H   UNL     1       7.859   5.414  18.070  0.00  0.00    +0.000 HD
ENDROOT
BRANCH   2   5
ATOM      5  C   UNL     1       8.253   7.938  18.325  0.00  0.00    +0.000 C 
ATOM      6  O   UNL     1       8.785   7.274  19.210  0.00  0.00    +0.000 OA
BRANCH   5   7
ATOM      7  C   UNL     1       8.423   9.423  18.130  0.00  0.00    +0.000 C 
BRANCH   7   8
ATOM      8  C   UNL     1       9.190  10.088  19.274  0.00  0.00    +0.000 C 
BRANCH   8   9
ATOM      9  C   UNL     1       9.704  11.465  18.836  0.00  0.00    +0.000 C 
BRANCH   9  10
ATOM     10  C   UNL     1       8.799  12.126  17.794  0.00  0.00    +0.000 C 
BRANCH  10  11
ATOM     11  C   UNL     1       8.806  13.636  17.903  0.00  0.00    +0.000 A 
ATOM     12  C   UNL     1       7.605  14.354  17.878  0.00  0.00    +0.000 A 
ATOM     13  C   UNL     1       7.611  15.751  17.967  0.00  0.00    +0.000 A 
ATOM     14  C   UNL     1       8.810  16.450  18.100  0.00  0.00    +0.000 A 
ATOM     15  C   UNL     1      10.011  15.745  18.106  0.00  0.00    +0.000 A 
ATOM     16  C   UNL     1      10.010  14.348  18.009  0.00  0.00    +0.000 A 
BRANCH  14  17
ATOM     17  O   UNL     1       8.695  17.813  18.161  0.00  0.00    +0.000 OA
ATOM     18  C   UNL     1       9.891  18.539  17.912  0.00  0.00    +0.000 C 
ENDBRANCH  14  17
ENDBRANCH  10  11
ENDBRANCH   9  10
ENDBRANCH   8   9
ENDBRANCH   7   8
ENDBRANCH   5   7
ENDBRANCH   2   5
BRANCH   1  19
ATOM     19  C   UNL     1       6.297   5.108  16.640  0.00  0.00    +0.000 C 
BRANCH  19  20
ATOM     20  C   UNL     1       5.592   4.107  17.579  0.00  0.00    +0.000 C 
ATOM     21  O   UNL     1       5.812   4.061  18.791  0.00  0.00    +0.000 OA
ATOM     22  N   UNL     1       4.683   3.285  16.959  0.00  0.00    +0.000 N 
ATOM     23  H   UNL     1       4.492   3.391  15.963  0.00  0.00    +0.000 HD
BRANCH  22  24
ATOM     24  C   UNL     1       3.863   2.313  17.681  0.00  0.00    +0.000 C 
BRANCH  24  25
ATOM     25  C   UNL     1       2.662   3.057  18.238  0.00  0.00    +0.000 C 
ATOM     26  O   UNL     1       1.785   3.512  17.511  0.00  0.00    +0.000 OA
BRANCH  25  27
ATOM     27  O   UNL     1       2.708   3.157  19.602  0.00  0.00    +0.000 OA
BRANCH  27  28
ATOM     28  C   UNL     1       1.452   3.257  20.337  0.00  0.00    +0.000 C 
ATOM     29  C   UNL     1       1.575   2.602  21.721  0.00  0.00    +0.000 C 
ATOM     30  C   UNL     1       1.142   4.755  20.518  0.00  0.00    +0.000 C 
ATOM     31  C   UNL     1       0.304   2.644  19.528  0.00  0.00    +0.000 C 
ENDBRANCH  27  28
ENDBRANCH  25  27
ENDBRANCH  24  25
ENDBRANCH  22  24
ENDBRANCH  19  20
BRANCH  19  32
ATOM     32  C   UNL     1       7.074   4.438  15.494  0.00  0.00    +0.000 C 
BRANCH  32  33
ATOM     33  C   UNL     1       6.652   4.834  14.072  0.00  0.00    +0.000 C 
BRANCH  33  35
ATOM     34  C   UNL     1       6.474   3.312  12.040  0.00  0.00    +0.000 C 
ATOM     35  C   UNL     1       5.896   3.680  13.396  0.00  0.00    +0.000 C 
ENDBRANCH  33  35
ENDBRANCH  32  33
ENDBRANCH  19  32
ENDBRANCH   1  19
TORSDOF 16
ENDMDL
MODEL 8
REMARK VINA RESULT:      -6.8      2.286      3.102
REMARK  Name = 
REMARK  21 active torsions:
REMARK  status: ('A' for Active; 'I' for Inactive)
REMARK    1  A    between atoms: C_1  and  C_2
REMARK    2  A    between atoms: C_2  and  C_3
REMARK    3  A    between atoms: C_3  and  C_4
REMARK    4  A    between atoms: C_4  and  C_5
REMARK    5  A    between atoms: C_5  and  N_6
REMARK    6  A    between atoms: C_5  and  C_23
REMARK    7  A    between atoms: C_7  and  C_9
REMARK    8  A    between atoms: C_9  and  C_11
REMARK    9  A    between atoms: C_11  and  C_12
REMARK   10  A    between atoms: C_12  and  C_13
REMARK   11  A    between atoms: C_13  and  C_14
REMARK   12  A    between atoms: C_14  and  C_15
REMARK   13  A    between atoms: C_18  and  O_19
REMARK   14  A    between atoms: O_19  and  C_20
REMARK   15  A    between atoms: N_25  and  C_26
REMARK   16  A    between atoms: C_26  and  C_27
REMARK   17  A    between atoms: C_27  and  O_29
REMARK   18  A    between atoms: O_29  and  C_30
REMARK   19  A    between atoms: C_30  and  C_31
REMARK   20  A    between atoms: C_30  and  C_32
REMARK   21  A    between atoms: C_30  and  C_33
REMARK                            x       y       z     vdW  Elec       q    Type
REMARK                         _______ _______ _______ _____ _____    ______ ____
ROOT
ATOM      1  N   UNL     1       3.241   6.309  19.079  0.00  0.00    +0.000 N 
ATOM      2  C   UNL     1       2.232   6.956  19.747  0.00  0.00    +0.000 C 
ATOM      3  O   UNL     1       1.587   6.504  20.685  0.00  0.00    +0.000 OA
ATOM      4  H   UNL     1       3.730   6.777  18.322  0.00  0.00    +0.000 HD
ENDROOT
BRANCH   2   5
ATOM      5  C   UNL     1       1.962   8.380  19.270  0.00  0.00    +0.000 C 
ATOM      6  O   UNL     1       2.504   8.779  18.242  0.00  0.00    +0.000 OA
BRANCH   5   7
ATOM      7  C   UNL     1       1.150   9.232  20.210  0.00  0.00    +0.000 C 
BRANCH   7   8
ATOM      8  C   UNL     1       0.005   9.964  19.510  0.00  0.00    +0.000 C 
BRANCH   8   9
ATOM      9  C   UNL     1       0.218  11.481  19.590  0.00  0.00    +0.000 C 
BRANCH   9  10
ATOM     10  C   UNL     1      -0.528  12.237  18.488  0.00  0.00    +0.000 C 
BRANCH  10  11
ATOM     11  C   UNL     1      -2.030  12.112  18.623  0.00  0.00    +0.000 A 
ATOM     12  C   UNL     1      -2.680  12.572  19.774  0.00  0.00    +0.000 A 
ATOM     13  C   UNL     1      -4.068  12.446  19.904  0.00  0.00    +0.000 A 
ATOM     14  C   UNL     1      -4.829  11.876  18.885  0.00  0.00    +0.000 A 
ATOM     15  C   UNL     1      -4.189  11.396  17.745  0.00  0.00    +0.000 A 
ATOM     16  C   UNL     1      -2.800  11.513  17.614  0.00  0.00    +0.000 A 
BRANCH  14  17
ATOM     17  O   UNL     1      -6.174  11.788  19.130  0.00  0.00    +0.000 OA
ATOM     18  C   UNL     1      -7.016  12.009  18.006  0.00  0.00    +0.000 C 
ENDBRANCH  14  17
ENDBRANCH  10  11
ENDBRANCH   9  10
ENDBRANCH   8   9
ENDBRANCH   7   8
ENDBRANCH   5   7
ENDBRANCH   2   5
BRANCH   1  19
ATOM     19  C   UNL     1       3.601   4.919  19.376  0.00  0.00    +0.000 C 
BRANCH  19  20
ATOM     20  C   UNL     1       5.134   4.818  19.231  0.00  0.00    +0.000 C 
ATOM     21  O   UNL     1       5.747   3.758  19.367  0.00  0.00    +0.000 OA
ATOM     22  N   UNL     1       5.758   6.001  18.916  0.00  0.00    +0.000 N 
ATOM     23  H   UNL     1       5.207   6.844  18.760  0.00  0.00    +0.000 HD
BRANCH  22  24
ATOM     24  C   UNL     1       7.195   6.104  18.671  0.00  0.00    +0.000 C 
BRANCH  24  25
ATOM     25  C   UNL     1       7.384   6.380  17.189  0.00  0.00    +0.000 C 
ATOM     26  O   UNL     1       7.468   7.520  16.747  0.00  0.00    +0.000 OA
BRANCH  25  27
ATOM     27  O   UNL     1       7.428   5.226  16.455  0.00  0.00    +0.000 OA
BRANCH  27  28
ATOM     28  C   UNL     1       6.379   4.987  15.470  0.00  0.00    +0.000 C 
ATOM     29  C   UNL     1       6.967   4.913  14.053  0.00  0.00    +0.000 C 
ATOM     30  C   UNL     1       5.727   3.633  15.811  0.00  0.00    +0.000 C 
ATOM     31  C   UNL     1       5.291   6.060  15.569  0.00  0.00    +0.000 C 
ENDBRANCH  27  28
ENDBRANCH  25  27
ENDBRANCH  24  25
ENDBRANCH  22  24
ENDBRANCH  19  20
BRANCH  19  32
ATOM     32  C   UNL     1       2.829   3.954  18.460  0.00  0.00    +0.000 C 
BRANCH  32  33
ATOM     33  C   UNL     1       1.810   3.039  19.151  0.00  0.00    +0.000 C 
BRANCH  33  35
ATOM     34  C   UNL     1       3.517   1.316  18.380  0.00  0.00    +0.000 C 
ATOM     35  C   UNL     1       2.077   1.569  18.791  0.00  0.00    +0.000 C 
ENDBRANCH  33  35
ENDBRANCH  32  33
ENDBRANCH  19  32
ENDBRANCH   1  19
TORSDOF 16
ENDMDL
MODEL 9
REMARK VINA RESULT:      -6.7      2.063     10.119
REMARK  Name = 
REMARK  21 active torsions:
REMARK  status: ('A' for Active; 'I' for Inactive)
REMARK    1  A    between atoms: C_1  and  C_2
REMARK    2  A    between atoms: C_2  and  C_3
REMARK    3  A    between atoms: C_3  and  C_4
REMARK    4  A    between atoms: C_4  and  C_5
REMARK    5  A    between atoms: C_5  and  N_6
REMARK    6  A    between atoms: C_5  and  C_23
REMARK    7  A    between atoms: C_7  and  C_9
REMARK    8  A    between atoms: C_9  and  C_11
REMARK    9  A    between atoms: C_11  and  C_12
REMARK   10  A    between atoms: C_12  and  C_13
REMARK   11  A    between atoms: C_13  and  C_14
REMARK   12  A    between atoms: C_14  and  C_15
REMARK   13  A    between atoms: C_18  and  O_19
REMARK   14  A    between atoms: O_19  and  C_20
REMARK   15  A    between atoms: N_25  and  C_26
REMARK   16  A    between atoms: C_26  and  C_27
REMARK   17  A    between atoms: C_27  and  O_29
REMARK   18  A    between atoms: O_29  and  C_30
REMARK   19  A    between atoms: C_30  and  C_31
REMARK   20  A    between atoms: C_30  and  C_32
REMARK   21  A    between atoms: C_30  and  C_33
REMARK                            x       y       z     vdW  Elec       q    Type
REMARK                         _______ _______ _______ _____ _____    ______ ____
ROOT
ATOM      1  N   UNL     1       1.481   7.051  21.063  0.00  0.00    +0.000 N 
ATOM      2  C   UNL     1       2.074   6.099  20.273  0.00  0.00    +0.000 C 
ATOM      3  O   UNL     1       2.788   6.315  19.303  0.00  0.00    +0.000 OA
ATOM      4  H   UNL     1       0.917   6.770  21.860  0.00  0.00    +0.000 HD
ENDROOT
BRANCH   2   5
ATOM      5  C   UNL     1       1.828   4.660  20.716  0.00  0.00    +0.000 C 
ATOM      6  O   UNL     1       2.432   4.224  21.693  0.00  0.00    +0.000 OA
BRANCH   5   7
ATOM      7  C   UNL     1       0.953   3.844  19.800  0.00  0.00    +0.000 C 
BRANCH   7   8
ATOM      8  C   UNL     1       1.724   2.753  19.058  0.00  0.00    +0.000 C 
BRANCH   8   9
ATOM      9  C   UNL     1       2.394   3.335  17.807  0.00  0.00    +0.000 C 
BRANCH   9  10
ATOM     10  C   UNL     1       3.801   2.777  17.581  0.00  0.00    +0.000 C 
BRANCH  10  11
ATOM     11  C   UNL     1       4.808   3.866  17.278  0.00  0.00    +0.000 A 
ATOM     12  C   UNL     1       5.570   4.434  18.305  0.00  0.00    +0.000 A 
ATOM     13  C   UNL     1       6.492   5.450  18.027  0.00  0.00    +0.000 A 
ATOM     14  C   UNL     1       6.681   5.900  16.721  0.00  0.00    +0.000 A 
ATOM     15  C   UNL     1       5.913   5.355  15.695  0.00  0.00    +0.000 A 
ATOM     16  C   UNL     1       4.984   4.345  15.971  0.00  0.00    +0.000 A 
BRANCH  14  17
ATOM     17  O   UNL     1       7.596   6.909  16.572  0.00  0.00    +0.000 OA
ATOM     18  C   UNL     1       7.698   7.809  17.667  0.00  0.00    +0.000 C 
ENDBRANCH  14  17
ENDBRANCH  10  11
ENDBRANCH   9  10
ENDBRANCH   8   9
ENDBRANCH   7   8
ENDBRANCH   5   7
ENDBRANCH   2   5
BRANCH   1  19
ATOM     19  C   UNL     1       1.574   8.482  20.756  0.00  0.00    +0.000 C 
BRANCH  19  20
ATOM     20  C   UNL     1       1.119   9.238  22.022  0.00  0.00    +0.000 C 
ATOM     21  O   UNL     1       1.894   9.540  22.931  0.00  0.00    +0.000 OA
ATOM     22  N   UNL     1      -0.214   9.567  22.043  0.00  0.00    +0.000 N 
ATOM     23  H   UNL     1      -0.810   9.345  21.246  0.00  0.00    +0.000 HD
BRANCH  22  24
ATOM     24  C   UNL     1      -0.828  10.340  23.121  0.00  0.00    +0.000 C 
BRANCH  24  25
ATOM     25  C   UNL     1      -0.772  11.804  22.719  0.00  0.00    +0.000 C 
ATOM     26  O   UNL     1      -0.184  12.178  21.710  0.00  0.00    +0.000 OA
BRANCH  25  27
ATOM     27  O   UNL     1      -1.428  12.606  23.612  0.00  0.00    +0.000 OA
BRANCH  27  28
ATOM     28  C   UNL     1      -2.763  13.085  23.270  0.00  0.00    +0.000 C 
ATOM     29  C   UNL     1      -2.826  14.619  23.335  0.00  0.00    +0.000 C 
ATOM     30  C   UNL     1      -3.058  12.634  21.827  0.00  0.00    +0.000 C 
ATOM     31  C   UNL     1      -3.815  12.443  24.179  0.00  0.00    +0.000 C 
ENDBRANCH  27  28
ENDBRANCH  25  27
ENDBRANCH  24  25
ENDBRANCH  22  24
ENDBRANCH  19  20
BRANCH  19  32
ATOM     32  C   UNL     1       0.745   8.821  19.504  0.00  0.00    +0.000 C 
BRANCH  32  33
ATOM     33  C   UNL     1       0.742  10.294  19.077  0.00  0.00    +0.000 C 
BRANCH  33  35
ATOM     34  C   UNL     1      -0.832  12.188  18.430  0.00  0.00    +0.000 C 
ATOM     35  C   UNL     1      -0.630  10.684  18.505  0.00  0.00    +0.000 C 
ENDBRANCH  33  35
ENDBRANCH  32  33
ENDBRANCH  19  32
ENDBRANCH   1  19
TORSDOF 16
ENDMDL
