MODEL 1
REMARK VINA RESULT:      -6.5      0.000      0.000
REMARK  Name = 
REMARK  5 active torsions:
REMARK  status: ('A' for Active; 'I' for Inactive)
REMARK    1  A    between atoms: C_2  and  C_3
REMARK    2  A    between atoms: C_6  and  C_7
REMARK    3  A    between atoms: C_9  and  N_10
REMARK    4  A    between atoms: N_10  and  C_11
REMARK    5  A    between atoms: C_18  and  C_19
REMARK                            x       y       z     vdW  Elec       q    Type
REMARK                         _______ _______ _______ _____ _____    ______ ____
ROOT
ATOM      1  C   UNL     1       2.624   6.261  19.673  0.00  0.00    +0.000 A 
ATOM      2  C   UNL     1       3.024   4.971  20.044  0.00  0.00    +0.000 A 
ATOM      3 CL   UNL     1       2.396   4.254  21.502  0.00  0.00    +0.000 Cl
ATOM      4  C   UNL     1       3.942   4.257  19.250  0.00  0.00    +0.000 A 
ATOM      5  C   UNL     1       4.474   4.815  18.056  0.00  0.00    +0.000 A 
ATOM      6  C   UNL     1       4.034   6.109  17.671  0.00  0.00    +0.000 A 
ATOM      7  C   UNL     1       3.126   6.824  18.487  0.00  0.00    +0.000 A 
ATOM      8 CL   UNL     1       2.643   8.440  18.042  0.00  0.00    +0.000 Cl
ENDROOT
BRANCH   1  10
ATOM      9  N   UNL     1       0.990   7.610  21.178  0.00  0.00    +0.000 NA
ATOM     10  C   UNL     1       1.718   7.005  20.503  0.00  0.00    +0.000 C 
ENDBRANCH   1  10
BRANCH   4  11
ATOM     11  C   UNL     1       4.354   2.938  19.653  0.00  0.00    +0.000 C 
ATOM     12  N   UNL     1       4.739   1.881  19.929  0.00  0.00    +0.000 NA
ENDBRANCH   4  11
BRANCH   5  13
ATOM     13  N   UNL     1       5.470   4.095  17.338  0.00  0.00    +0.000 N 
ATOM     14  H   UNL     1       5.569   3.111  17.604  0.00  0.00    +0.000 HD
BRANCH  13  15
ATOM     15  C   UNL     1       5.937   4.217  16.009  0.00  0.00    +0.000 A 
ATOM     16  C   UNL     1       7.203   4.793  15.807  0.00  0.00    +0.000 A 
ATOM     17  C   UNL     1       7.755   4.893  14.527  0.00  0.00    +0.000 A 
ATOM     18  C   UNL     1       7.042   4.412  13.434  0.00  0.00    +0.000 A 
ATOM     19  C   UNL     1       5.791   3.842  13.631  0.00  0.00    +0.000 A 
ATOM     20  F   UNL     1       5.112   3.366  12.580  0.00  0.00    +0.000 F 
ATOM     21  C   UNL     1       5.234   3.735  14.904  0.00  0.00    +0.000 A 
ENDBRANCH  13  15
ENDBRANCH   5  13
BRANCH   6  22
ATOM     22  C   UNL     1       4.525   6.747  16.477  0.00  0.00    +0.000 C 
ATOM     23  N   UNL     1       4.867   7.282  15.506  0.00  0.00    +0.000 NA
ENDBRANCH   6  22
TORSDOF 5
ENDMDL
MODEL 2
REMARK VINA RESULT:      -6.4      0.904      1.359
REMARK  Name = 
REMARK  5 active torsions:
REMARK  status: ('A' for Active; 'I' for Inactive)
REMARK    1  A    between atoms: C_2  and  C_3
REMARK    2  A    between atoms: C_6  and  C_7
REMARK    3  A    between atoms: C_9  and  N_10
REMARK    4  A    between atoms: N_10  and  C_11
REMARK    5  A    between atoms: C_18  and  C_19
REMARK                            x       y       z     vdW  Elec       q    Type
REMARK                         _______ _______ _______ _____ _____    ______ ____
ROOT
ATOM      1  C   UNL     1       2.675   6.215  19.668  0.00  0.00    +0.000 A 
ATOM      2  C   UNL     1       3.102   4.932  20.035  0.00  0.00    +0.000 A 
ATOM      3 CL   UNL     1       2.463   4.183  21.472  0.00  0.00    +0.000 Cl
ATOM      4  C   UNL     1       4.055   4.251  19.253  0.00  0.00    +0.000 A 
ATOM      5  C   UNL     1       4.597   4.836  18.076  0.00  0.00    +0.000 A 
ATOM      6  C   UNL     1       4.130   6.121  17.695  0.00  0.00    +0.000 A 
ATOM      7  C   UNL     1       3.187   6.803  18.498  0.00  0.00    +0.000 A 
ATOM      8 CL   UNL     1       2.669   8.410  18.059  0.00  0.00    +0.000 Cl
ENDROOT
BRANCH   1  10
ATOM      9  N   UNL     1       0.972   7.507  21.145  0.00  0.00    +0.000 NA
ATOM     10  C   UNL     1       1.732   6.926  20.486  0.00  0.00    +0.000 C 
ENDBRANCH   1  10
BRANCH   4  11
ATOM     11  C   UNL     1       4.494   2.940  19.652  0.00  0.00    +0.000 C 
ATOM     12  N   UNL     1       4.816   1.858  19.913  0.00  0.00    +0.000 NA
ENDBRANCH   4  11
BRANCH   5  13
ATOM     13  N   UNL     1       5.627   4.150  17.372  0.00  0.00    +0.000 N 
ATOM     14  H   UNL     1       5.868   3.228  17.748  0.00  0.00    +0.000 HD
BRANCH  13  15
ATOM     15  C   UNL     1       5.985   4.151  16.005  0.00  0.00    +0.000 A 
ATOM     16  C   UNL     1       5.105   3.540  15.094  0.00  0.00    +0.000 A 
ATOM     17  C   UNL     1       5.364   3.554  13.721  0.00  0.00    +0.000 A 
ATOM     18  C   UNL     1       6.509   4.183  13.245  0.00  0.00    +0.000 A 
ATOM     19  C   UNL     1       7.380   4.787  14.143  0.00  0.00    +0.000 A 
ATOM     20  F   UNL     1       8.475   5.407  13.683  0.00  0.00    +0.000 F 
ATOM     21  C   UNL     1       7.128   4.782  15.514  0.00  0.00    +0.000 A 
ENDBRANCH  13  15
ENDBRANCH   5  13
BRANCH   6  22
ATOM     22  C   UNL     1       4.629   6.784  16.518  0.00  0.00    +0.000 C 
ATOM     23  N   UNL     1       4.989   7.292  15.539  0.00  0.00    +0.000 NA
ENDBRANCH   6  22
TORSDOF 5
ENDMDL
MODEL 3
REMARK VINA RESULT:      -6.3      8.783     11.397
REMARK  Name = 
REMARK  5 active torsions:
REMARK  status: ('A' for Active; 'I' for Inactive)
REMARK    1  A    between atoms: C_2  and  C_3
REMARK    2  A    between atoms: C_6  and  C_7
REMARK    3  A    between atoms: C_9  and  N_10
REMARK    4  A    between atoms: N_10  and  C_11
REMARK    5  A    between atoms: C_18  and  C_19
REMARK                            x       y       z     vdW  Elec       q    Type
REMARK                         _______ _______ _______ _____ _____    ______ ____
ROOT
ATOM      1  C   UNL     1      -5.945  12.835  22.513  0.00  0.00    +0.000 A 
ATOM      2  C   UNL     1      -4.605  12.820  22.922  0.00  0.00    +0.000 A 
ATOM      3 CL   UNL     1      -4.217  12.857  24.620  0.00  0.00    +0.000 Cl
ATOM      4  C   UNL     1      -3.572  12.790  21.966  0.00  0.00    +0.000 A 
ATOM      5  C   UNL     1      -3.856  12.762  20.574  0.00  0.00    +0.000 A 
ATOM      6  C   UNL     1      -5.217  12.740  20.172  0.00  0.00    +0.000 A 
ATOM      7  C   UNL     1      -6.247  12.791  21.141  0.00  0.00    +0.000 A 
ATOM      8 CL   UNL     1      -7.916  12.833  20.636  0.00  0.00    +0.000 Cl
ENDROOT
BRANCH   1  10
ATOM      9  N   UNL     1      -7.852  12.970  24.274  0.00  0.00    +0.000 NA
ATOM     10  C   UNL     1      -6.999  12.905  23.487  0.00  0.00    +0.000 C 
ENDBRANCH   1  10
BRANCH   4  11
ATOM     11  C   UNL     1      -2.201  12.790  22.404  0.00  0.00    +0.000 C 
ATOM     12  N   UNL     1      -1.121  12.803  22.824  0.00  0.00    +0.000 NA
ENDBRANCH   4  11
BRANCH   5  13
ATOM     13  N   UNL     1      -2.779  12.827  19.645  0.00  0.00    +0.000 N 
ATOM     14  H   UNL     1      -2.126  13.601  19.793  0.00  0.00    +0.000 HD
BRANCH  13  15
ATOM     15  C   UNL     1      -2.076  11.813  18.956  0.00  0.00    +0.000 A 
ATOM     16  C   UNL     1      -0.848  11.385  19.491  0.00  0.00    +0.000 A 
ATOM     17  C   UNL     1      -0.125  10.347  18.898  0.00  0.00    +0.000 A 
ATOM     18  C   UNL     1      -0.628   9.723  17.761  0.00  0.00    +0.000 A 
ATOM     19  C   UNL     1      -1.841  10.144  17.232  0.00  0.00    +0.000 A 
ATOM     20  F   UNL     1      -2.332   9.532  16.146  0.00  0.00    +0.000 F 
ATOM     21  C   UNL     1      -2.571  11.176  17.818  0.00  0.00    +0.000 A 
ENDBRANCH  13  15
ENDBRANCH   5  13
BRANCH   6  22
ATOM     22  C   UNL     1      -5.591  12.713  18.781  0.00  0.00    +0.000 C 
ATOM     23  N   UNL     1      -5.858  12.646  17.654  0.00  0.00    +0.000 NA
ENDBRANCH   6  22
TORSDOF 5
ENDMDL
MODEL 4
REMARK VINA RESULT:      -6.3      5.975      8.673
REMARK  Name = 
REMARK  5 active torsions:
REMARK  status: ('A' for Active; 'I' for Inactive)
REMARK    1  A    between atoms: C_2  and  C_3
REMARK    2  A    between atoms: C_6  and  C_7
REMARK    3  A    between atoms: C_9  and  N_10
REMARK    4  A    between atoms: N_10  and  C_11
REMARK    5  A    between atoms: C_18  and  C_19
REMARK                            x       y       z     vdW  Elec       q    Type
REMARK                         _______ _______ _______ _____ _____    ______ ____
ROOT
ATOM      1  C   UNL     1      -3.056  12.671  20.155  0.00  0.00    +0.000 A 
ATOM      2  C   UNL     1      -3.158  11.853  19.022  0.00  0.00    +0.000 A 
ATOM      3 CL   UNL     1      -4.725  11.484  18.357  0.00  0.00    +0.000 Cl
ATOM      4  C   UNL     1      -1.999  11.319  18.427  0.00  0.00    +0.000 A 
ATOM      5  C   UNL     1      -0.706  11.600  18.947  0.00  0.00    +0.000 A 
ATOM      6  C   UNL     1      -0.613  12.459  20.073  0.00  0.00    +0.000 A 
ATOM      7  C   UNL     1      -1.785  12.974  20.674  0.00  0.00    +0.000 A 
ATOM      8 CL   UNL     1      -1.666  13.973  22.099  0.00  0.00    +0.000 Cl
ENDROOT
BRANCH   1  10
ATOM      9  N   UNL     1      -5.201  13.600  21.291  0.00  0.00    +0.000 NA
ATOM     10  C   UNL     1      -4.240  13.184  20.787  0.00  0.00    +0.000 C 
ENDBRANCH   1  10
BRANCH   4  11
ATOM     11  C   UNL     1      -2.122  10.470  17.272  0.00  0.00    +0.000 C 
ATOM     12  N   UNL     1      -2.148   9.785  16.337  0.00  0.00    +0.000 NA
ENDBRANCH   4  11
BRANCH   5  13
ATOM     13  N   UNL     1       0.427  10.962  18.369  0.00  0.00    +0.000 N 
ATOM     14  H   UNL     1       1.111  11.595  17.943  0.00  0.00    +0.000 HD
BRANCH  13  15
ATOM     15  C   UNL     1       1.117   9.780  18.723  0.00  0.00    +0.000 A 
ATOM     16  C   UNL     1       0.908   9.258  20.012  0.00  0.00    +0.000 A 
ATOM     17  C   UNL     1       1.509   8.063  20.413  0.00  0.00    +0.000 A 
ATOM     18  C   UNL     1       2.326   7.374  19.523  0.00  0.00    +0.000 A 
ATOM     19  C   UNL     1       2.533   7.887  18.249  0.00  0.00    +0.000 A 
ATOM     20  F   UNL     1       3.308   7.215  17.387  0.00  0.00    +0.000 F 
ATOM     21  C   UNL     1       1.935   9.077  17.839  0.00  0.00    +0.000 A 
ENDBRANCH  13  15
ENDBRANCH   5  13
BRANCH   6  22
ATOM     22  C   UNL     1       0.658  12.793  20.662  0.00  0.00    +0.000 C 
ATOM     23  N   UNL     1       1.660  13.113  21.152  0.00  0.00    +0.000 NA
ENDBRANCH   6  22
TORSDOF 5
ENDMDL
MODEL 5
REMARK VINA RESULT:      -6.3      6.524      9.169
REMARK  Name = 
REMARK  5 active torsions:
REMARK  status: ('A' for Active; 'I' for Inactive)
REMARK    1  A    between atoms: C_2  and  C_3
REMARK    2  A    between atoms: C_6  and  C_7
REMARK    3  A    between atoms: C_9  and  N_10
REMARK    4  A    between atoms: N_10  and  C_11
REMARK    5  A    between atoms: C_18  and  C_19
REMARK                            x       y       z     vdW  Elec       q    Type
REMARK                         _______ _______ _______ _____ _____    ______ ____
ROOT
ATOM      1  C   UNL     1      -3.855  12.639  19.982  0.00  0.00    +0.000 A 
ATOM      2  C   UNL     1      -2.712  12.927  20.741  0.00  0.00    +0.000 A 
ATOM      3 CL   UNL     1      -2.847  13.912  22.171  0.00  0.00    +0.000 Cl
ATOM      4  C   UNL     1      -1.455  12.434  20.344  0.00  0.00    +0.000 A 
ATOM      5  C   UNL     1      -1.312  11.629  19.180  0.00  0.00    +0.000 A 
ATOM      6  C   UNL     1      -2.482  11.315  18.440  0.00  0.00    +0.000 A 
ATOM      7  C   UNL     1      -3.736  11.832  18.838  0.00  0.00    +0.000 A 
ATOM      8 CL   UNL     1      -5.158  11.496  17.884  0.00  0.00    +0.000 Cl
ENDROOT
BRANCH   1  10
ATOM      9  N   UNL     1      -6.168  13.602  20.672  0.00  0.00    +0.000 NA
ATOM     10  C   UNL     1      -5.132  13.174  20.365  0.00  0.00    +0.000 C 
ENDBRANCH   1  10
BRANCH   4  11
ATOM     11  C   UNL     1      -0.289  12.751  21.126  0.00  0.00    +0.000 C 
ATOM     12  N   UNL     1       0.688  12.962  21.712  0.00  0.00    +0.000 NA
ENDBRANCH   4  11
BRANCH   5  13
ATOM     13  N   UNL     1      -0.008  11.234  18.767  0.00  0.00    +0.000 N 
ATOM     14  H   UNL     1       0.684  11.987  18.740  0.00  0.00    +0.000 HD
BRANCH  13  15
ATOM     15  C   UNL     1       0.698  10.021  18.937  0.00  0.00    +0.000 A 
ATOM     16  C   UNL     1       1.449   9.540  17.849  0.00  0.00    +0.000 A 
ATOM     17  C   UNL     1       2.219   8.380  17.961  0.00  0.00    +0.000 A 
ATOM     18  C   UNL     1       2.249   7.690  19.169  0.00  0.00    +0.000 A 
ATOM     19  C   UNL     1       1.509   8.164  20.244  0.00  0.00    +0.000 A 
ATOM     20  F   UNL     1       1.550   7.508  21.411  0.00  0.00    +0.000 F 
ATOM     21  C   UNL     1       0.740   9.322  20.143  0.00  0.00    +0.000 A 
ENDBRANCH  13  15
ENDBRANCH   5  13
BRANCH   6  22
ATOM     22  C   UNL     1      -2.424  10.507  17.249  0.00  0.00    +0.000 C 
ATOM     23  N   UNL     1      -2.319   9.861  16.292  0.00  0.00    +0.000 NA
ENDBRANCH   6  22
TORSDOF 5
ENDMDL
MODEL 6
REMARK VINA RESULT:      -6.2      6.532      9.231
REMARK  Name = 
REMARK  5 active torsions:
REMARK  status: ('A' for Active; 'I' for Inactive)
REMARK    1  A    between atoms: C_2  and  C_3
REMARK    2  A    between atoms: C_6  and  C_7
REMARK    3  A    between atoms: C_9  and  N_10
REMARK    4  A    between atoms: N_10  and  C_11
REMARK    5  A    between atoms: C_18  and  C_19
REMARK                            x       y       z     vdW  Elec       q    Type
REMARK                         _______ _______ _______ _____ _____    ______ ____
ROOT
ATOM      1  C   UNL     1      -4.247  12.424  19.803  0.00  0.00    +0.000 A 
ATOM      2  C   UNL     1      -3.218  12.776  20.685  0.00  0.00    +0.000 A 
ATOM      3 CL   UNL     1      -3.581  13.696  22.120  0.00  0.00    +0.000 Cl
ATOM      4  C   UNL     1      -1.889  12.400  20.411  0.00  0.00    +0.000 A 
ATOM      5  C   UNL     1      -1.560  11.652  19.248  0.00  0.00    +0.000 A 
ATOM      6  C   UNL     1      -2.616  11.270  18.380  0.00  0.00    +0.000 A 
ATOM      7  C   UNL     1      -3.944  11.670  18.656  0.00  0.00    +0.000 A 
ATOM      8 CL   UNL     1      -5.227  11.255  17.549  0.00  0.00    +0.000 Cl
ENDROOT
BRANCH   1  10
ATOM      9  N   UNL     1      -6.689  13.175  20.279  0.00  0.00    +0.000 NA
ATOM     10  C   UNL     1      -5.598  12.841  20.062  0.00  0.00    +0.000 C 
ENDBRANCH   1  10
BRANCH   4  11
ATOM     11  C   UNL     1      -0.841  12.782  21.320  0.00  0.00    +0.000 C 
ATOM     12  N   UNL     1       0.049  13.084  21.997  0.00  0.00    +0.000 NA
ENDBRANCH   4  11
BRANCH   5  13
ATOM     13  N   UNL     1      -0.192  11.377  18.965  0.00  0.00    +0.000 N 
ATOM     14  H   UNL     1       0.437  12.181  19.047  0.00  0.00    +0.000 HD
BRANCH  13  15
ATOM     15  C   UNL     1       0.588  10.215  19.158  0.00  0.00    +0.000 A 
ATOM     16  C   UNL     1       0.544   9.596  20.420  0.00  0.00    +0.000 A 
ATOM     17  C   UNL     1       1.241   8.411  20.668  0.00  0.00    +0.000 A 
ATOM     18  C   UNL     1       1.991   7.831  19.650  0.00  0.00    +0.000 A 
ATOM     19  C   UNL     1       2.036   8.440  18.403  0.00  0.00    +0.000 A 
ATOM     20  F   UNL     1       2.746   7.873  17.418  0.00  0.00    +0.000 F 
ATOM     21  C   UNL     1       1.341   9.620  18.145  0.00  0.00    +0.000 A 
ENDBRANCH  13  15
ENDBRANCH   5  13
BRANCH   6  22
ATOM     22  C   UNL     1      -2.368  10.513  17.180  0.00  0.00    +0.000 C 
ATOM     23  N   UNL     1      -2.147   9.860  16.247  0.00  0.00    +0.000 NA
ENDBRANCH   6  22
TORSDOF 5
ENDMDL
MODEL 7
REMARK VINA RESULT:      -6.2      6.249      8.886
REMARK  Name = 
REMARK  5 active torsions:
REMARK  status: ('A' for Active; 'I' for Inactive)
REMARK    1  A    between atoms: C_2  and  C_3
REMARK    2  A    between atoms: C_6  and  C_7
REMARK    3  A    between atoms: C_9  and  N_10
REMARK    4  A    between atoms: N_10  and  C_11
REMARK    5  A    between atoms: C_18  and  C_19
REMARK                            x       y       z     vdW  Elec       q    Type
REMARK                         _______ _______ _______ _____ _____    ______ ____
ROOT
ATOM      1  C   UNL     1      -2.589  13.129  20.732  0.00  0.00    +0.000 A 
ATOM      2  C   UNL     1      -2.866  12.297  19.639  0.00  0.00    +0.000 A 
ATOM      3 CL   UNL     1      -4.518  11.997  19.174  0.00  0.00    +0.000 Cl
ATOM      4  C   UNL     1      -1.815  11.692  18.925  0.00  0.00    +0.000 A 
ATOM      5  C   UNL     1      -0.457  11.914  19.281  0.00  0.00    +0.000 A 
ATOM      6  C   UNL     1      -0.188  12.788  20.367  0.00  0.00    +0.000 A 
ATOM      7  C   UNL     1      -1.253  13.375  21.089  0.00  0.00    +0.000 A 
ATOM      8 CL   UNL     1      -0.915  14.393  22.465  0.00  0.00    +0.000 Cl
ENDROOT
BRANCH   1  10
ATOM      9  N   UNL     1      -4.531  14.196  22.091  0.00  0.00    +0.000 NA
ATOM     10  C   UNL     1      -3.663  13.716  21.485  0.00  0.00    +0.000 C 
ENDBRANCH   1  10
BRANCH   4  11
ATOM     11  C   UNL     1      -2.117  10.828  17.814  0.00  0.00    +0.000 C 
ATOM     12  N   UNL     1      -2.317  10.082  16.950  0.00  0.00    +0.000 NA
ENDBRANCH   4  11
BRANCH   5  13
ATOM     13  N   UNL     1       0.566  11.206  18.590  0.00  0.00    +0.000 N 
ATOM     14  H   UNL     1       1.303  11.793  18.188  0.00  0.00    +0.000 HD
BRANCH  13  15
ATOM     15  C   UNL     1       1.122   9.924  18.800  0.00  0.00    +0.000 A 
ATOM     16  C   UNL     1       1.918   9.377  17.778  0.00  0.00    +0.000 A 
ATOM     17  C   UNL     1       2.548   8.140  17.938  0.00  0.00    +0.000 A 
ATOM     18  C   UNL     1       2.389   7.438  19.129  0.00  0.00    +0.000 A 
ATOM     19  C   UNL     1       1.603   7.977  20.139  0.00  0.00    +0.000 A 
ATOM     20  F   UNL     1       1.462   7.308  21.291  0.00  0.00    +0.000 F 
ATOM     21  C   UNL     1       0.974   9.211  19.990  0.00  0.00    +0.000 A 
ENDBRANCH  13  15
ENDBRANCH   5  13
BRANCH   6  22
ATOM     22  C   UNL     1       1.159  13.066  20.793  0.00  0.00    +0.000 C 
ATOM     23  N   UNL     1       2.226  13.287  21.192  0.00  0.00    +0.000 NA
ENDBRANCH   6  22
TORSDOF 5
ENDMDL
MODEL 8
REMARK VINA RESULT:      -6.2      8.708     11.525
REMARK  Name = 
REMARK  5 active torsions:
REMARK  status: ('A' for Active; 'I' for Inactive)
REMARK    1  A    between atoms: C_2  and  C_3
REMARK    2  A    between atoms: C_6  and  C_7
REMARK    3  A    between atoms: C_9  and  N_10
REMARK    4  A    between atoms: N_10  and  C_11
REMARK    5  A    between atoms: C_18  and  C_19
REMARK                            x       y       z     vdW  Elec       q    Type
REMARK                         _______ _______ _______ _____ _____    ______ ____
ROOT
ATOM      1  C   UNL     1      -5.877  12.725  22.399  0.00  0.00    +0.000 A 
ATOM      2  C   UNL     1      -6.153  12.631  21.028  0.00  0.00    +0.000 A 
ATOM      3 CL   UNL     1      -7.798  12.433  20.486  0.00  0.00    +0.000 Cl
ATOM      4  C   UNL     1      -5.106  12.683  20.089  0.00  0.00    +0.000 A 
ATOM      5  C   UNL     1      -3.754  12.840  20.499  0.00  0.00    +0.000 A 
ATOM      6  C   UNL     1      -3.491  12.971  21.888  0.00  0.00    +0.000 A 
ATOM      7  C   UNL     1      -4.549  12.898  22.823  0.00  0.00    +0.000 A 
ATOM      8 CL   UNL     1      -4.208  12.990  24.532  0.00  0.00    +0.000 Cl
ENDROOT
BRANCH   1  10
ATOM      9  N   UNL     1      -7.806  12.558  24.132  0.00  0.00    +0.000 NA
ATOM     10  C   UNL     1      -6.941  12.632  23.360  0.00  0.00    +0.000 C 
ENDBRANCH   1  10
BRANCH   4  11
ATOM     11  C   UNL     1      -5.406  12.570  18.686  0.00  0.00    +0.000 C 
ATOM     12  N   UNL     1      -5.708  12.443  17.574  0.00  0.00    +0.000 NA
ENDBRANCH   4  11
BRANCH   5  13
ATOM     13  N   UNL     1      -2.722  12.792  19.520  0.00  0.00    +0.000 N 
ATOM     14  H   UNL     1      -2.163  13.645  19.438  0.00  0.00    +0.000 HD
BRANCH  13  15
ATOM     15  C   UNL     1      -1.923  11.722  19.055  0.00  0.00    +0.000 A 
ATOM     16  C   UNL     1      -2.314  11.077  17.868  0.00  0.00    +0.000 A 
ATOM     17  C   UNL     1      -1.542  10.052  17.317  0.00  0.00    +0.000 A 
ATOM     18  C   UNL     1      -0.366   9.662  17.950  0.00  0.00    +0.000 A 
ATOM     19  C   UNL     1       0.022  10.298  19.122  0.00  0.00    +0.000 A 
ATOM     20  F   UNL     1       1.162   9.934  19.722  0.00  0.00    +0.000 F 
ATOM     21  C   UNL     1      -0.740  11.325  19.677  0.00  0.00    +0.000 A 
ENDBRANCH  13  15
ENDBRANCH   5  13
BRANCH   6  22
ATOM     22  C   UNL     1      -2.149  13.132  22.387  0.00  0.00    +0.000 C 
ATOM     23  N   UNL     1      -1.049  13.246  22.737  0.00  0.00    +0.000 NA
ENDBRANCH   6  22
TORSDOF 5
ENDMDL
MODEL 9
REMARK VINA RESULT:      -6.2      5.947      8.639
REMARK  Name = 
REMARK  5 active torsions:
REMARK  status: ('A' for Active; 'I' for Inactive)
REMARK    1  A    between atoms: C_2  and  C_3
REMARK    2  A    between atoms: C_6  and  C_7
REMARK    3  A    between atoms: C_9  and  N_10
REMARK    4  A    between atoms: N_10  and  C_11
REMARK    5  A    between atoms: C_18  and  C_19
REMARK                            x       y       z     vdW  Elec       q    Type
REMARK                         _______ _______ _______ _____ _____    ______ ____
ROOT
ATOM      1  C   UNL     1      -2.787  13.001  20.291  0.00  0.00    +0.000 A 
ATOM      2  C   UNL     1      -1.502  13.220  20.804  0.00  0.00    +0.000 A 
ATOM      3 CL   UNL     1      -1.274  14.332  22.126  0.00  0.00    +0.000 Cl
ATOM      4  C   UNL     1      -0.393  12.554  20.248  0.00  0.00    +0.000 A 
ATOM      5  C   UNL     1      -0.546  11.643  19.168  0.00  0.00    +0.000 A 
ATOM      6  C   UNL     1      -1.857  11.402  18.680  0.00  0.00    +0.000 A 
ATOM      7  C   UNL     1      -2.961  12.091  19.234  0.00  0.00    +0.000 A 
ATOM      8 CL   UNL     1      -4.560  11.841  18.583  0.00  0.00    +0.000 Cl
ENDROOT
BRANCH   1  10
ATOM      9  N   UNL     1      -4.821  14.288  21.272  0.00  0.00    +0.000 NA
ATOM     10  C   UNL     1      -3.914  13.710  20.832  0.00  0.00    +0.000 C 
ENDBRANCH   1  10
BRANCH   4  11
ATOM     11  C   UNL     1       0.922  12.801  20.778  0.00  0.00    +0.000 C 
ATOM     12  N   UNL     1       2.008  12.978  21.140  0.00  0.00    +0.000 NA
ENDBRANCH   4  11
BRANCH   5  13
ATOM     13  N   UNL     1       0.614  11.067  18.577  0.00  0.00    +0.000 N 
ATOM     14  H   UNL     1       1.330  11.738  18.286  0.00  0.00    +0.000 HD
BRANCH  13  15
ATOM     15  C   UNL     1       1.266   9.834  18.806  0.00  0.00    +0.000 A 
ATOM     16  C   UNL     1       1.047   9.193  20.038  0.00  0.00    +0.000 A 
ATOM     17  C   UNL     1       1.610   7.944  20.313  0.00  0.00    +0.000 A 
ATOM     18  C   UNL     1       2.398   7.321  19.351  0.00  0.00    +0.000 A 
ATOM     19  C   UNL     1       2.615   7.952  18.132  0.00  0.00    +0.000 A 
ATOM     20  F   UNL     1       3.361   7.344  17.201  0.00  0.00    +0.000 F 
ATOM     21  C   UNL     1       2.055   9.196  17.848  0.00  0.00    +0.000 A 
ENDBRANCH  13  15
ENDBRANCH   5  13
BRANCH   6  22
ATOM     22  C   UNL     1      -2.099  10.495  17.587  0.00  0.00    +0.000 C 
ATOM     23  N   UNL     1      -2.336   9.741  16.738  0.00  0.00    +0.000 NA
ENDBRANCH   6  22
TORSDOF 5
ENDMDL
