MODEL 1
REMARK VINA RESULT:      -8.0      0.000      0.000
REMARK  Name = 
REMARK  9 active torsions:
REMARK  status: ('A' for Active; 'I' for Inactive)
REMARK    1  A    between atoms: C_1  and  O_2
REMARK    2  A    between atoms: O_2  and  C_3
REMARK    3  A    between atoms: C_5  and  C_6
REMARK    4  A    between atoms: C_12  and  C_13
REMARK    5  A    between atoms: C_13  and  C_15
REMARK    6  A    between atoms: C_18  and  N_19
REMARK    7  A    between atoms: N_19  and  C_20
REMARK    8  A    between atoms: N_23  and  C_24
REMARK    9  A    between atoms: C_31  and  O_32
REMARK                            x       y       z     vdW  Elec       q    Type
REMARK                         _______ _______ _______ _____ _____    ______ ____
ROOT
ATOM      1  C   UNL     1       1.072   8.752  20.698  0.00  0.00    +0.000 A 
ATOM      2  C   UNL     1       1.205   8.664  22.080  0.00  0.00    +0.000 A 
ATOM      3  C   UNL     1       0.475   9.511  22.925  0.00  0.00    +0.000 A 
ATOM      4  C   UNL     1      -0.424  10.454  22.443  0.00  0.00    +0.000 A 
ATOM      5  N   UNL     1      -1.019  11.245  23.345  0.00  0.00    +0.000 NA
ATOM      6  C   UNL     1      -1.869  12.194  22.899  0.00  0.00    +0.000 A 
ATOM      7  C   UNL     1      -2.209  12.375  21.568  0.00  0.00    +0.000 A 
ATOM      8  C   UNL     1      -1.583  11.544  20.591  0.00  0.00    +0.000 A 
ATOM      9  C   UNL     1      -0.643  10.562  21.051  0.00  0.00    +0.000 A 
ATOM     10  C   UNL     1       0.156   9.717  20.223  0.00  0.00    +0.000 A 
ENDROOT
BRANCH   1  13
ATOM     11  C   UNL     1       3.091   5.848  19.215  0.00  0.00    +0.000 A 
ATOM     12  C   UNL     1       2.300   6.618  20.088  0.00  0.00    +0.000 A 
ATOM     13  C   UNL     1       1.872   7.921  19.762  0.00  0.00    +0.000 A 
ATOM     14  C   UNL     1       2.247   8.411  18.500  0.00  0.00    +0.000 A 
ATOM     15  C   UNL     1       2.999   7.645  17.604  0.00  0.00    +0.000 A 
ATOM     16  C   UNL     1       3.425   6.368  17.962  0.00  0.00    +0.000 A 
BRANCH  11  18
ATOM     17  C   UNL     1       2.489   3.564  19.457  0.00  0.00    +0.000 C 
ATOM     18  O   UNL     1       3.422   4.611  19.704  0.00  0.00    +0.000 OA
ENDBRANCH  11  18
BRANCH  16  19
ATOM     19  O   UNL     1       4.150   5.645  17.058  0.00  0.00    +0.000 OA
ATOM     20  H   UNL     1       5.071   5.589  17.360  0.00  0.00    +0.000 HD
ENDBRANCH  16  19
ENDBRANCH   1  13
BRANCH   7  21
ATOM     21  C   UNL     1      -3.187  13.442  21.208  0.00  0.00    +0.000 C 
ATOM     22  O   UNL     1      -2.822  14.415  20.549  0.00  0.00    +0.000 OA
BRANCH  21  23
ATOM     23  C   UNL     1      -4.629  13.314  21.604  0.00  0.00    +0.000 C 
ATOM     24  C   UNL     1      -5.741  13.790  20.695  0.00  0.00    +0.000 C 
ATOM     25  C   UNL     1      -5.504  12.320  20.868  0.00  0.00    +0.000 C 
ENDBRANCH  21  23
ENDBRANCH   7  21
BRANCH   8  26
ATOM     26  N   UNL     1      -1.924  11.746  19.258  0.00  0.00    +0.000 N 
ATOM     27  H   UNL     1      -1.800  12.717  18.946  0.00  0.00    +0.000 HD
BRANCH  26  28
ATOM     28  C   UNL     1      -2.693  10.935  18.319  0.00  0.00    +0.000 C 
ATOM     29  C   UNL     1      -1.692  10.351  17.316  0.00  0.00    +0.000 C 
ATOM     30  C   UNL     1      -2.345   9.789  16.061  0.00  0.00    +0.000 C 
ATOM     31  N   UNL     1      -3.281  10.741  15.455  0.00  0.00    +0.000 NA
ATOM     32  C   UNL     1      -3.855  10.164  14.237  0.00  0.00    +0.000 C 
ATOM     33  C   UNL     1      -4.338  11.118  16.397  0.00  0.00    +0.000 C 
ATOM     34  C   UNL     1      -3.767  11.793  17.645  0.00  0.00    +0.000 C 
ENDBRANCH  26  28
ENDBRANCH   8  26
TORSDOF 7
ENDMDL
MODEL 2
REMARK VINA RESULT:      -7.6      0.800      1.093
REMARK  Name = 
REMARK  9 active torsions:
REMARK  status: ('A' for Active; 'I' for Inactive)
REMARK    1  A    between atoms: C_1  and  O_2
REMARK    2  A    between atoms: O_2  and  C_3
REMARK    3  A    between atoms: C_5  and  C_6
REMARK    4  A    between atoms: C_12  and  C_13
REMARK    5  A    between atoms: C_13  and  C_15
REMARK    6  A    between atoms: C_18  and  N_19
REMARK    7  A    between atoms: N_19  and  C_20
REMARK    8  A    between atoms: N_23  and  C_24
REMARK    9  A    between atoms: C_31  and  O_32
REMARK                            x       y       z     vdW  Elec       q    Type
REMARK                         _______ _______ _______ _____ _____    ______ ____
ROOT
ATOM      1  C   UNL     1       1.052   8.796  20.701  0.00  0.00    +0.000 A 
ATOM      2  C   UNL     1       1.176   8.738  22.086  0.00  0.00    +0.000 A 
ATOM      3  C   UNL     1       0.443   9.607  22.907  0.00  0.00    +0.000 A 
ATOM      4  C   UNL     1      -0.449  10.542  22.398  0.00  0.00    +0.000 A 
ATOM      5  N   UNL     1      -1.047  11.355  23.277  0.00  0.00    +0.000 NA
ATOM      6  C   UNL     1      -1.890  12.298  22.805  0.00  0.00    +0.000 A 
ATOM      7  C   UNL     1      -2.220  12.450  21.468  0.00  0.00    +0.000 A 
ATOM      8  C   UNL     1      -1.591  11.595  20.514  0.00  0.00    +0.000 A 
ATOM      9  C   UNL     1      -0.657  10.619  21.002  0.00  0.00    +0.000 A 
ATOM     10  C   UNL     1       0.143   9.753  20.199  0.00  0.00    +0.000 A 
ENDROOT
BRANCH   1  13
ATOM     11  C   UNL     1       3.080   5.857  19.302  0.00  0.00    +0.000 A 
ATOM     12  C   UNL     1       2.286   6.649  20.153  0.00  0.00    +0.000 A 
ATOM     13  C   UNL     1       1.855   7.941  19.790  0.00  0.00    +0.000 A 
ATOM     14  C   UNL     1       2.231   8.397  18.515  0.00  0.00    +0.000 A 
ATOM     15  C   UNL     1       2.986   7.608  17.641  0.00  0.00    +0.000 A 
ATOM     16  C   UNL     1       3.414   6.342  18.036  0.00  0.00    +0.000 A 
BRANCH  11  18
ATOM     17  C   UNL     1       2.507   3.567  19.564  0.00  0.00    +0.000 C 
ATOM     18  O   UNL     1       3.414   4.634  19.826  0.00  0.00    +0.000 OA
ENDBRANCH  11  18
BRANCH  16  19
ATOM     19  O   UNL     1       4.142   5.596  17.153  0.00  0.00    +0.000 OA
ATOM     20  H   UNL     1       3.658   4.780  16.950  0.00  0.00    +0.000 HD
ENDBRANCH  16  19
ENDBRANCH   1  13
BRANCH   7  21
ATOM     21  C   UNL     1      -3.192  13.511  21.077  0.00  0.00    +0.000 C 
ATOM     22  O   UNL     1      -4.329  13.204  20.720  0.00  0.00    +0.000 OA
BRANCH  21  23
ATOM     23  C   UNL     1      -2.809  14.959  21.163  0.00  0.00    +0.000 C 
ATOM     24  C   UNL     1      -3.840  16.058  21.019  0.00  0.00    +0.000 C 
ATOM     25  C   UNL     1      -3.255  15.764  22.367  0.00  0.00    +0.000 C 
ENDBRANCH  21  23
ENDBRANCH   7  21
BRANCH   8  26
ATOM     26  N   UNL     1      -1.922  11.767  19.174  0.00  0.00    +0.000 N 
ATOM     27  H   UNL     1      -1.791  12.731  18.842  0.00  0.00    +0.000 HD
BRANCH  26  28
ATOM     28  C   UNL     1      -2.690  10.940  18.250  0.00  0.00    +0.000 C 
ATOM     29  C   UNL     1      -1.691  10.362  17.239  0.00  0.00    +0.000 C 
ATOM     30  C   UNL     1      -2.350   9.782  15.996  0.00  0.00    +0.000 C 
ATOM     31  N   UNL     1      -3.304  10.717  15.393  0.00  0.00    +0.000 NA
ATOM     32  C   UNL     1      -3.883  10.124  14.185  0.00  0.00    +0.000 C 
ATOM     33  C   UNL     1      -4.357  11.087  16.343  0.00  0.00    +0.000 C 
ATOM     34  C   UNL     1      -3.782  11.778  17.580  0.00  0.00    +0.000 C 
ENDBRANCH  26  28
ENDBRANCH   8  26
TORSDOF 7
ENDMDL
MODEL 3
REMARK VINA RESULT:      -7.3      0.799      1.598
REMARK  Name = 
REMARK  9 active torsions:
REMARK  status: ('A' for Active; 'I' for Inactive)
REMARK    1  A    between atoms: C_1  and  O_2
REMARK    2  A    between atoms: O_2  and  C_3
REMARK    3  A    between atoms: C_5  and  C_6
REMARK    4  A    between atoms: C_12  and  C_13
REMARK    5  A    between atoms: C_13  and  C_15
REMARK    6  A    between atoms: C_18  and  N_19
REMARK    7  A    between atoms: N_19  and  C_20
REMARK    8  A    between atoms: N_23  and  C_24
REMARK    9  A    between atoms: C_31  and  O_32
REMARK                            x       y       z     vdW  Elec       q    Type
REMARK                         _______ _______ _______ _____ _____    ______ ____
ROOT
ATOM      1  C   UNL     1       0.981   8.427  21.003  0.00  0.00    +0.000 A 
ATOM      2  C   UNL     1       1.067   8.496  22.390  0.00  0.00    +0.000 A 
ATOM      3  C   UNL     1       0.451   9.540  23.094  0.00  0.00    +0.000 A 
ATOM      4  C   UNL     1      -0.286  10.534  22.463  0.00  0.00    +0.000 A 
ATOM      5  N   UNL     1      -0.778  11.511  23.236  0.00  0.00    +0.000 NA
ATOM      6  C   UNL     1      -1.467  12.508  22.643  0.00  0.00    +0.000 A 
ATOM      7  C   UNL     1      -1.745  12.566  21.287  0.00  0.00    +0.000 A 
ATOM      8  C   UNL     1      -1.226  11.537  20.445  0.00  0.00    +0.000 A 
ATOM      9  C   UNL     1      -0.453  10.495  21.060  0.00  0.00    +0.000 A 
ATOM     10  C   UNL     1       0.230   9.445  20.376  0.00  0.00    +0.000 A 
ENDROOT
BRANCH   1  13
ATOM     11  C   UNL     1       3.030   6.670  18.278  0.00  0.00    +0.000 A 
ATOM     12  C   UNL     1       2.412   7.673  19.048  0.00  0.00    +0.000 A 
ATOM     13  C   UNL     1       1.671   7.377  20.210  0.00  0.00    +0.000 A 
ATOM     14  C   UNL     1       1.603   6.025  20.588  0.00  0.00    +0.000 A 
ATOM     15  C   UNL     1       2.245   5.020  19.857  0.00  0.00    +0.000 A 
ATOM     16  C   UNL     1       2.953   5.341  18.701  0.00  0.00    +0.000 A 
BRANCH  11  18
ATOM     17  C   UNL     1       5.119   7.062  17.216  0.00  0.00    +0.000 C 
ATOM     18  O   UNL     1       3.697   7.142  17.176  0.00  0.00    +0.000 OA
ENDBRANCH  11  18
BRANCH  16  19
ATOM     19  O   UNL     1       3.575   4.335  18.018  0.00  0.00    +0.000 OA
ATOM     20  H   UNL     1       4.534   4.480  18.039  0.00  0.00    +0.000 HD
ENDBRANCH  16  19
ENDBRANCH   1  13
BRANCH   7  21
ATOM     21  C   UNL     1      -2.545  13.708  20.759  0.00  0.00    +0.000 C 
ATOM     22  O   UNL     1      -1.976  14.709  20.321  0.00  0.00    +0.000 OA
BRANCH  21  23
ATOM     23  C   UNL     1      -4.042  13.628  20.712  0.00  0.00    +0.000 C 
ATOM     24  C   UNL     1      -4.807  12.654  21.582  0.00  0.00    +0.000 C 
ATOM     25  C   UNL     1      -4.838  14.117  21.906  0.00  0.00    +0.000 C 
ENDBRANCH  21  23
ENDBRANCH   7  21
BRANCH   8  26
ATOM     26  N   UNL     1      -1.502  11.614  19.085  0.00  0.00    +0.000 N 
ATOM     27  H   UNL     1      -1.187  12.493  18.653  0.00  0.00    +0.000 HD
BRANCH  26  28
ATOM     28  C   UNL     1      -2.400  10.844  18.230  0.00  0.00    +0.000 C 
ATOM     29  C   UNL     1      -1.526  10.156  17.175  0.00  0.00    +0.000 C 
ATOM     30  C   UNL     1      -2.313   9.617  15.990  0.00  0.00    +0.000 C 
ATOM     31  N   UNL     1      -3.214  10.625  15.424  0.00  0.00    +0.000 NA
ATOM     32  C   UNL     1      -3.921  10.065  14.270  0.00  0.00    +0.000 C 
ATOM     33  C   UNL     1      -4.165  11.110  16.428  0.00  0.00    +0.000 C 
ATOM     34  C   UNL     1      -3.451  11.768  17.609  0.00  0.00    +0.000 C 
ENDBRANCH  26  28
ENDBRANCH   8  26
TORSDOF 7
ENDMDL
MODEL 4
REMARK VINA RESULT:      -6.8      3.122      4.353
REMARK  Name = 
REMARK  9 active torsions:
REMARK  status: ('A' for Active; 'I' for Inactive)
REMARK    1  A    between atoms: C_1  and  O_2
REMARK    2  A    between atoms: O_2  and  C_3
REMARK    3  A    between atoms: C_5  and  C_6
REMARK    4  A    between atoms: C_12  and  C_13
REMARK    5  A    between atoms: C_13  and  C_15
REMARK    6  A    between atoms: C_18  and  N_19
REMARK    7  A    between atoms: N_19  and  C_20
REMARK    8  A    between atoms: N_23  and  C_24
REMARK    9  A    between atoms: C_31  and  O_32
REMARK                            x       y       z     vdW  Elec       q    Type
REMARK                         _______ _______ _______ _____ _____    ______ ____
ROOT
ATOM      1  C   UNL     1       1.010   8.925  20.607  0.00  0.00    +0.000 A 
ATOM      2  C   UNL     1       0.536   8.501  21.845  0.00  0.00    +0.000 A 
ATOM      3  C   UNL     1      -0.159   9.381  22.686  0.00  0.00    +0.000 A 
ATOM      4  C   UNL     1      -0.431  10.696  22.330  0.00  0.00    +0.000 A 
ATOM      5  N   UNL     1      -1.052  11.457  23.240  0.00  0.00    +0.000 NA
ATOM      6  C   UNL     1      -1.295  12.749  22.933  0.00  0.00    +0.000 A 
ATOM      7  C   UNL     1      -0.990  13.333  21.714  0.00  0.00    +0.000 A 
ATOM      8  C   UNL     1      -0.325  12.539  20.732  0.00  0.00    +0.000 A 
ATOM      9  C   UNL     1      -0.020  11.176  21.066  0.00  0.00    +0.000 A 
ATOM     10  C   UNL     1       0.727  10.265  20.261  0.00  0.00    +0.000 A 
ENDROOT
BRANCH   1  13
ATOM     11  C   UNL     1       2.978   5.928  19.245  0.00  0.00    +0.000 A 
ATOM     12  C   UNL     1       2.190   6.742  20.081  0.00  0.00    +0.000 A 
ATOM     13  C   UNL     1       1.807   8.048  19.712  0.00  0.00    +0.000 A 
ATOM     14  C   UNL     1       2.225   8.495  18.447  0.00  0.00    +0.000 A 
ATOM     15  C   UNL     1       2.974   7.685  17.588  0.00  0.00    +0.000 A 
ATOM     16  C   UNL     1       3.355   6.406  17.988  0.00  0.00    +0.000 A 
BRANCH  11  18
ATOM     17  C   UNL     1       2.305   3.668  19.529  0.00  0.00    +0.000 C 
ATOM     18  O   UNL     1       3.262   4.695  19.773  0.00  0.00    +0.000 OA
ENDBRANCH  11  18
BRANCH  16  19
ATOM     19  O   UNL     1       4.079   5.640  17.120  0.00  0.00    +0.000 OA
ATOM     20  H   UNL     1       5.020   5.699  17.351  0.00  0.00    +0.000 HD
ENDBRANCH  16  19
ENDBRANCH   1  13
BRANCH   7  21
ATOM     21  C   UNL     1      -1.340  14.764  21.488  0.00  0.00    +0.000 C 
ATOM     22  O   UNL     1      -2.124  15.072  20.590  0.00  0.00    +0.000 OA
BRANCH  21  23
ATOM     23  C   UNL     1      -0.779  15.833  22.379  0.00  0.00    +0.000 C 
ATOM     24  C   UNL     1       0.711  15.963  22.613  0.00  0.00    +0.000 C 
ATOM     25  C   UNL     1       0.006  16.969  21.754  0.00  0.00    +0.000 C 
ENDBRANCH  21  23
ENDBRANCH   7  21
BRANCH   8  26
ATOM     26  N   UNL     1      -0.013  13.141  19.518  0.00  0.00    +0.000 N 
ATOM     27  H   UNL     1      -0.673  12.909  18.765  0.00  0.00    +0.000 HD
BRANCH  26  28
ATOM     28  C   UNL     1       1.208  13.779  19.035  0.00  0.00    +0.000 C 
ATOM     29  C   UNL     1       2.265  13.597  20.131  0.00  0.00    +0.000 C 
ATOM     30  C   UNL     1       3.474  14.507  19.966  0.00  0.00    +0.000 C 
ATOM     31  N   UNL     1       3.087  15.906  19.765  0.00  0.00    +0.000 NA
ATOM     32  C   UNL     1       4.285  16.739  19.646  0.00  0.00    +0.000 C 
ATOM     33  C   UNL     1       2.232  16.055  18.584  0.00  0.00    +0.000 C 
ATOM     34  C   UNL     1       0.938  15.252  18.719  0.00  0.00    +0.000 C 
ENDBRANCH  26  28
ENDBRANCH   8  26
TORSDOF 7
ENDMDL
MODEL 5
REMARK VINA RESULT:      -6.7      4.774      8.954
REMARK  Name = 
REMARK  9 active torsions:
REMARK  status: ('A' for Active; 'I' for Inactive)
REMARK    1  A    between atoms: C_1  and  O_2
REMARK    2  A    between atoms: O_2  and  C_3
REMARK    3  A    between atoms: C_5  and  C_6
REMARK    4  A    between atoms: C_12  and  C_13
REMARK    5  A    between atoms: C_13  and  C_15
REMARK    6  A    between atoms: C_18  and  N_19
REMARK    7  A    between atoms: N_19  and  C_20
REMARK    8  A    between atoms: N_23  and  C_24
REMARK    9  A    between atoms: C_31  and  O_32
REMARK                            x       y       z     vdW  Elec       q    Type
REMARK                         _______ _______ _______ _____ _____    ______ ____
ROOT
ATOM      1  C   UNL     1       7.142   7.632  17.424  0.00  0.00    +0.000 A 
ATOM      2  C   UNL     1       7.668   6.792  16.446  0.00  0.00    +0.000 A 
ATOM      3  C   UNL     1       7.002   5.614  16.080  0.00  0.00    +0.000 A 
ATOM      4  C   UNL     1       5.789   5.235  16.643  0.00  0.00    +0.000 A 
ATOM      5  N   UNL     1       5.278   4.061  16.254  0.00  0.00    +0.000 NA
ATOM      6  C   UNL     1       4.120   3.652  16.814  0.00  0.00    +0.000 A 
ATOM      7  C   UNL     1       3.392   4.393  17.732  0.00  0.00    +0.000 A 
ATOM      8  C   UNL     1       3.922   5.646  18.162  0.00  0.00    +0.000 A 
ATOM      9  C   UNL     1       5.177   6.069  17.607  0.00  0.00    +0.000 A 
ATOM     10  C   UNL     1       5.910   7.232  17.988  0.00  0.00    +0.000 A 
ENDROOT
BRANCH   1  13
ATOM     11  C   UNL     1       8.292  11.276  17.751  0.00  0.00    +0.000 A 
ATOM     12  C   UNL     1       7.595  10.126  17.334  0.00  0.00    +0.000 A 
ATOM     13  C   UNL     1       7.844   8.855  17.890  0.00  0.00    +0.000 A 
ATOM     14  C   UNL     1       8.806   8.791  18.913  0.00  0.00    +0.000 A 
ATOM     15  C   UNL     1       9.478   9.930  19.367  0.00  0.00    +0.000 A 
ATOM     16  C   UNL     1       9.225  11.169  18.784  0.00  0.00    +0.000 A 
BRANCH  11  18
ATOM     17  C   UNL     1       7.724  13.578  17.897  0.00  0.00    +0.000 C 
ATOM     18  O   UNL     1       7.926  12.421  17.091  0.00  0.00    +0.000 OA
ENDBRANCH  11  18
BRANCH  16  19
ATOM     19  O   UNL     1       9.894  12.261  19.260  0.00  0.00    +0.000 OA
ATOM     20  H   UNL     1       9.619  12.430  20.176  0.00  0.00    +0.000 HD
ENDBRANCH  16  19
ENDBRANCH   1  13
BRANCH   7  21
ATOM     21  C   UNL     1       2.108   3.842  18.252  0.00  0.00    +0.000 C 
ATOM     22  O   UNL     1       1.046   4.131  17.700  0.00  0.00    +0.000 OA
BRANCH  21  23
ATOM     23  C   UNL     1       2.104   2.898  19.418  0.00  0.00    +0.000 C 
ATOM     24  C   UNL     1       3.263   2.840  20.390  0.00  0.00    +0.000 C 
ATOM     25  C   UNL     1       1.969   3.464  20.817  0.00  0.00    +0.000 C 
ENDBRANCH  21  23
ENDBRANCH   7  21
BRANCH   8  26
ATOM     26  N   UNL     1       3.188   6.372  19.092  0.00  0.00    +0.000 N 
ATOM     27  H   UNL     1       3.319   6.049  20.059  0.00  0.00    +0.000 HD
BRANCH  26  28
ATOM     28  C   UNL     1       2.059   7.285  18.941  0.00  0.00    +0.000 C 
ATOM     29  C   UNL     1       2.450   8.295  17.854  0.00  0.00    +0.000 C 
ATOM     30  C   UNL     1       1.560   9.529  17.822  0.00  0.00    +0.000 C 
ATOM     31  N   UNL     1       1.416  10.137  19.148  0.00  0.00    +0.000 NA
ATOM     32  C   UNL     1       0.580  11.336  19.055  0.00  0.00    +0.000 C 
ATOM     33  C   UNL     1       0.851   9.185  20.109  0.00  0.00    +0.000 C 
ATOM     34  C   UNL     1       1.746   7.957  20.280  0.00  0.00    +0.000 C 
ENDBRANCH  26  28
ENDBRANCH   8  26
TORSDOF 7
ENDMDL
MODEL 6
REMARK VINA RESULT:      -6.7      2.812      3.937
REMARK  Name = 
REMARK  9 active torsions:
REMARK  status: ('A' for Active; 'I' for Inactive)
REMARK    1  A    between atoms: C_1  and  O_2
REMARK    2  A    between atoms: O_2  and  C_3
REMARK    3  A    between atoms: C_5  and  C_6
REMARK    4  A    between atoms: C_12  and  C_13
REMARK    5  A    between atoms: C_13  and  C_15
REMARK    6  A    between atoms: C_18  and  N_19
REMARK    7  A    between atoms: N_19  and  C_20
REMARK    8  A    between atoms: N_23  and  C_24
REMARK    9  A    between atoms: C_31  and  O_32
REMARK                            x       y       z     vdW  Elec       q    Type
REMARK                         _______ _______ _______ _____ _____    ______ ____
ROOT
ATOM      1  C   UNL     1       1.129   8.670  20.537  0.00  0.00    +0.000 A 
ATOM      2  C   UNL     1       0.664   8.201  21.762  0.00  0.00    +0.000 A 
ATOM      3  C   UNL     1      -0.051   9.042  22.626  0.00  0.00    +0.000 A 
ATOM      4  C   UNL     1      -0.352  10.360  22.306  0.00  0.00    +0.000 A 
ATOM      5  N   UNL     1      -0.990  11.082  23.236  0.00  0.00    +0.000 NA
ATOM      6  C   UNL     1      -1.261  12.376  22.965  0.00  0.00    +0.000 A 
ATOM      7  C   UNL     1      -0.968  13.000  21.763  0.00  0.00    +0.000 A 
ATOM      8  C   UNL     1      -0.286  12.248  20.760  0.00  0.00    +0.000 A 
ATOM      9  C   UNL     1       0.048  10.884  21.056  0.00  0.00    +0.000 A 
ATOM     10  C   UNL     1       0.816  10.012  20.227  0.00  0.00    +0.000 A 
ENDROOT
BRANCH   1  13
ATOM     11  C   UNL     1       3.122   5.738  19.074  0.00  0.00    +0.000 A 
ATOM     12  C   UNL     1       2.315   6.512  19.930  0.00  0.00    +0.000 A 
ATOM     13  C   UNL     1       1.945   7.835  19.618  0.00  0.00    +0.000 A 
ATOM     14  C   UNL     1       2.395   8.344  18.388  0.00  0.00    +0.000 A 
ATOM     15  C   UNL     1       3.164   7.575  17.508  0.00  0.00    +0.000 A 
ATOM     16  C   UNL     1       3.531   6.277  17.853  0.00  0.00    +0.000 A 
BRANCH  11  18
ATOM     17  C   UNL     1       2.437   3.468  19.225  0.00  0.00    +0.000 C 
ATOM     18  O   UNL     1       3.389   4.478  19.546  0.00  0.00    +0.000 OA
ENDBRANCH  11  18
BRANCH  16  19
ATOM     19  O   UNL     1       4.275   5.553  16.964  0.00  0.00    +0.000 OA
ATOM     20  H   UNL     1       5.140   5.978  16.852  0.00  0.00    +0.000 HD
ENDBRANCH  16  19
ENDBRANCH   1  13
BRANCH   7  21
ATOM     21  C   UNL     1      -1.350  14.429  21.576  0.00  0.00    +0.000 C 
ATOM     22  O   UNL     1      -0.561  15.322  21.885  0.00  0.00    +0.000 OA
BRANCH  21  23
ATOM     23  C   UNL     1      -2.674  14.788  20.968  0.00  0.00    +0.000 C 
ATOM     24  C   UNL     1      -3.764  13.754  20.785  0.00  0.00    +0.000 C 
ATOM     25  C   UNL     1      -3.905  14.798  21.851  0.00  0.00    +0.000 C 
ENDBRANCH  21  23
ENDBRANCH   7  21
BRANCH   8  26
ATOM     26  N   UNL     1       0.013  12.891  19.563  0.00  0.00    +0.000 N 
ATOM     27  H   UNL     1      -0.644  12.668  18.805  0.00  0.00    +0.000 HD
BRANCH  26  28
ATOM     28  C   UNL     1       1.221  13.565  19.098  0.00  0.00    +0.000 C 
ATOM     29  C   UNL     1       2.259  13.437  20.219  0.00  0.00    +0.000 C 
ATOM     30  C   UNL     1       3.439  14.386  20.068  0.00  0.00    +0.000 C 
ATOM     31  N   UNL     1       3.006  15.768  19.838  0.00  0.00    +0.000 NA
ATOM     32  C   UNL     1       4.177  16.642  19.732  0.00  0.00    +0.000 C 
ATOM     33  C   UNL     1       2.174  15.870  18.636  0.00  0.00    +0.000 C 
ATOM     34  C   UNL     1       0.906  15.023  18.755  0.00  0.00    +0.000 C 
ENDBRANCH  26  28
ENDBRANCH   8  26
TORSDOF 7
ENDMDL
MODEL 7
REMARK VINA RESULT:      -6.6      1.421      2.140
REMARK  Name = 
REMARK  9 active torsions:
REMARK  status: ('A' for Active; 'I' for Inactive)
REMARK    1  A    between atoms: C_1  and  O_2
REMARK    2  A    between atoms: O_2  and  C_3
REMARK    3  A    between atoms: C_5  and  C_6
REMARK    4  A    between atoms: C_12  and  C_13
REMARK    5  A    between atoms: C_13  and  C_15
REMARK    6  A    between atoms: C_18  and  N_19
REMARK    7  A    between atoms: N_19  and  C_20
REMARK    8  A    between atoms: N_23  and  C_24
REMARK    9  A    between atoms: C_31  and  O_32
REMARK                            x       y       z     vdW  Elec       q    Type
REMARK                         _______ _______ _______ _____ _____    ______ ____
ROOT
ATOM      1  C   UNL     1       1.500   8.144  20.411  0.00  0.00    +0.000 A 
ATOM      2  C   UNL     1       1.702   8.165  21.788  0.00  0.00    +0.000 A 
ATOM      3  C   UNL     1       1.137   9.176  22.579  0.00  0.00    +0.000 A 
ATOM      4  C   UNL     1       0.337  10.180  22.049  0.00  0.00    +0.000 A 
ATOM      5  N   UNL     1      -0.099  11.122  22.895  0.00  0.00    +0.000 NA
ATOM      6  C   UNL     1      -0.846  12.130  22.398  0.00  0.00    +0.000 A 
ATOM      7  C   UNL     1      -1.238  12.231  21.073  0.00  0.00    +0.000 A 
ATOM      8  C   UNL     1      -0.781  11.239  20.155  0.00  0.00    +0.000 A 
ATOM      9  C   UNL     1       0.053  10.188  20.664  0.00  0.00    +0.000 A 
ATOM     10  C   UNL     1       0.687   9.173  19.888  0.00  0.00    +0.000 A 
ENDROOT
BRANCH   1  13
ATOM     11  C   UNL     1       3.645   6.520  17.678  0.00  0.00    +0.000 A 
ATOM     12  C   UNL     1       3.078   7.477  18.541  0.00  0.00    +0.000 A 
ATOM     13  C   UNL     1       2.132   7.132  19.526  0.00  0.00    +0.000 A 
ATOM     14  C   UNL     1       1.798   5.770  19.632  0.00  0.00    +0.000 A 
ATOM     15  C   UNL     1       2.381   4.801  18.809  0.00  0.00    +0.000 A 
ATOM     16  C   UNL     1       3.298   5.176  17.831  0.00  0.00    +0.000 A 
BRANCH  11  18
ATOM     17  C   UNL     1       5.909   7.013  17.157  0.00  0.00    +0.000 C 
ATOM     18  O   UNL     1       4.537   7.040  16.775  0.00  0.00    +0.000 OA
ENDBRANCH  11  18
BRANCH  16  19
ATOM     19  O   UNL     1       3.854   4.201  17.052  0.00  0.00    +0.000 OA
ATOM     20  H   UNL     1       3.945   3.388  17.575  0.00  0.00    +0.000 HD
ENDBRANCH  16  19
ENDBRANCH   1  13
BRANCH   7  21
ATOM     21  C   UNL     1      -2.093  13.380  20.656  0.00  0.00    +0.000 C 
ATOM     22  O   UNL     1      -3.304  13.221  20.498  0.00  0.00    +0.000 OA
BRANCH  21  23
ATOM     23  C   UNL     1      -1.495  14.743  20.473  0.00  0.00    +0.000 C 
ATOM     24  C   UNL     1      -2.349  15.992  20.524  0.00  0.00    +0.000 C 
ATOM     25  C   UNL     1      -1.427  15.678  21.664  0.00  0.00    +0.000 C 
ENDBRANCH  21  23
ENDBRANCH   7  21
BRANCH   8  26
ATOM     26  N   UNL     1      -1.172  11.361  18.826  0.00  0.00    +0.000 N 
ATOM     27  H   UNL     1      -0.813  12.209  18.370  0.00  0.00    +0.000 HD
BRANCH  26  28
ATOM     28  C   UNL     1      -2.216  10.693  18.056  0.00  0.00    +0.000 C 
ATOM     29  C   UNL     1      -1.509   9.853  16.985  0.00  0.00    +0.000 C 
ATOM     30  C   UNL     1      -2.432   9.386  15.869  0.00  0.00    +0.000 C 
ATOM     31  N   UNL     1      -3.219  10.488  15.309  0.00  0.00    +0.000 NA
ATOM     32  C   UNL     1      -4.063   9.991  14.221  0.00  0.00    +0.000 C 
ATOM     33  C   UNL     1      -4.033  11.136  16.342  0.00  0.00    +0.000 C 
ATOM     34  C   UNL     1      -3.167  11.730  17.453  0.00  0.00    +0.000 C 
ENDBRANCH  26  28
ENDBRANCH   8  26
TORSDOF 7
ENDMDL
MODEL 8
REMARK VINA RESULT:      -6.6      2.548      3.506
REMARK  Name = 
REMARK  9 active torsions:
REMARK  status: ('A' for Active; 'I' for Inactive)
REMARK    1  A    between atoms: C_1  and  O_2
REMARK    2  A    between atoms: O_2  and  C_3
REMARK    3  A    between atoms: C_5  and  C_6
REMARK    4  A    between atoms: C_12  and  C_13
REMARK    5  A    between atoms: C_13  and  C_15
REMARK    6  A    between atoms: C_18  and  N_19
REMARK    7  A    between atoms: N_19  and  C_20
REMARK    8  A    between atoms: N_23  and  C_24
REMARK    9  A    between atoms: C_31  and  O_32
REMARK                            x       y       z     vdW  Elec       q    Type
REMARK                         _______ _______ _______ _____ _____    ______ ____
ROOT
ATOM      1  C   UNL     1       0.977   8.866  20.703  0.00  0.00    +0.000 A 
ATOM      2  C   UNL     1       0.775   8.529  22.038  0.00  0.00    +0.000 A 
ATOM      3  C   UNL     1       0.059   9.381  22.891  0.00  0.00    +0.000 A 
ATOM      4  C   UNL     1      -0.501  10.575  22.456  0.00  0.00    +0.000 A 
ATOM      5  N   UNL     1      -1.112  11.332  23.376  0.00  0.00    +0.000 NA
ATOM      6  C   UNL     1      -1.632  12.515  22.987  0.00  0.00    +0.000 A 
ATOM      7  C   UNL     1      -1.620  12.981  21.682  0.00  0.00    +0.000 A 
ATOM      8  C   UNL     1      -0.970  12.192  20.687  0.00  0.00    +0.000 A 
ATOM      9  C   UNL     1      -0.374  10.953  21.099  0.00  0.00    +0.000 A 
ATOM     10  C   UNL     1       0.404  10.084  20.277  0.00  0.00    +0.000 A 
ENDROOT
BRANCH   1  13
ATOM     11  C   UNL     1       2.999   5.946  19.253  0.00  0.00    +0.000 A 
ATOM     12  C   UNL     1       2.201   6.723  20.115  0.00  0.00    +0.000 A 
ATOM     13  C   UNL     1       1.784   8.027  19.779  0.00  0.00    +0.000 A 
ATOM     14  C   UNL     1       2.177   8.511  18.520  0.00  0.00    +0.000 A 
ATOM     15  C   UNL     1       2.936   7.738  17.635  0.00  0.00    +0.000 A 
ATOM     16  C   UNL     1       3.350   6.461  18.003  0.00  0.00    +0.000 A 
BRANCH  11  18
ATOM     17  C   UNL     1       2.462   4.198  20.768  0.00  0.00    +0.000 C 
ATOM     18  O   UNL     1       3.317   4.708  19.750  0.00  0.00    +0.000 OA
ENDBRANCH  11  18
BRANCH  16  19
ATOM     19  O   UNL     1       4.082   5.731  17.109  0.00  0.00    +0.000 OA
ATOM     20  H   UNL     1       4.204   4.832  17.455  0.00  0.00    +0.000 HD
ENDBRANCH  16  19
ENDBRANCH   1  13
BRANCH   7  21
ATOM     21  C   UNL     1      -2.258  14.294  21.376  0.00  0.00    +0.000 C 
ATOM     22  O   UNL     1      -3.169  14.358  20.549  0.00  0.00    +0.000 OA
BRANCH  21  23
ATOM     23  C   UNL     1      -1.830  15.534  22.104  0.00  0.00    +0.000 C 
ATOM     24  C   UNL     1      -2.561  16.847  21.922  0.00  0.00    +0.000 C 
ATOM     25  C   UNL     1      -2.721  16.082  23.201  0.00  0.00    +0.000 C 
ENDBRANCH  21  23
ENDBRANCH   7  21
BRANCH   8  26
ATOM     26  N   UNL     1      -0.955  12.678  19.384  0.00  0.00    +0.000 N 
ATOM     27  H   UNL     1      -1.700  12.289  18.794  0.00  0.00    +0.000 HD
BRANCH  26  28
ATOM     28  C   UNL     1       0.070  13.385  18.624  0.00  0.00    +0.000 C 
ATOM     29  C   UNL     1       1.296  12.466  18.572  0.00  0.00    +0.000 C 
ATOM     30  C   UNL     1       2.572  13.177  18.145  0.00  0.00    +0.000 C 
ATOM     31  N   UNL     1       2.803  14.403  18.916  0.00  0.00    +0.000 NA
ATOM     32  C   UNL     1       4.057  15.028  18.489  0.00  0.00    +0.000 C 
ATOM     33  C   UNL     1       1.683  15.337  18.772  0.00  0.00    +0.000 C 
ATOM     34  C   UNL     1       0.375  14.733  19.283  0.00  0.00    +0.000 C 
ENDBRANCH  26  28
ENDBRANCH   8  26
TORSDOF 7
ENDMDL
MODEL 9
REMARK VINA RESULT:      -6.6      4.712      5.767
REMARK  Name = 
REMARK  9 active torsions:
REMARK  status: ('A' for Active; 'I' for Inactive)
REMARK    1  A    between atoms: C_1  and  O_2
REMARK    2  A    between atoms: O_2  and  C_3
REMARK    3  A    between atoms: C_5  and  C_6
REMARK    4  A    between atoms: C_12  and  C_13
REMARK    5  A    between atoms: C_13  and  C_15
REMARK    6  A    between atoms: C_18  and  N_19
REMARK    7  A    between atoms: N_19  and  C_20
REMARK    8  A    between atoms: N_23  and  C_24
REMARK    9  A    between atoms: C_31  and  O_32
REMARK                            x       y       z     vdW  Elec       q    Type
REMARK                         _______ _______ _______ _____ _____    ______ ____
ROOT
ATOM      1  C   UNL     1      -0.102  14.051  20.797  0.00  0.00    +0.000 A 
ATOM      2  C   UNL     1       0.054  14.102  22.179  0.00  0.00    +0.000 A 
ATOM      3  C   UNL     1      -1.027  13.833  23.031  0.00  0.00    +0.000 A 
ATOM      4  C   UNL     1      -2.284  13.483  22.556  0.00  0.00    +0.000 A 
ATOM      5  N   UNL     1      -3.251  13.306  23.465  0.00  0.00    +0.000 NA
ATOM      6  C   UNL     1      -4.491  13.002  23.028  0.00  0.00    +0.000 A 
ATOM      7  C   UNL     1      -4.824  12.810  21.697  0.00  0.00    +0.000 A 
ATOM      8  C   UNL     1      -3.808  12.998  20.712  0.00  0.00    +0.000 A 
ATOM      9  C   UNL     1      -2.496  13.366  21.164  0.00  0.00    +0.000 A 
ATOM     10  C   UNL     1      -1.387  13.696  20.330  0.00  0.00    +0.000 A 
ENDROOT
BRANCH   1  13
ATOM     11  C   UNL     1       2.246  16.021  18.491  0.00  0.00    +0.000 A 
ATOM     12  C   UNL     1       1.230  15.709  19.414  0.00  0.00    +0.000 A 
ATOM     13  C   UNL     1       0.996  14.391  19.855  0.00  0.00    +0.000 A 
ATOM     14  C   UNL     1       1.851  13.396  19.353  0.00  0.00    +0.000 A 
ATOM     15  C   UNL     1       2.891  13.694  18.467  0.00  0.00    +0.000 A 
ATOM     16  C   UNL     1       3.085  15.003  18.033  0.00  0.00    +0.000 A 
BRANCH  11  18
ATOM     17  C   UNL     1       1.078  18.017  17.949  0.00  0.00    +0.000 C 
ATOM     18  O   UNL     1       2.319  17.352  18.168  0.00  0.00    +0.000 OA
ENDBRANCH  11  18
BRANCH  16  19
ATOM     19  O   UNL     1       4.116  15.258  17.174  0.00  0.00    +0.000 OA
ATOM     20  H   UNL     1       3.986  16.132  16.770  0.00  0.00    +0.000 HD
ENDBRANCH  16  19
ENDBRANCH   1  13
BRANCH   7  21
ATOM     21  C   UNL     1      -6.226  12.446  21.345  0.00  0.00    +0.000 C 
ATOM     22  O   UNL     1      -6.523  11.268  21.138  0.00  0.00    +0.000 OA
BRANCH  21  23
ATOM     23  C   UNL     1      -7.293  13.499  21.289  0.00  0.00    +0.000 C 
ATOM     24  C   UNL     1      -6.996  14.896  20.788  0.00  0.00    +0.000 C 
ATOM     25  C   UNL     1      -7.796  13.959  19.935  0.00  0.00    +0.000 C 
ENDBRANCH  21  23
ENDBRANCH   7  21
BRANCH   8  26
ATOM     26  N   UNL     1      -4.160  12.814  19.379  0.00  0.00    +0.000 N 
ATOM     27  H   UNL     1      -4.805  13.531  19.024  0.00  0.00    +0.000 HD
BRANCH  26  28
ATOM     28  C   UNL     1      -4.036  11.662  18.492  0.00  0.00    +0.000 C 
ATOM     29  C   UNL     1      -2.554  11.548  18.117  0.00  0.00    +0.000 C 
ATOM     30  C   UNL     1      -2.296  10.643  16.921  0.00  0.00    +0.000 C 
ATOM     31  N   UNL     1      -3.154  10.980  15.782  0.00  0.00    +0.000 NA
ATOM     32  C   UNL     1      -2.842  10.103  14.651  0.00  0.00    +0.000 C 
ATOM     33  C   UNL     1      -4.572  10.881  16.139  0.00  0.00    +0.000 C 
ATOM     34  C   UNL     1      -4.938  11.845  17.268  0.00  0.00    +0.000 C 
ENDBRANCH  26  28
ENDBRANCH   8  26
TORSDOF 7
ENDMDL
