MODEL 1
REMARK VINA RESULT:      -9.6      0.000      0.000
REMARK  Name = 
REMARK  6 active torsions:
REMARK  status: ('A' for Active; 'I' for Inactive)
REMARK    1  A    between atoms: C_1  and  C_2
REMARK    2  A    between atoms: C_4  and  C_5
REMARK    3  A    between atoms: C_11  and  C_12
REMARK    4  A    between atoms: N_14  and  C_15
REMARK    5  A    between atoms: C_19  and  C_20
REMARK    6  A    between atoms: C_20  and  N_21
REMARK                            x       y       z     vdW  Elec       q    Type
REMARK                         _______ _______ _______ _____ _____    ______ ____
ROOT
ATOM      1  C   UNL     1       1.682   9.124  18.547  0.00  0.00    +0.000 C 
ATOM      2  O   UNL     1       2.032   9.534  17.460  0.00  0.00    +0.000 OA
ATOM      3  N   UNL     1       0.864   9.843  19.421  0.00  0.00    +0.000 N 
ATOM      4  H   UNL     1       0.402   9.314  20.152  0.00  0.00    +0.000 HD
ENDROOT
BRANCH   1  11
ATOM      5  C   UNL     1       4.532   4.883  18.218  0.00  0.00    +0.000 A 
ATOM      6  N   UNL     1       4.502   3.771  18.967  0.00  0.00    +0.000 NA
ATOM      7  N   UNL     1       3.577   4.024  19.905  0.00  0.00    +0.000 N 
ATOM      8  C   UNL     1       2.976   5.238  19.780  0.00  0.00    +0.000 A 
ATOM      9  C   UNL     1       1.974   5.864  20.539  0.00  0.00    +0.000 A 
ATOM     10  C   UNL     1       1.557   7.140  20.131  0.00  0.00    +0.000 A 
ATOM     11  C   UNL     1       2.104   7.761  19.002  0.00  0.00    +0.000 A 
ATOM     12  C   UNL     1       3.106   7.103  18.266  0.00  0.00    +0.000 A 
ATOM     13  C   UNL     1       3.552   5.831  18.665  0.00  0.00    +0.000 A 
ATOM     14  H   UNL     1       3.391   3.308  20.603  0.00  0.00    +0.000 HD
BRANCH   5  18
ATOM     15  C   UNL     1       5.864   3.744  13.540  0.00  0.00    +0.000 C 
ATOM     16  C   UNL     1       6.108   4.450  14.838  0.00  0.00    +0.000 A 
ATOM     17  C   UNL     1       5.178   4.373  15.868  0.00  0.00    +0.000 A 
ATOM     18  C   UNL     1       5.459   5.004  17.087  0.00  0.00    +0.000 A 
ATOM     19  C   UNL     1       6.641   5.730  17.208  0.00  0.00    +0.000 A 
ATOM     20  C   UNL     1       7.496   5.774  16.122  0.00  0.00    +0.000 A 
ATOM     21  N   UNL     1       7.261   5.146  14.951  0.00  0.00    +0.000 NA
ENDBRANCH   5  18
ENDBRANCH   1  11
BRANCH   3  22
ATOM     22  C   UNL     1       0.221  11.102  19.014  0.00  0.00    +0.000 C 
ATOM     23  C   UNL     1      -0.977  11.408  19.926  0.00  0.00    +0.000 C 
ATOM     24  C   UNL     1      -0.552  11.937  21.287  0.00  0.00    +0.000 C 
ATOM     25  C   UNL     1       0.458  13.083  21.200  0.00  0.00    +0.000 C 
ATOM     26  C   UNL     1       1.718  12.715  20.360  0.00  0.00    +0.000 C 
ATOM     27  C   UNL     1       1.226  12.295  18.961  0.00  0.00    +0.000 C 
BRANCH  26  28
ATOM     28  C   UNL     1       2.908  13.819  20.429  0.00  0.00    +0.000 C 
BRANCH  28  29
ATOM     29  N   UNL     1       2.879  14.712  19.249  0.00  0.00    +0.000 N 
ATOM     30  N   UNL     1       3.907  14.461  18.409  0.00  0.00    +0.000 NA
ATOM     31  C   UNL     1       4.160  15.640  17.876  0.00  0.00    +0.000 A 
ATOM     32  C   UNL     1       2.971  16.348  17.772  0.00  0.00    +0.000 A 
ATOM     33  C   UNL     1       2.585  17.402  16.934  0.00  0.00    +0.000 A 
ATOM     34  C   UNL     1       1.293  17.880  17.023  0.00  0.00    +0.000 A 
ATOM     35  C   UNL     1       0.472  17.449  18.057  0.00  0.00    +0.000 A 
ATOM     36  C   UNL     1       0.873  16.428  18.987  0.00  0.00    +0.000 A 
ATOM     37  C   UNL     1       2.121  15.793  18.758  0.00  0.00    +0.000 A 
ENDBRANCH  28  29
ENDBRANCH  26  28
ENDBRANCH   3  22
TORSDOF 5
ENDMDL
MODEL 2
REMARK VINA RESULT:      -9.3      3.248      9.851
REMARK  Name = 
REMARK  6 active torsions:
REMARK  status: ('A' for Active; 'I' for Inactive)
REMARK    1  A    between atoms: C_1  and  C_2
REMARK    2  A    between atoms: C_4  and  C_5
REMARK    3  A    between atoms: C_11  and  C_12
REMARK    4  A    between atoms: N_14  and  C_15
REMARK    5  A    between atoms: C_19  and  C_20
REMARK    6  A    between atoms: C_20  and  N_21
REMARK                            x       y       z     vdW  Elec       q    Type
REMARK                         _______ _______ _______ _____ _____    ______ ____
ROOT
ATOM      1  C   UNL     1       1.710   7.571  20.154  0.00  0.00    +0.000 C 
ATOM      2  O   UNL     1       1.205   7.258  21.212  0.00  0.00    +0.000 OA
ATOM      3  N   UNL     1       2.547   6.732  19.415  0.00  0.00    +0.000 N 
ATOM      4  H   UNL     1       2.677   6.965  18.437  0.00  0.00    +0.000 HD
ENDROOT
BRANCH   1  11
ATOM      5  C   UNL     1      -0.788  12.037  19.966  0.00  0.00    +0.000 A 
ATOM      6  N   UNL     1      -0.680  13.041  19.085  0.00  0.00    +0.000 NA
ATOM      7  N   UNL     1       0.303  12.657  18.258  0.00  0.00    +0.000 N 
ATOM      8  C   UNL     1       0.818  11.430  18.538  0.00  0.00    +0.000 A 
ATOM      9  C   UNL     1       1.832  10.681  17.919  0.00  0.00    +0.000 A 
ATOM     10  C   UNL     1       2.122   9.418  18.457  0.00  0.00    +0.000 A 
ATOM     11  C   UNL     1       1.417   8.913  19.557  0.00  0.00    +0.000 A 
ATOM     12  C   UNL     1       0.408   9.691  20.150  0.00  0.00    +0.000 A 
ATOM     13  C   UNL     1       0.111  10.968  19.640  0.00  0.00    +0.000 A 
ATOM     14  H   UNL     1       0.569  13.284  17.502  0.00  0.00    +0.000 HD
BRANCH   5  18
ATOM     15  C   UNL     1      -5.305  13.246  21.725  0.00  0.00    +0.000 C 
ATOM     16  C   UNL     1      -3.927  12.691  21.919  0.00  0.00    +0.000 A 
ATOM     17  C   UNL     1      -3.055  12.578  20.843  0.00  0.00    +0.000 A 
ATOM     18  C   UNL     1      -1.757  12.101  21.067  0.00  0.00    +0.000 A 
ATOM     19  C   UNL     1      -1.401  11.708  22.354  0.00  0.00    +0.000 A 
ATOM     20  C   UNL     1      -2.342  11.831  23.360  0.00  0.00    +0.000 A 
ATOM     21  N   UNL     1      -3.586  12.319  23.173  0.00  0.00    +0.000 NA
ENDBRANCH   5  18
ENDBRANCH   1  11
BRANCH   3  22
ATOM     22  C   UNL     1       2.752   5.324  19.789  0.00  0.00    +0.000 C 
ATOM     23  C   UNL     1       1.592   4.461  19.273  0.00  0.00    +0.000 C 
ATOM     24  C   UNL     1       1.686   4.193  17.779  0.00  0.00    +0.000 C 
ATOM     25  C   UNL     1       3.063   3.689  17.342  0.00  0.00    +0.000 C 
ATOM     26  C   UNL     1       4.220   4.636  17.782  0.00  0.00    +0.000 C 
ATOM     27  C   UNL     1       4.135   4.777  19.315  0.00  0.00    +0.000 C 
BRANCH  26  28
ATOM     28  C   UNL     1       5.667   4.255  17.150  0.00  0.00    +0.000 C 
BRANCH  28  29
ATOM     29  N   UNL     1       6.724   5.168  17.642  0.00  0.00    +0.000 N 
ATOM     30  N   UNL     1       7.701   4.497  18.290  0.00  0.00    +0.000 NA
ATOM     31  C   UNL     1       8.118   5.361  19.194  0.00  0.00    +0.000 A 
ATOM     32  C   UNL     1       8.000   6.642  18.673  0.00  0.00    +0.000 A 
ATOM     33  C   UNL     1       8.658   7.839  18.986  0.00  0.00    +0.000 A 
ATOM     34  C   UNL     1       8.365   8.969  18.249  0.00  0.00    +0.000 A 
ATOM     35  C   UNL     1       7.300   8.948  17.357  0.00  0.00    +0.000 A 
ATOM     36  C   UNL     1       6.549   7.754  17.079  0.00  0.00    +0.000 A 
ATOM     37  C   UNL     1       6.994   6.549  17.682  0.00  0.00    +0.000 A 
ENDBRANCH  28  29
ENDBRANCH  26  28
ENDBRANCH   3  22
TORSDOF 5
ENDMDL
MODEL 3
REMARK VINA RESULT:      -9.2      0.680      1.348
REMARK  Name = 
REMARK  6 active torsions:
REMARK  status: ('A' for Active; 'I' for Inactive)
REMARK    1  A    between atoms: C_1  and  C_2
REMARK    2  A    between atoms: C_4  and  C_5
REMARK    3  A    between atoms: C_11  and  C_12
REMARK    4  A    between atoms: N_14  and  C_15
REMARK    5  A    between atoms: C_19  and  C_20
REMARK    6  A    between atoms: C_20  and  N_21
REMARK                            x       y       z     vdW  Elec       q    Type
REMARK                         _______ _______ _______ _____ _____    ______ ____
ROOT
ATOM      1  C   UNL     1       1.799   9.026  18.461  0.00  0.00    +0.000 C 
ATOM      2  O   UNL     1       2.207   9.483  17.414  0.00  0.00    +0.000 OA
ATOM      3  N   UNL     1       0.913   9.696  19.307  0.00  0.00    +0.000 N 
ATOM      4  H   UNL     1       0.419   9.131  19.988  0.00  0.00    +0.000 HD
ENDROOT
BRANCH   1  11
ATOM      5  C   UNL     1       4.616   4.772  18.026  0.00  0.00    +0.000 A 
ATOM      6  N   UNL     1       4.593   3.652  18.762  0.00  0.00    +0.000 NA
ATOM      7  N   UNL     1       3.688   3.898  19.721  0.00  0.00    +0.000 N 
ATOM      8  C   UNL     1       3.092   5.117  19.622  0.00  0.00    +0.000 A 
ATOM      9  C   UNL     1       2.109   5.740  20.408  0.00  0.00    +0.000 A 
ATOM     10  C   UNL     1       1.693   7.024  20.023  0.00  0.00    +0.000 A 
ATOM     11  C   UNL     1       2.222   7.655  18.891  0.00  0.00    +0.000 A 
ATOM     12  C   UNL     1       3.204   7.000  18.128  0.00  0.00    +0.000 A 
ATOM     13  C   UNL     1       3.651   5.720  18.503  0.00  0.00    +0.000 A 
ATOM     14  H   UNL     1       3.511   3.176  20.414  0.00  0.00    +0.000 HD
BRANCH   5  18
ATOM     15  C   UNL     1       5.849   3.683  13.309  0.00  0.00    +0.000 C 
ATOM     16  C   UNL     1       6.123   4.372  14.612  0.00  0.00    +0.000 A 
ATOM     17  C   UNL     1       5.213   4.288  15.658  0.00  0.00    +0.000 A 
ATOM     18  C   UNL     1       5.522   4.901  16.879  0.00  0.00    +0.000 A 
ATOM     19  C   UNL     1       6.711   5.617  16.986  0.00  0.00    +0.000 A 
ATOM     20  C   UNL     1       7.545   5.669  15.885  0.00  0.00    +0.000 A 
ATOM     21  N   UNL     1       7.283   5.058  14.710  0.00  0.00    +0.000 NA
ENDBRANCH   5  18
ENDBRANCH   1  11
BRANCH   3  22
ATOM     22  C   UNL     1       0.270  10.957  18.907  0.00  0.00    +0.000 C 
ATOM     23  C   UNL     1      -1.094  11.102  19.598  0.00  0.00    +0.000 C 
ATOM     24  C   UNL     1      -0.966  11.503  21.060  0.00  0.00    +0.000 C 
ATOM     25  C   UNL     1      -0.041  12.702  21.277  0.00  0.00    +0.000 C 
ATOM     26  C   UNL     1       1.376  12.490  20.662  0.00  0.00    +0.000 C 
ATOM     27  C   UNL     1       1.181  12.198  19.161  0.00  0.00    +0.000 C 
BRANCH  26  28
ATOM     28  C   UNL     1       2.452  13.640  21.063  0.00  0.00    +0.000 C 
BRANCH  28  29
ATOM     29  N   UNL     1       2.207  14.889  20.307  0.00  0.00    +0.000 N 
ATOM     30  N   UNL     1       1.438  15.752  21.006  0.00  0.00    +0.000 NA
ATOM     31  C   UNL     1       0.770  16.394  20.068  0.00  0.00    +0.000 A 
ATOM     32  C   UNL     1       1.572  16.501  18.941  0.00  0.00    +0.000 A 
ATOM     33  C   UNL     1       1.560  17.405  17.871  0.00  0.00    +0.000 A 
ATOM     34  C   UNL     1       2.535  17.297  16.900  0.00  0.00    +0.000 A 
ATOM     35  C   UNL     1       3.377  16.192  16.896  0.00  0.00    +0.000 A 
ATOM     36  C   UNL     1       3.355  15.199  17.936  0.00  0.00    +0.000 A 
ATOM     37  C   UNL     1       2.495  15.432  19.040  0.00  0.00    +0.000 A 
ENDBRANCH  28  29
ENDBRANCH  26  28
ENDBRANCH   3  22
TORSDOF 5
ENDMDL
MODEL 4
REMARK VINA RESULT:      -9.2      1.036      1.194
REMARK  Name = 
REMARK  6 active torsions:
REMARK  status: ('A' for Active; 'I' for Inactive)
REMARK    1  A    between atoms: C_1  and  C_2
REMARK    2  A    between atoms: C_4  and  C_5
REMARK    3  A    between atoms: C_11  and  C_12
REMARK    4  A    between atoms: N_14  and  C_15
REMARK    5  A    between atoms: C_19  and  C_20
REMARK    6  A    between atoms: C_20  and  N_21
REMARK                            x       y       z     vdW  Elec       q    Type
REMARK                         _______ _______ _______ _____ _____    ______ ____
ROOT
ATOM      1  C   UNL     1       1.328   9.815  18.509  0.00  0.00    +0.000 C 
ATOM      2  O   UNL     1       2.032  10.322  17.660  0.00  0.00    +0.000 OA
ATOM      3  N   UNL     1       0.132  10.376  18.961  0.00  0.00    +0.000 N 
ATOM      4  H   UNL     1      -0.510   9.754  19.440  0.00  0.00    +0.000 HD
ENDROOT
BRANCH   1  11
ATOM      5  C   UNL     1       4.154   5.551  18.722  0.00  0.00    +0.000 A 
ATOM      6  N   UNL     1       4.074   4.512  19.567  0.00  0.00    +0.000 NA
ATOM      7  N   UNL     1       3.104   4.854  20.428  0.00  0.00    +0.000 N 
ATOM      8  C   UNL     1       2.521   6.054  20.161  0.00  0.00    +0.000 A 
ATOM      9  C   UNL     1       1.486   6.751  20.805  0.00  0.00    +0.000 A 
ATOM     10  C   UNL     1       1.103   7.986  20.259  0.00  0.00    +0.000 A 
ATOM     11  C   UNL     1       1.714   8.498  19.108  0.00  0.00    +0.000 A 
ATOM     12  C   UNL     1       2.746   7.771  18.491  0.00  0.00    +0.000 A 
ATOM     13  C   UNL     1       3.160   6.539  19.028  0.00  0.00    +0.000 A 
ATOM     14  H   UNL     1       2.875   4.206  21.178  0.00  0.00    +0.000 HD
BRANCH   5  18
ATOM     15  C   UNL     1       5.602   4.178  14.142  0.00  0.00    +0.000 C 
ATOM     16  C   UNL     1       5.844   4.896  15.435  0.00  0.00    +0.000 A 
ATOM     17  C   UNL     1       4.864   4.925  16.419  0.00  0.00    +0.000 A 
ATOM     18  C   UNL     1       5.140   5.563  17.635  0.00  0.00    +0.000 A 
ATOM     19  C   UNL     1       6.372   6.190  17.797  0.00  0.00    +0.000 A 
ATOM     20  C   UNL     1       7.278   6.133  16.755  0.00  0.00    +0.000 A 
ATOM     21  N   UNL     1       7.046   5.496  15.588  0.00  0.00    +0.000 NA
ENDBRANCH   5  18
ENDBRANCH   1  11
BRANCH   3  22
ATOM     22  C   UNL     1      -0.458  11.558  18.314  0.00  0.00    +0.000 C 
ATOM     23  C   UNL     1      -1.887  11.790  18.828  0.00  0.00    +0.000 C 
ATOM     24  C   UNL     1      -1.913  12.401  20.220  0.00  0.00    +0.000 C 
ATOM     25  C   UNL     1      -1.009  13.628  20.357  0.00  0.00    +0.000 C 
ATOM     26  C   UNL     1       0.464  13.342  19.934  0.00  0.00    +0.000 C 
ATOM     27  C   UNL     1       0.429  12.832  18.479  0.00  0.00    +0.000 C 
BRANCH  26  28
ATOM     28  C   UNL     1       1.498  14.548  20.274  0.00  0.00    +0.000 C 
BRANCH  28  29
ATOM     29  N   UNL     1       1.613  15.491  19.138  0.00  0.00    +0.000 N 
ATOM     30  N   UNL     1       2.828  15.417  18.551  0.00  0.00    +0.000 NA
ATOM     31  C   UNL     1       3.032  16.645  18.116  0.00  0.00    +0.000 A 
ATOM     32  C   UNL     1       1.812  17.200  17.758  0.00  0.00    +0.000 A 
ATOM     33  C   UNL     1       1.484  18.239  16.877  0.00  0.00    +0.000 A 
ATOM     34  C   UNL     1       0.153  18.544  16.678  0.00  0.00    +0.000 A 
ATOM     35  C   UNL     1      -0.813  17.958  17.486  0.00  0.00    +0.000 A 
ATOM     36  C   UNL     1      -0.496  16.949  18.461  0.00  0.00    +0.000 A 
ATOM     37  C   UNL     1       0.846  16.490  18.510  0.00  0.00    +0.000 A 
ENDBRANCH  28  29
ENDBRANCH  26  28
ENDBRANCH   3  22
TORSDOF 5
ENDMDL
MODEL 5
REMARK VINA RESULT:      -9.1      4.204     11.326
REMARK  Name = 
REMARK  6 active torsions:
REMARK  status: ('A' for Active; 'I' for Inactive)
REMARK    1  A    between atoms: C_1  and  C_2
REMARK    2  A    between atoms: C_4  and  C_5
REMARK    3  A    between atoms: C_11  and  C_12
REMARK    4  A    between atoms: N_14  and  C_15
REMARK    5  A    between atoms: C_19  and  C_20
REMARK    6  A    between atoms: C_20  and  N_21
REMARK                            x       y       z     vdW  Elec       q    Type
REMARK                         _______ _______ _______ _____ _____    ______ ____
ROOT
ATOM      1  C   UNL     1      -1.071  11.694  18.409  0.00  0.00    +0.000 C 
ATOM      2  O   UNL     1      -0.476  12.718  18.147  0.00  0.00    +0.000 OA
ATOM      3  N   UNL     1      -0.479  10.589  19.023  0.00  0.00    +0.000 N 
ATOM      4  H   UNL     1      -1.105   9.917  19.452  0.00  0.00    +0.000 HD
ENDROOT
BRANCH   1  11
ATOM      5  C   UNL     1      -6.030  12.336  19.508  0.00  0.00    +0.000 A 
ATOM      6  N   UNL     1      -7.116  11.991  18.800  0.00  0.00    +0.000 NA
ATOM      7  N   UNL     1      -6.624  11.477  17.663  0.00  0.00    +0.000 N 
ATOM      8  C   UNL     1      -5.266  11.438  17.612  0.00  0.00    +0.000 A 
ATOM      9  C   UNL     1      -4.383  10.978  16.621  0.00  0.00    +0.000 A 
ATOM     10  C   UNL     1      -3.009  11.068  16.888  0.00  0.00    +0.000 A 
ATOM     11  C   UNL     1      -2.532  11.581  18.101  0.00  0.00    +0.000 A 
ATOM     12  C   UNL     1      -3.446  12.032  19.069  0.00  0.00    +0.000 A 
ATOM     13  C   UNL     1      -4.828  11.968  18.818  0.00  0.00    +0.000 A 
ATOM     14  H   UNL     1      -7.281  11.153  16.957  0.00  0.00    +0.000 HD
BRANCH   5  18
ATOM     15  C   UNL     1      -4.731  12.688  24.320  0.00  0.00    +0.000 C 
ATOM     16  C   UNL     1      -5.544  13.137  23.144  0.00  0.00    +0.000 A 
ATOM     17  C   UNL     1      -5.350  12.564  21.893  0.00  0.00    +0.000 A 
ATOM     18  C   UNL     1      -6.161  12.971  20.825  0.00  0.00    +0.000 A 
ATOM     19  C   UNL     1      -7.103  13.972  21.044  0.00  0.00    +0.000 A 
ATOM     20  C   UNL     1      -7.210  14.504  22.315  0.00  0.00    +0.000 A 
ATOM     21  N   UNL     1      -6.462  14.104  23.366  0.00  0.00    +0.000 NA
ENDBRANCH   5  18
ENDBRANCH   1  11
BRANCH   3  22
ATOM     22  C   UNL     1       0.891  10.644  19.555  0.00  0.00    +0.000 C 
ATOM     23  C   UNL     1       0.890  10.348  21.062  0.00  0.00    +0.000 C 
ATOM     24  C   UNL     1       0.715   8.867  21.364  0.00  0.00    +0.000 C 
ATOM     25  C   UNL     1       1.667   7.973  20.566  0.00  0.00    +0.000 C 
ATOM     26  C   UNL     1       1.574   8.213  19.029  0.00  0.00    +0.000 C 
ATOM     27  C   UNL     1       1.870   9.706  18.782  0.00  0.00    +0.000 C 
BRANCH  26  28
ATOM     28  C   UNL     1       2.400   7.134  18.138  0.00  0.00    +0.000 C 
BRANCH  28  29
ATOM     29  N   UNL     1       2.845   5.988  18.963  0.00  0.00    +0.000 N 
ATOM     30  N   UNL     1       4.187   5.979  19.120  0.00  0.00    +0.000 NA
ATOM     31  C   UNL     1       4.475   4.695  19.211  0.00  0.00    +0.000 A 
ATOM     32  C   UNL     1       3.420   4.044  19.834  0.00  0.00    +0.000 A 
ATOM     33  C   UNL     1       3.359   2.841  20.549  0.00  0.00    +0.000 A 
ATOM     34  C   UNL     1       2.156   2.464  21.111  0.00  0.00    +0.000 A 
ATOM     35  C   UNL     1       1.002   3.171  20.798  0.00  0.00    +0.000 A 
ATOM     36  C   UNL     1       1.020   4.363  19.994  0.00  0.00    +0.000 A 
ATOM     37  C   UNL     1       2.288   4.861  19.597  0.00  0.00    +0.000 A 
ENDBRANCH  28  29
ENDBRANCH  26  28
ENDBRANCH   3  22
TORSDOF 5
ENDMDL
MODEL 6
REMARK VINA RESULT:      -9.1      4.150     11.150
REMARK  Name = 
REMARK  6 active torsions:
REMARK  status: ('A' for Active; 'I' for Inactive)
REMARK    1  A    between atoms: C_1  and  C_2
REMARK    2  A    between atoms: C_4  and  C_5
REMARK    3  A    between atoms: C_11  and  C_12
REMARK    4  A    between atoms: N_14  and  C_15
REMARK    5  A    between atoms: C_19  and  C_20
REMARK    6  A    between atoms: C_20  and  N_21
REMARK                            x       y       z     vdW  Elec       q    Type
REMARK                         _______ _______ _______ _____ _____    ______ ____
ROOT
ATOM      1  C   UNL     1      -0.972  11.541  18.533  0.00  0.00    +0.000 C 
ATOM      2  O   UNL     1      -0.310  12.517  18.247  0.00  0.00    +0.000 OA
ATOM      3  N   UNL     1      -0.475  10.448  19.245  0.00  0.00    +0.000 N 
ATOM      4  H   UNL     1      -1.159   9.836  19.675  0.00  0.00    +0.000 HD
ENDROOT
BRANCH   1  11
ATOM      5  C   UNL     1      -5.975  12.090  19.475  0.00  0.00    +0.000 A 
ATOM      6  N   UNL     1      -7.027  11.846  18.681  0.00  0.00    +0.000 NA
ATOM      7  N   UNL     1      -6.485  11.474  17.512  0.00  0.00    +0.000 N 
ATOM      8  C   UNL     1      -5.126  11.428  17.518  0.00  0.00    +0.000 A 
ATOM      9  C   UNL     1      -4.200  11.087  16.519  0.00  0.00    +0.000 A 
ATOM     10  C   UNL     1      -2.839  11.130  16.858  0.00  0.00    +0.000 A 
ATOM     11  C   UNL     1      -2.418  11.482  18.146  0.00  0.00    +0.000 A 
ATOM     12  C   UNL     1      -3.374  11.817  19.121  0.00  0.00    +0.000 A 
ATOM     13  C   UNL     1      -4.743  11.798  18.801  0.00  0.00    +0.000 A 
ATOM     14  H   UNL     1      -7.110  11.247  16.742  0.00  0.00    +0.000 HD
BRANCH   5  18
ATOM     15  C   UNL     1      -4.156  13.107  24.016  0.00  0.00    +0.000 C 
ATOM     16  C   UNL     1      -5.294  13.037  23.043  0.00  0.00    +0.000 A 
ATOM     17  C   UNL     1      -5.072  12.658  21.726  0.00  0.00    +0.000 A 
ATOM     18  C   UNL     1      -6.164  12.556  20.854  0.00  0.00    +0.000 A 
ATOM     19  C   UNL     1      -7.431  12.885  21.327  0.00  0.00    +0.000 A 
ATOM     20  C   UNL     1      -7.556  13.278  22.647  0.00  0.00    +0.000 A 
ATOM     21  N   UNL     1      -6.522  13.351  23.513  0.00  0.00    +0.000 NA
ENDBRANCH   5  18
ENDBRANCH   1  11
BRANCH   3  22
ATOM     22  C   UNL     1       0.865  10.468  19.853  0.00  0.00    +0.000 C 
ATOM     23  C   UNL     1       0.858   9.701  21.183  0.00  0.00    +0.000 C 
ATOM     24  C   UNL     1       0.850   8.193  20.986  0.00  0.00    +0.000 C 
ATOM     25  C   UNL     1       1.921   7.707  20.007  0.00  0.00    +0.000 C 
ATOM     26  C   UNL     1       1.842   8.421  18.623  0.00  0.00    +0.000 C 
ATOM     27  C   UNL     1       1.967   9.936  18.885  0.00  0.00    +0.000 C 
BRANCH  26  28
ATOM     28  C   UNL     1       2.813   7.780  17.489  0.00  0.00    +0.000 C 
BRANCH  28  29
ATOM     29  N   UNL     1       3.259   6.421  17.873  0.00  0.00    +0.000 N 
ATOM     30  N   UNL     1       4.561   6.407  18.233  0.00  0.00    +0.000 NA
ATOM     31  C   UNL     1       4.965   5.205  17.872  0.00  0.00    +0.000 A 
ATOM     32  C   UNL     1       3.908   4.318  18.014  0.00  0.00    +0.000 A 
ATOM     33  C   UNL     1       3.876   2.929  18.194  0.00  0.00    +0.000 A 
ATOM     34  C   UNL     1       2.654   2.310  18.362  0.00  0.00    +0.000 A 
ATOM     35  C   UNL     1       1.486   3.033  18.158  0.00  0.00    +0.000 A 
ATOM     36  C   UNL     1       1.489   4.445  17.886  0.00  0.00    +0.000 A 
ATOM     37  C   UNL     1       2.741   5.113  17.926  0.00  0.00    +0.000 A 
ENDBRANCH  28  29
ENDBRANCH  26  28
ENDBRANCH   3  22
TORSDOF 5
ENDMDL
MODEL 7
REMARK VINA RESULT:      -9.0      3.927     10.768
REMARK  Name = 
REMARK  6 active torsions:
REMARK  status: ('A' for Active; 'I' for Inactive)
REMARK    1  A    between atoms: C_1  and  C_2
REMARK    2  A    between atoms: C_4  and  C_5
REMARK    3  A    between atoms: C_11  and  C_12
REMARK    4  A    between atoms: N_14  and  C_15
REMARK    5  A    between atoms: C_19  and  C_20
REMARK    6  A    between atoms: C_20  and  N_21
REMARK                            x       y       z     vdW  Elec       q    Type
REMARK                         _______ _______ _______ _____ _____    ______ ____
ROOT
ATOM      1  C   UNL     1      -0.158  10.690  18.538  0.00  0.00    +0.000 C 
ATOM      2  O   UNL     1       0.391  11.681  18.972  0.00  0.00    +0.000 OA
ATOM      3  N   UNL     1       0.432   9.425  18.512  0.00  0.00    +0.000 N 
ATOM      4  H   UNL     1      -0.193   8.633  18.407  0.00  0.00    +0.000 HD
ENDROOT
BRANCH   1  11
ATOM      5  C   UNL     1      -5.107  11.933  18.960  0.00  0.00    +0.000 A 
ATOM      6  N   UNL     1      -6.110  11.761  18.087  0.00  0.00    +0.000 NA
ATOM      7  N   UNL     1      -5.524  11.232  17.003  0.00  0.00    +0.000 N 
ATOM      8  C   UNL     1      -4.188  11.017  17.142  0.00  0.00    +0.000 A 
ATOM      9  C   UNL     1      -3.233  10.484  16.262  0.00  0.00    +0.000 A 
ATOM     10  C   UNL     1      -1.913  10.383  16.725  0.00  0.00    +0.000 A 
ATOM     11  C   UNL     1      -1.560  10.781  18.020  0.00  0.00    +0.000 A 
ATOM     12  C   UNL     1      -2.544  11.310  18.874  0.00  0.00    +0.000 A 
ATOM     13  C   UNL     1      -3.871  11.437  18.427  0.00  0.00    +0.000 A 
ATOM     14  H   UNL     1      -6.105  11.024  16.194  0.00  0.00    +0.000 HD
BRANCH   5  18
ATOM     15  C   UNL     1      -7.881  12.374  23.092  0.00  0.00    +0.000 C 
ATOM     16  C   UNL     1      -6.688  12.749  22.265  0.00  0.00    +0.000 A 
ATOM     17  C   UNL     1      -6.447  12.120  21.051  0.00  0.00    +0.000 A 
ATOM     18  C   UNL     1      -5.351  12.528  20.279  0.00  0.00    +0.000 A 
ATOM     19  C   UNL     1      -4.512  13.519  20.780  0.00  0.00    +0.000 A 
ATOM     20  C   UNL     1      -4.815  14.073  22.010  0.00  0.00    +0.000 A 
ATOM     21  N   UNL     1      -5.883  13.718  22.755  0.00  0.00    +0.000 NA
ENDBRANCH   5  18
ENDBRANCH   1  11
BRANCH   3  22
ATOM     22  C   UNL     1       1.721   9.161  19.170  0.00  0.00    +0.000 C 
ATOM     23  C   UNL     1       1.508   8.868  20.662  0.00  0.00    +0.000 C 
ATOM     24  C   UNL     1       0.972   7.466  20.909  0.00  0.00    +0.000 C 
ATOM     25  C   UNL     1       1.765   6.380  20.180  0.00  0.00    +0.000 C 
ATOM     26  C   UNL     1       1.876   6.640  18.647  0.00  0.00    +0.000 C 
ATOM     27  C   UNL     1       2.528   8.026  18.466  0.00  0.00    +0.000 C 
BRANCH  26  28
ATOM     28  C   UNL     1       2.515   5.403  17.809  0.00  0.00    +0.000 C 
BRANCH  28  29
ATOM     29  N   UNL     1       3.941   5.202  18.154  0.00  0.00    +0.000 N 
ATOM     30  N   UNL     1       4.127   4.062  18.854  0.00  0.00    +0.000 NA
ATOM     31  C   UNL     1       5.153   4.345  19.632  0.00  0.00    +0.000 A 
ATOM     32  C   UNL     1       5.994   5.221  18.960  0.00  0.00    +0.000 A 
ATOM     33  C   UNL     1       7.360   5.496  19.103  0.00  0.00    +0.000 A 
ATOM     34  C   UNL     1       7.949   6.397  18.240  0.00  0.00    +0.000 A 
ATOM     35  C   UNL     1       7.153   7.150  17.387  0.00  0.00    +0.000 A 
ATOM     36  C   UNL     1       5.733   6.950  17.279  0.00  0.00    +0.000 A 
ATOM     37  C   UNL     1       5.168   5.877  18.016  0.00  0.00    +0.000 A 
ENDBRANCH  28  29
ENDBRANCH  26  28
ENDBRANCH   3  22
TORSDOF 5
ENDMDL
MODEL 8
REMARK VINA RESULT:      -8.9      1.212      1.794
REMARK  Name = 
REMARK  6 active torsions:
REMARK  status: ('A' for Active; 'I' for Inactive)
REMARK    1  A    between atoms: C_1  and  C_2
REMARK    2  A    between atoms: C_4  and  C_5
REMARK    3  A    between atoms: C_11  and  C_12
REMARK    4  A    between atoms: N_14  and  C_15
REMARK    5  A    between atoms: C_19  and  C_20
REMARK    6  A    between atoms: C_20  and  N_21
REMARK                            x       y       z     vdW  Elec       q    Type
REMARK                         _______ _______ _______ _____ _____    ______ ____
ROOT
ATOM      1  C   UNL     1       1.817   8.886  18.457  0.00  0.00    +0.000 C 
ATOM      2  O   UNL     1       2.198   9.343  17.399  0.00  0.00    +0.000 OA
ATOM      3  N   UNL     1       0.937   9.547  19.316  0.00  0.00    +0.000 N 
ATOM      4  H   UNL     1       0.465   8.978  20.009  0.00  0.00    +0.000 HD
ENDROOT
BRANCH   1  11
ATOM      5  C   UNL     1       4.698   4.678  17.996  0.00  0.00    +0.000 A 
ATOM      6  N   UNL     1       4.705   3.560  18.737  0.00  0.00    +0.000 NA
ATOM      7  N   UNL     1       3.812   3.797  19.709  0.00  0.00    +0.000 N 
ATOM      8  C   UNL     1       3.194   5.005  19.615  0.00  0.00    +0.000 A 
ATOM      9  C   UNL     1       2.214   5.616  20.414  0.00  0.00    +0.000 A 
ATOM     10  C   UNL     1       1.770   6.890  20.030  0.00  0.00    +0.000 A 
ATOM     11  C   UNL     1       2.269   7.524  18.886  0.00  0.00    +0.000 A 
ATOM     12  C   UNL     1       3.251   6.882  18.111  0.00  0.00    +0.000 A 
ATOM     13  C   UNL     1       3.725   5.612  18.484  0.00  0.00    +0.000 A 
ATOM     14  H   UNL     1       3.658   3.075  20.409  0.00  0.00    +0.000 HD
BRANCH   5  18
ATOM     15  C   UNL     1       5.828   3.651  13.239  0.00  0.00    +0.000 C 
ATOM     16  C   UNL     1       6.134   4.316  14.547  0.00  0.00    +0.000 A 
ATOM     17  C   UNL     1       5.244   4.225  15.609  0.00  0.00    +0.000 A 
ATOM     18  C   UNL     1       5.582   4.816  16.834  0.00  0.00    +0.000 A 
ATOM     19  C   UNL     1       6.780   5.519  16.928  0.00  0.00    +0.000 A 
ATOM     20  C   UNL     1       7.594   5.580  15.813  0.00  0.00    +0.000 A 
ATOM     21  N   UNL     1       7.303   4.990  14.634  0.00  0.00    +0.000 NA
ENDBRANCH   5  18
ENDBRANCH   1  11
BRANCH   3  22
ATOM     22  C   UNL     1       0.267  10.795  18.921  0.00  0.00    +0.000 C 
ATOM     23  C   UNL     1      -1.078  10.933  19.652  0.00  0.00    +0.000 C 
ATOM     24  C   UNL     1      -0.911  11.352  21.104  0.00  0.00    +0.000 C 
ATOM     25  C   UNL     1       0.006  12.564  21.280  0.00  0.00    +0.000 C 
ATOM     26  C   UNL     1       1.406  12.362  20.624  0.00  0.00    +0.000 C 
ATOM     27  C   UNL     1       1.170  12.050  19.133  0.00  0.00    +0.000 C 
BRANCH  26  28
ATOM     28  C   UNL     1       2.479  13.530  20.979  0.00  0.00    +0.000 C 
BRANCH  28  29
ATOM     29  N   UNL     1       1.825  14.856  21.047  0.00  0.00    +0.000 N 
ATOM     30  N   UNL     1       1.856  15.364  22.298  0.00  0.00    +0.000 NA
ATOM     31  C   UNL     1       0.749  16.077  22.366  0.00  0.00    +0.000 A 
ATOM     32  C   UNL     1       0.479  16.602  21.111  0.00  0.00    +0.000 A 
ATOM     33  C   UNL     1      -0.264  17.720  20.709  0.00  0.00    +0.000 A 
ATOM     34  C   UNL     1      -0.315  18.035  19.367  0.00  0.00    +0.000 A 
ATOM     35  C   UNL     1       0.198  17.143  18.434  0.00  0.00    +0.000 A 
ATOM     36  C   UNL     1       0.891  15.942  18.814  0.00  0.00    +0.000 A 
ATOM     37  C   UNL     1       1.124  15.735  20.198  0.00  0.00    +0.000 A 
ENDBRANCH  28  29
ENDBRANCH  26  28
ENDBRANCH   3  22
TORSDOF 5
ENDMDL
MODEL 9
REMARK VINA RESULT:      -8.8      3.764     10.816
REMARK  Name = 
REMARK  6 active torsions:
REMARK  status: ('A' for Active; 'I' for Inactive)
REMARK    1  A    between atoms: C_1  and  C_2
REMARK    2  A    between atoms: C_4  and  C_5
REMARK    3  A    between atoms: C_11  and  C_12
REMARK    4  A    between atoms: N_14  and  C_15
REMARK    5  A    between atoms: C_19  and  C_20
REMARK    6  A    between atoms: C_20  and  N_21
REMARK                            x       y       z     vdW  Elec       q    Type
REMARK                         _______ _______ _______ _____ _____    ______ ____
ROOT
ATOM      1  C   UNL     1       0.192  10.158  18.520  0.00  0.00    +0.000 C 
ATOM      2  O   UNL     1       0.738  11.047  19.141  0.00  0.00    +0.000 OA
ATOM      3  N   UNL     1       0.785   8.923  18.252  0.00  0.00    +0.000 N 
ATOM      4  H   UNL     1       0.162   8.167  17.991  0.00  0.00    +0.000 HD
ENDROOT
BRANCH   1  11
ATOM      5  C   UNL     1      -4.578  11.980  18.894  0.00  0.00    +0.000 A 
ATOM      6  N   UNL     1      -5.621  11.825  18.066  0.00  0.00    +0.000 NA
ATOM      7  N   UNL     1      -5.129  11.119  17.036  0.00  0.00    +0.000 N 
ATOM      8  C   UNL     1      -3.821  10.774  17.173  0.00  0.00    +0.000 A 
ATOM      9  C   UNL     1      -2.957  10.046  16.340  0.00  0.00    +0.000 A 
ATOM     10  C   UNL     1      -1.641   9.851  16.786  0.00  0.00    +0.000 A 
ATOM     11  C   UNL     1      -1.207  10.347  18.022  0.00  0.00    +0.000 A 
ATOM     12  C   UNL     1      -2.101  11.071  18.830  0.00  0.00    +0.000 A 
ATOM     13  C   UNL     1      -3.420  11.295  18.397  0.00  0.00    +0.000 A 
ATOM     14  H   UNL     1      -5.754  10.890  16.267  0.00  0.00    +0.000 HD
BRANCH   5  18
ATOM     15  C   UNL     1      -2.809  15.281  22.201  0.00  0.00    +0.000 C 
ATOM     16  C   UNL     1      -3.862  14.319  21.742  0.00  0.00    +0.000 A 
ATOM     17  C   UNL     1      -3.738  13.668  20.521  0.00  0.00    +0.000 A 
ATOM     18  C   UNL     1      -4.715  12.737  20.143  0.00  0.00    +0.000 A 
ATOM     19  C   UNL     1      -5.805  12.534  20.985  0.00  0.00    +0.000 A 
ATOM     20  C   UNL     1      -5.860  13.245  22.169  0.00  0.00    +0.000 A 
ATOM     21  N   UNL     1      -4.914  14.121  22.568  0.00  0.00    +0.000 NA
ENDBRANCH   5  18
ENDBRANCH   1  11
BRANCH   3  22
ATOM     22  C   UNL     1       2.071   8.538  18.852  0.00  0.00    +0.000 C 
ATOM     23  C   UNL     1       1.923   8.376  20.373  0.00  0.00    +0.000 C 
ATOM     24  C   UNL     1       1.231   7.077  20.755  0.00  0.00    +0.000 C 
ATOM     25  C   UNL     1       1.830   5.849  20.065  0.00  0.00    +0.000 C 
ATOM     26  C   UNL     1       1.872   5.989  18.513  0.00  0.00    +0.000 C 
ATOM     27  C   UNL     1       2.680   7.262  18.192  0.00  0.00    +0.000 C 
BRANCH  26  28
ATOM     28  C   UNL     1       2.292   4.625  17.736  0.00  0.00    +0.000 C 
BRANCH  28  29
ATOM     29  N   UNL     1       3.760   4.432  17.750  0.00  0.00    +0.000 N 
ATOM     30  N   UNL     1       4.187   3.942  18.934  0.00  0.00    +0.000 NA
ATOM     31  C   UNL     1       5.394   4.456  19.060  0.00  0.00    +0.000 A 
ATOM     32  C   UNL     1       5.960   4.580  17.799  0.00  0.00    +0.000 A 
ATOM     33  C   UNL     1       7.295   4.643  17.380  0.00  0.00    +0.000 A 
ATOM     34  C   UNL     1       7.563   4.713  16.028  0.00  0.00    +0.000 A 
ATOM     35  C   UNL     1       6.520   4.916  15.133  0.00  0.00    +0.000 A 
ATOM     36  C   UNL     1       5.143   4.942  15.545  0.00  0.00    +0.000 A 
ATOM     37  C   UNL     1       4.865   4.657  16.907  0.00  0.00    +0.000 A 
ENDBRANCH  28  29
ENDBRANCH  26  28
ENDBRANCH   3  22
TORSDOF 5
ENDMDL
