MODEL 1
REMARK VINA RESULT:      -8.0      0.000      0.000
REMARK  Name = 
REMARK  4 active torsions:
REMARK  status: ('A' for Active; 'I' for Inactive)
REMARK    1  A    between atoms: C_1  and  C_2
REMARK    2  A    between atoms: C_4  and  C_5
REMARK    3  A    between atoms: N_10  and  N_11
REMARK    4  A    between atoms: C_14  and  C_15
REMARK                            x       y       z     vdW  Elec       q    Type
REMARK                         _______ _______ _______ _____ _____    ______ ____
ROOT
ATOM      1  C   UNL     1       2.066  13.381  18.030  0.00  0.00    +0.000 C 
ATOM      2  C   UNL     1       1.242  12.757  19.117  0.00  0.00    +0.000 A 
ATOM      3  C   UNL     1       0.198  13.464  19.762  0.00  0.00    +0.000 A 
ATOM      4  C   UNL     1      -0.599  12.875  20.772  0.00  0.00    +0.000 A 
ATOM      5  C   UNL     1      -1.694  13.657  21.429  0.00  0.00    +0.000 C 
ATOM      6  C   UNL     1      -0.317  11.561  21.102  0.00  0.00    +0.000 A 
ATOM      7  C   UNL     1       0.725  10.891  20.472  0.00  0.00    +0.000 A 
ATOM      8  C   UNL     1       1.510  11.440  19.483  0.00  0.00    +0.000 A 
ATOM      9  C   UNL     1       0.758   9.541  20.997  0.00  0.00    +0.000 C 
ATOM     10  N   UNL     1       1.607   8.660  20.591  0.00  0.00    +0.000 NA
ATOM     11  C   UNL     1      -0.385   9.452  21.998  0.00  0.00    +0.000 C 
ATOM     12  O   UNL     1      -0.694   8.453  22.614  0.00  0.00    +0.000 OA
ATOM     13  N   UNL     1      -0.958  10.716  22.011  0.00  0.00    +0.000 N 
ATOM     14  H   UNL     1      -1.762  10.952  22.576  0.00  0.00    +0.000 HD
ENDROOT
BRANCH  10  15
ATOM     15  N   UNL     1       1.509   7.385  21.042  0.00  0.00    +0.000 N 
ATOM     16  C   UNL     1       1.965   6.369  20.259  0.00  0.00    +0.000 A 
ATOM     17  N   UNL     1       2.839   6.493  19.278  0.00  0.00    +0.000 NA
ATOM     18  C   UNL     1       3.035   5.288  18.630  0.00  0.00    +0.000 A 
ATOM     19  C   UNL     1       2.248   4.257  19.100  0.00  0.00    +0.000 A 
ATOM     20  S   UNL     1       1.338   4.777  20.456  0.00  0.00    +0.000 S 
ATOM     21  H   UNL     1       0.794   7.156  21.739  0.00  0.00    +0.000 HD
BRANCH  18  22
ATOM     22  C   UNL     1       4.004   5.161  17.543  0.00  0.00    +0.000 A 
ATOM     23  C   UNL     1       4.509   6.290  16.877  0.00  0.00    +0.000 A 
ATOM     24  C   UNL     1       5.398   6.155  15.807  0.00  0.00    +0.000 A 
ATOM     25  C   UNL     1       5.793   4.886  15.392  0.00  0.00    +0.000 A 
ATOM     26 BR   UNL     1       6.972   4.709  13.925  0.00  0.00    +0.000 Br
ATOM     27  C   UNL     1       5.312   3.752  16.041  0.00  0.00    +0.000 A 
ATOM     28  C   UNL     1       4.418   3.890  17.111  0.00  0.00    +0.000 A 
ENDBRANCH  18  22
ENDBRANCH  10  15
TORSDOF 2
ENDMDL
MODEL 2
REMARK VINA RESULT:      -7.9      3.946      4.733
REMARK  Name = 
REMARK  4 active torsions:
REMARK  status: ('A' for Active; 'I' for Inactive)
REMARK    1  A    between atoms: C_1  and  C_2
REMARK    2  A    between atoms: C_4  and  C_5
REMARK    3  A    between atoms: N_10  and  N_11
REMARK    4  A    between atoms: C_14  and  C_15
REMARK                            x       y       z     vdW  Elec       q    Type
REMARK                         _______ _______ _______ _____ _____    ______ ____
ROOT
ATOM      1  C   UNL     1      -3.045  10.006  14.131  0.00  0.00    +0.000 C 
ATOM      2  C   UNL     1      -3.319  10.648  15.459  0.00  0.00    +0.000 A 
ATOM      3  C   UNL     1      -4.588  11.188  15.780  0.00  0.00    +0.000 A 
ATOM      4  C   UNL     1      -4.860  11.775  17.039  0.00  0.00    +0.000 A 
ATOM      5  C   UNL     1      -6.216  12.334  17.339  0.00  0.00    +0.000 C 
ATOM      6  C   UNL     1      -3.824  11.794  17.955  0.00  0.00    +0.000 A 
ATOM      7  C   UNL     1      -2.580  11.278  17.614  0.00  0.00    +0.000 A 
ATOM      8  C   UNL     1      -2.292  10.696  16.399  0.00  0.00    +0.000 A 
ATOM      9  C   UNL     1      -1.718  11.409  18.771  0.00  0.00    +0.000 C 
ATOM     10  N   UNL     1      -0.497  10.997  18.777  0.00  0.00    +0.000 NA
ATOM     11  C   UNL     1      -2.574  12.040  19.861  0.00  0.00    +0.000 C 
ATOM     12  O   UNL     1      -2.201  12.267  20.993  0.00  0.00    +0.000 OA
ATOM     13  N   UNL     1      -3.812  12.256  19.273  0.00  0.00    +0.000 N 
ATOM     14  H   UNL     1      -4.598  12.651  19.771  0.00  0.00    +0.000 HD
ENDROOT
BRANCH  10  15
ATOM     15  N   UNL     1       0.216  11.047  19.929  0.00  0.00    +0.000 N 
ATOM     16  C   UNL     1       0.809   9.912  20.390  0.00  0.00    +0.000 A 
ATOM     17  N   UNL     1       1.098   8.850  19.662  0.00  0.00    +0.000 NA
ATOM     18  C   UNL     1       1.626   7.838  20.442  0.00  0.00    +0.000 A 
ATOM     19  C   UNL     1       1.677   8.130  21.789  0.00  0.00    +0.000 A 
ATOM     20  S   UNL     1       1.171   9.744  22.066  0.00  0.00    +0.000 S 
ATOM     21  H   UNL     1       0.006  11.778  20.614  0.00  0.00    +0.000 HD
BRANCH  18  22
ATOM     22  C   UNL     1       2.077   6.580  19.849  0.00  0.00    +0.000 A 
ATOM     23  C   UNL     1       2.720   6.549  18.601  0.00  0.00    +0.000 A 
ATOM     24  C   UNL     1       3.105   5.336  18.021  0.00  0.00    +0.000 A 
ATOM     25  C   UNL     1       2.850   4.140  18.687  0.00  0.00    +0.000 A 
ATOM     26 BR   UNL     1       3.346   2.502  17.884  0.00  0.00    +0.000 Br
ATOM     27  C   UNL     1       2.221   4.146  19.929  0.00  0.00    +0.000 A 
ATOM     28  C   UNL     1       1.833   5.362  20.505  0.00  0.00    +0.000 A 
ENDBRANCH  18  22
ENDBRANCH  10  15
TORSDOF 2
ENDMDL
MODEL 3
REMARK VINA RESULT:      -7.8      1.577      1.923
REMARK  Name = 
REMARK  4 active torsions:
REMARK  status: ('A' for Active; 'I' for Inactive)
REMARK    1  A    between atoms: C_1  and  C_2
REMARK    2  A    between atoms: C_4  and  C_5
REMARK    3  A    between atoms: N_10  and  N_11
REMARK    4  A    between atoms: C_14  and  C_15
REMARK                            x       y       z     vdW  Elec       q    Type
REMARK                         _______ _______ _______ _____ _____    ______ ____
ROOT
ATOM      1  C   UNL     1      -2.267  10.926  16.612  0.00  0.00    +0.000 C 
ATOM      2  C   UNL     1      -1.657  11.074  17.974  0.00  0.00    +0.000 A 
ATOM      3  C   UNL     1      -1.858  12.234  18.761  0.00  0.00    +0.000 A 
ATOM      4  C   UNL     1      -1.305  12.371  20.056  0.00  0.00    +0.000 A 
ATOM      5  C   UNL     1      -1.543  13.613  20.856  0.00  0.00    +0.000 C 
ATOM      6  C   UNL     1      -0.554  11.309  20.529  0.00  0.00    +0.000 A 
ATOM      7  C   UNL     1      -0.351  10.188  19.734  0.00  0.00    +0.000 A 
ATOM      8  C   UNL     1      -0.883  10.028  18.473  0.00  0.00    +0.000 A 
ATOM      9  C   UNL     1       0.438   9.244  20.500  0.00  0.00    +0.000 C 
ATOM     10  N   UNL     1       0.776   8.089  20.039  0.00  0.00    +0.000 NA
ATOM     11  C   UNL     1       0.675   9.898  21.853  0.00  0.00    +0.000 C 
ATOM     12  O   UNL     1       1.269   9.385  22.779  0.00  0.00    +0.000 OA
ATOM     13  N   UNL     1       0.064  11.141  21.770  0.00  0.00    +0.000 N 
ATOM     14  H   UNL     1       0.042  11.798  22.538  0.00  0.00    +0.000 HD
ENDROOT
BRANCH  10  15
ATOM     15  N   UNL     1       1.416   7.211  20.851  0.00  0.00    +0.000 N 
ATOM     16  C   UNL     1       2.228   6.270  20.298  0.00  0.00    +0.000 A 
ATOM     17  N   UNL     1       2.774   6.340  19.099  0.00  0.00    +0.000 NA
ATOM     18  C   UNL     1       3.484   5.190  18.806  0.00  0.00    +0.000 A 
ATOM     19  C   UNL     1       3.417   4.219  19.783  0.00  0.00    +0.000 A 
ATOM     20  S   UNL     1       2.554   4.804  21.143  0.00  0.00    +0.000 S 
ATOM     21  H   UNL     1       1.022   7.008  21.774  0.00  0.00    +0.000 HD
BRANCH  18  22
ATOM     22  C   UNL     1       4.227   5.056  17.554  0.00  0.00    +0.000 A 
ATOM     23  C   UNL     1       4.634   3.799  17.076  0.00  0.00    +0.000 A 
ATOM     24  C   UNL     1       5.385   3.685  15.902  0.00  0.00    +0.000 A 
ATOM     25  C   UNL     1       5.737   4.831  15.193  0.00  0.00    +0.000 A 
ATOM     26 BR   UNL     1       6.778   4.674  13.623  0.00  0.00    +0.000 Br
ATOM     27  C   UNL     1       5.338   6.088  15.643  0.00  0.00    +0.000 A 
ATOM     28  C   UNL     1       4.589   6.198  16.821  0.00  0.00    +0.000 A 
ENDBRANCH  18  22
ENDBRANCH  10  15
TORSDOF 2
ENDMDL
MODEL 4
REMARK VINA RESULT:      -7.6      3.858      4.217
REMARK  Name = 
REMARK  4 active torsions:
REMARK  status: ('A' for Active; 'I' for Inactive)
REMARK    1  A    between atoms: C_1  and  C_2
REMARK    2  A    between atoms: C_4  and  C_5
REMARK    3  A    between atoms: N_10  and  N_11
REMARK    4  A    between atoms: C_14  and  C_15
REMARK                            x       y       z     vdW  Elec       q    Type
REMARK                         _______ _______ _______ _____ _____    ______ ____
ROOT
ATOM      1  C   UNL     1      -3.225   9.823  13.757  0.00  0.00    +0.000 C 
ATOM      2  C   UNL     1      -3.381  10.469  15.101  0.00  0.00    +0.000 A 
ATOM      3  C   UNL     1      -4.521  11.242  15.432  0.00  0.00    +0.000 A 
ATOM      4  C   UNL     1      -4.686  11.835  16.706  0.00  0.00    +0.000 A 
ATOM      5  C   UNL     1      -5.906  12.643  17.015  0.00  0.00    +0.000 C 
ATOM      6  C   UNL     1      -3.676  11.621  17.628  0.00  0.00    +0.000 A 
ATOM      7  C   UNL     1      -2.556  10.878  17.278  0.00  0.00    +0.000 A 
ATOM      8  C   UNL     1      -2.375  10.286  16.048  0.00  0.00    +0.000 A 
ATOM      9  C   UNL     1      -1.699  10.802  18.444  0.00  0.00    +0.000 C 
ATOM     10  N   UNL     1      -0.584  10.155  18.444  0.00  0.00    +0.000 NA
ATOM     11  C   UNL     1      -2.425  11.559  19.547  0.00  0.00    +0.000 C 
ATOM     12  O   UNL     1      -2.027  11.675  20.688  0.00  0.00    +0.000 OA
ATOM     13  N   UNL     1      -3.588  12.034  18.960  0.00  0.00    +0.000 N 
ATOM     14  H   UNL     1      -4.286  12.563  19.465  0.00  0.00    +0.000 HD
ENDROOT
BRANCH  10  15
ATOM     15  N   UNL     1       0.112  10.029  19.601  0.00  0.00    +0.000 N 
ATOM     16  C   UNL     1       1.016   9.020  19.722  0.00  0.00    +0.000 A 
ATOM     17  N   UNL     1       1.581   8.374  18.720  0.00  0.00    +0.000 NA
ATOM     18  C   UNL     1       2.397   7.356  19.178  0.00  0.00    +0.000 A 
ATOM     19  C   UNL     1       2.393   7.201  20.548  0.00  0.00    +0.000 A 
ATOM     20  S   UNL     1       1.451   8.431  21.282  0.00  0.00    +0.000 S 
ATOM     21  H   UNL     1      -0.283  10.412  20.464  0.00  0.00    +0.000 HD
BRANCH  18  22
ATOM     22  C   UNL     1       3.177   6.535  18.253  0.00  0.00    +0.000 A 
ATOM     23  C   UNL     1       3.042   5.137  18.224  0.00  0.00    +0.000 A 
ATOM     24  C   UNL     1       3.827   4.357  17.370  0.00  0.00    +0.000 A 
ATOM     25  C   UNL     1       4.757   4.970  16.534  0.00  0.00    +0.000 A 
ATOM     26 BR   UNL     1       5.837   3.908  15.402  0.00  0.00    +0.000 Br
ATOM     27  C   UNL     1       4.903   6.355  16.539  0.00  0.00    +0.000 A 
ATOM     28  C   UNL     1       4.117   7.133  17.399  0.00  0.00    +0.000 A 
ENDBRANCH  18  22
ENDBRANCH  10  15
TORSDOF 2
ENDMDL
MODEL 5
REMARK VINA RESULT:      -7.3      3.667      8.204
REMARK  Name = 
REMARK  4 active torsions:
REMARK  status: ('A' for Active; 'I' for Inactive)
REMARK    1  A    between atoms: C_1  and  C_2
REMARK    2  A    between atoms: C_4  and  C_5
REMARK    3  A    between atoms: N_10  and  N_11
REMARK    4  A    between atoms: C_14  and  C_15
REMARK                            x       y       z     vdW  Elec       q    Type
REMARK                         _______ _______ _______ _____ _____    ______ ____
ROOT
ATOM      1  C   UNL     1       5.530   5.868  15.416  0.00  0.00    +0.000 C 
ATOM      2  C   UNL     1       4.746   5.197  16.504  0.00  0.00    +0.000 A 
ATOM      3  C   UNL     1       4.632   3.787  16.582  0.00  0.00    +0.000 A 
ATOM      4  C   UNL     1       3.913   3.146  17.619  0.00  0.00    +0.000 A 
ATOM      5  C   UNL     1       3.818   1.653  17.666  0.00  0.00    +0.000 C 
ATOM      6  C   UNL     1       3.324   3.963  18.567  0.00  0.00    +0.000 A 
ATOM      7  C   UNL     1       3.429   5.344  18.461  0.00  0.00    +0.000 A 
ATOM      8  C   UNL     1       4.128   5.992  17.466  0.00  0.00    +0.000 A 
ATOM      9  C   UNL     1       2.747   5.924  19.600  0.00  0.00    +0.000 C 
ATOM     10  N   UNL     1       2.687   7.197  19.799  0.00  0.00    +0.000 NA
ATOM     11  C   UNL     1       2.232   4.751  20.422  0.00  0.00    +0.000 C 
ATOM     12  O   UNL     1       1.640   4.848  21.477  0.00  0.00    +0.000 OA
ATOM     13  N   UNL     1       2.605   3.618  19.714  0.00  0.00    +0.000 N 
ATOM     14  H   UNL     1       2.412   2.678  20.034  0.00  0.00    +0.000 HD
ENDROOT
BRANCH  10  15
ATOM     15  N   UNL     1       2.132   7.666  20.944  0.00  0.00    +0.000 N 
ATOM     16  C   UNL     1       1.170   8.625  20.867  0.00  0.00    +0.000 A 
ATOM     17  N   UNL     1       0.434   8.888  19.804  0.00  0.00    +0.000 NA
ATOM     18  C   UNL     1      -0.399   9.968  20.027  0.00  0.00    +0.000 A 
ATOM     19  C   UNL     1      -0.239  10.560  21.263  0.00  0.00    +0.000 A 
ATOM     20  S   UNL     1       0.884   9.672  22.205  0.00  0.00    +0.000 S 
ATOM     21  H   UNL     1       2.661   7.600  21.818  0.00  0.00    +0.000 HD
BRANCH  18  22
ATOM     22  C   UNL     1      -1.351  10.414  19.012  0.00  0.00    +0.000 A 
ATOM     23  C   UNL     1      -2.266  11.448  19.272  0.00  0.00    +0.000 A 
ATOM     24  C   UNL     1      -3.206  11.835  18.311  0.00  0.00    +0.000 A 
ATOM     25  C   UNL     1      -3.237  11.190  17.077  0.00  0.00    +0.000 A 
ATOM     26 BR   UNL     1      -4.529  11.697  15.793  0.00  0.00    +0.000 Br
ATOM     27  C   UNL     1      -2.335  10.167  16.794  0.00  0.00    +0.000 A 
ATOM     28  C   UNL     1      -1.398   9.780  17.760  0.00  0.00    +0.000 A 
ENDBRANCH  18  22
ENDBRANCH  10  15
TORSDOF 2
ENDMDL
MODEL 6
REMARK VINA RESULT:      -7.2      7.421     11.361
REMARK  Name = 
REMARK  4 active torsions:
REMARK  status: ('A' for Active; 'I' for Inactive)
REMARK    1  A    between atoms: C_1  and  C_2
REMARK    2  A    between atoms: C_4  and  C_5
REMARK    3  A    between atoms: N_10  and  N_11
REMARK    4  A    between atoms: C_14  and  C_15
REMARK                            x       y       z     vdW  Elec       q    Type
REMARK                         _______ _______ _______ _____ _____    ______ ____
ROOT
ATOM      1  C   UNL     1      -0.326  10.032  18.602  0.00  0.00    +0.000 C 
ATOM      2  C   UNL     1      -1.631  10.417  17.970  0.00  0.00    +0.000 A 
ATOM      3  C   UNL     1      -1.946  10.067  16.634  0.00  0.00    +0.000 A 
ATOM      4  C   UNL     1      -3.184  10.407  16.039  0.00  0.00    +0.000 A 
ATOM      5  C   UNL     1      -3.478  10.018  14.624  0.00  0.00    +0.000 C 
ATOM      6  C   UNL     1      -4.087  11.098  16.828  0.00  0.00    +0.000 A 
ATOM      7  C   UNL     1      -3.751  11.450  18.129  0.00  0.00    +0.000 A 
ATOM      8  C   UNL     1      -2.556  11.126  18.733  0.00  0.00    +0.000 A 
ATOM      9  C   UNL     1      -4.892  12.129  18.708  0.00  0.00    +0.000 C 
ATOM     10  N   UNL     1      -4.899  12.562  19.922  0.00  0.00    +0.000 NA
ATOM     11  C   UNL     1      -5.966  12.136  17.630  0.00  0.00    +0.000 C 
ATOM     12  O   UNL     1      -7.084  12.588  17.766  0.00  0.00    +0.000 OA
ATOM     13  N   UNL     1      -5.386  11.517  16.533  0.00  0.00    +0.000 N 
ATOM     14  H   UNL     1      -5.877  11.360  15.663  0.00  0.00    +0.000 HD
ENDROOT
BRANCH  10  15
ATOM     15  N   UNL     1      -6.040  13.086  20.435  0.00  0.00    +0.000 N 
ATOM     16  C   UNL     1      -5.995  13.715  21.641  0.00  0.00    +0.000 A 
ATOM     17  N   UNL     1      -4.911  14.217  22.202  0.00  0.00    +0.000 NA
ATOM     18  C   UNL     1      -5.189  14.723  23.459  0.00  0.00    +0.000 A 
ATOM     19  C   UNL     1      -6.494  14.542  23.867  0.00  0.00    +0.000 A 
ATOM     20  S   UNL     1      -7.417  13.838  22.605  0.00  0.00    +0.000 S 
ATOM     21  H   UNL     1      -6.941  12.703  20.139  0.00  0.00    +0.000 HD
BRANCH  18  22
ATOM     22  C   UNL     1      -4.156  15.384  24.255  0.00  0.00    +0.000 A 
ATOM     23  C   UNL     1      -4.215  16.759  24.532  0.00  0.00    +0.000 A 
ATOM     24  C   UNL     1      -3.198  17.391  25.254  0.00  0.00    +0.000 A 
ATOM     25  C   UNL     1      -2.110  16.650  25.708  0.00  0.00    +0.000 A 
ATOM     26 BR   UNL     1      -0.722  17.515  26.658  0.00  0.00    +0.000 Br
ATOM     27  C   UNL     1      -2.033  15.283  25.452  0.00  0.00    +0.000 A 
ATOM     28  C   UNL     1      -3.052  14.654  24.726  0.00  0.00    +0.000 A 
ENDBRANCH  18  22
ENDBRANCH  10  15
TORSDOF 2
ENDMDL
MODEL 7
REMARK VINA RESULT:      -7.2      4.111      7.865
REMARK  Name = 
REMARK  4 active torsions:
REMARK  status: ('A' for Active; 'I' for Inactive)
REMARK    1  A    between atoms: C_1  and  C_2
REMARK    2  A    between atoms: C_4  and  C_5
REMARK    3  A    between atoms: N_10  and  N_11
REMARK    4  A    between atoms: C_14  and  C_15
REMARK                            x       y       z     vdW  Elec       q    Type
REMARK                         _______ _______ _______ _____ _____    ______ ____
ROOT
ATOM      1  C   UNL     1       4.696   6.604  16.685  0.00  0.00    +0.000 C 
ATOM      2  C   UNL     1       3.704   6.879  17.775  0.00  0.00    +0.000 A 
ATOM      3  C   UNL     1       3.469   5.956  18.823  0.00  0.00    +0.000 A 
ATOM      4  C   UNL     1       2.551   6.219  19.867  0.00  0.00    +0.000 A 
ATOM      5  C   UNL     1       2.332   5.216  20.957  0.00  0.00    +0.000 C 
ATOM      6  C   UNL     1       1.888   7.433  19.825  0.00  0.00    +0.000 A 
ATOM      7  C   UNL     1       2.117   8.316  18.777  0.00  0.00    +0.000 A 
ATOM      8  C   UNL     1       3.009   8.087  17.753  0.00  0.00    +0.000 A 
ATOM      9  C   UNL     1       1.315   9.499  19.018  0.00  0.00    +0.000 C 
ATOM     10  N   UNL     1       1.326  10.517  18.228  0.00  0.00    +0.000 NA
ATOM     11  C   UNL     1       0.589   9.251  20.333  0.00  0.00    +0.000 C 
ATOM     12  O   UNL     1      -0.149  10.044  20.880  0.00  0.00    +0.000 OA
ATOM     13  N   UNL     1       0.976   7.980  20.730  0.00  0.00    +0.000 N 
ATOM     14  H   UNL     1       0.664   7.550  21.591  0.00  0.00    +0.000 HD
ENDROOT
BRANCH  10  15
ATOM     15  N   UNL     1       0.639  11.634  18.574  0.00  0.00    +0.000 N 
ATOM     16  C   UNL     1       1.328  12.736  18.976  0.00  0.00    +0.000 A 
ATOM     17  N   UNL     1       2.597  12.985  18.710  0.00  0.00    +0.000 NA
ATOM     18  C   UNL     1       3.017  14.150  19.324  0.00  0.00    +0.000 A 
ATOM     19  C   UNL     1       2.058  14.752  20.112  0.00  0.00    +0.000 A 
ATOM     20  S   UNL     1       0.570  13.912  19.982  0.00  0.00    +0.000 S 
ATOM     21  H   UNL     1      -0.330  11.545  18.891  0.00  0.00    +0.000 HD
BRANCH  18  22
ATOM     22  C   UNL     1       4.371  14.664  19.130  0.00  0.00    +0.000 A 
ATOM     23  C   UNL     1       5.046  14.504  17.909  0.00  0.00    +0.000 A 
ATOM     24  C   UNL     1       6.359  14.957  17.748  0.00  0.00    +0.000 A 
ATOM     25  C   UNL     1       7.011  15.577  18.811  0.00  0.00    +0.000 A 
ATOM     26 BR   UNL     1       8.797  16.160  18.598  0.00  0.00    +0.000 Br
ATOM     27  C   UNL     1       6.360  15.754  20.029  0.00  0.00    +0.000 A 
ATOM     28  C   UNL     1       5.046  15.296  20.187  0.00  0.00    +0.000 A 
ENDBRANCH  18  22
ENDBRANCH  10  15
TORSDOF 2
ENDMDL
MODEL 8
REMARK VINA RESULT:      -7.2      5.770      7.799
REMARK  Name = 
REMARK  4 active torsions:
REMARK  status: ('A' for Active; 'I' for Inactive)
REMARK    1  A    between atoms: C_1  and  C_2
REMARK    2  A    between atoms: C_4  and  C_5
REMARK    3  A    between atoms: N_10  and  N_11
REMARK    4  A    between atoms: C_14  and  C_15
REMARK                            x       y       z     vdW  Elec       q    Type
REMARK                         _______ _______ _______ _____ _____    ______ ____
ROOT
ATOM      1  C   UNL     1       1.956   8.309  17.827  0.00  0.00    +0.000 C 
ATOM      2  C   UNL     1       1.575   9.528  18.613  0.00  0.00    +0.000 A 
ATOM      3  C   UNL     1       0.778   9.445  19.781  0.00  0.00    +0.000 A 
ATOM      4  C   UNL     1       0.434  10.588  20.541  0.00  0.00    +0.000 A 
ATOM      5  C   UNL     1      -0.410  10.456  21.770  0.00  0.00    +0.000 C 
ATOM      6  C   UNL     1       0.920  11.804  20.094  0.00  0.00    +0.000 A 
ATOM      7  C   UNL     1       1.683  11.867  18.934  0.00  0.00    +0.000 A 
ATOM      8  C   UNL     1       2.036  10.769  18.181  0.00  0.00    +0.000 A 
ATOM      9  C   UNL     1       2.068  13.250  18.738  0.00  0.00    +0.000 C 
ATOM     10  N   UNL     1       2.805  13.631  17.752  0.00  0.00    +0.000 NA
ATOM     11  C   UNL     1       1.477  14.019  19.911  0.00  0.00    +0.000 C 
ATOM     12  O   UNL     1       1.626  15.208  20.109  0.00  0.00    +0.000 OA
ATOM     13  N   UNL     1       0.788  13.075  20.657  0.00  0.00    +0.000 N 
ATOM     14  H   UNL     1       0.304  13.295  21.518  0.00  0.00    +0.000 HD
ENDROOT
BRANCH  10  15
ATOM     15  N   UNL     1       3.222  14.920  17.693  0.00  0.00    +0.000 N 
ATOM     16  C   UNL     1       4.507  15.216  18.028  0.00  0.00    +0.000 A 
ATOM     17  N   UNL     1       5.511  14.360  18.039  0.00  0.00    +0.000 NA
ATOM     18  C   UNL     1       6.671  14.957  18.498  0.00  0.00    +0.000 A 
ATOM     19  C   UNL     1       6.514  16.269  18.893  0.00  0.00    +0.000 A 
ATOM     20  S   UNL     1       4.917  16.800  18.567  0.00  0.00    +0.000 S 
ATOM     21  H   UNL     1       2.531  15.672  17.773  0.00  0.00    +0.000 HD
BRANCH  18  22
ATOM     22  C   UNL     1       7.934  14.223  18.546  0.00  0.00    +0.000 A 
ATOM     23  C   UNL     1       8.176  13.129  17.700  0.00  0.00    +0.000 A 
ATOM     24  C   UNL     1       9.368  12.403  17.786  0.00  0.00    +0.000 A 
ATOM     25  C   UNL     1      10.332  12.767  18.723  0.00  0.00    +0.000 A 
ATOM     26 BR   UNL     1      11.929  11.764  18.856  0.00  0.00    +0.000 Br
ATOM     27  C   UNL     1      10.118  13.853  19.568  0.00  0.00    +0.000 A 
ATOM     28  C   UNL     1       8.921  14.575  19.481  0.00  0.00    +0.000 A 
ENDBRANCH  18  22
ENDBRANCH  10  15
TORSDOF 2
ENDMDL
MODEL 9
REMARK VINA RESULT:      -7.0      3.882      7.945
REMARK  Name = 
REMARK  4 active torsions:
REMARK  status: ('A' for Active; 'I' for Inactive)
REMARK    1  A    between atoms: C_1  and  C_2
REMARK    2  A    between atoms: C_4  and  C_5
REMARK    3  A    between atoms: N_10  and  N_11
REMARK    4  A    between atoms: C_14  and  C_15
REMARK                            x       y       z     vdW  Elec       q    Type
REMARK                         _______ _______ _______ _____ _____    ______ ____
ROOT
ATOM      1  C   UNL     1       4.888   6.842  16.165  0.00  0.00    +0.000 C 
ATOM      2  C   UNL     1       4.018   6.811  17.386  0.00  0.00    +0.000 A 
ATOM      3  C   UNL     1       4.062   5.737  18.308  0.00  0.00    +0.000 A 
ATOM      4  C   UNL     1       3.260   5.712  19.474  0.00  0.00    +0.000 A 
ATOM      5  C   UNL     1       3.338   4.558  20.424  0.00  0.00    +0.000 C 
ATOM      6  C   UNL     1       2.426   6.796  19.681  0.00  0.00    +0.000 A 
ATOM      7  C   UNL     1       2.382   7.830  18.754  0.00  0.00    +0.000 A 
ATOM      8  C   UNL     1       3.156   7.881  17.615  0.00  0.00    +0.000 A 
ATOM      9  C   UNL     1       1.452   8.824  19.250  0.00  0.00    +0.000 C 
ATOM     10  N   UNL     1       1.208   9.922  18.620  0.00  0.00    +0.000 NA
ATOM     11  C   UNL     1       0.950   8.298  20.587  0.00  0.00    +0.000 C 
ATOM     12  O   UNL     1       0.181   8.883  21.321  0.00  0.00    +0.000 OA
ATOM     13  N   UNL     1       1.570   7.067  20.751  0.00  0.00    +0.000 N 
ATOM     14  H   UNL     1       1.440   6.488  21.569  0.00  0.00    +0.000 HD
ENDROOT
BRANCH  10  15
ATOM     15  N   UNL     1       0.416  10.858  19.197  0.00  0.00    +0.000 N 
ATOM     16  C   UNL     1       0.977  12.011  19.652  0.00  0.00    +0.000 A 
ATOM     17  N   UNL     1       2.138  12.503  19.262  0.00  0.00    +0.000 NA
ATOM     18  C   UNL     1       2.459  13.647  19.968  0.00  0.00    +0.000 A 
ATOM     19  C   UNL     1       1.546  13.984  20.945  0.00  0.00    +0.000 A 
ATOM     20  S   UNL     1       0.203  12.919  20.895  0.00  0.00    +0.000 S 
ATOM     21  H   UNL     1      -0.470  10.569  19.620  0.00  0.00    +0.000 HD
BRANCH  18  22
ATOM     22  C   UNL     1       3.673  14.406  19.673  0.00  0.00    +0.000 A 
ATOM     23  C   UNL     1       4.412  15.029  20.691  0.00  0.00    +0.000 A 
ATOM     24  C   UNL     1       5.545  15.792  20.394  0.00  0.00    +0.000 A 
ATOM     25  C   UNL     1       5.951  15.937  19.070  0.00  0.00    +0.000 A 
ATOM     26 BR   UNL     1       7.467  16.995  18.670  0.00  0.00    +0.000 Br
ATOM     27  C   UNL     1       5.240  15.323  18.043  0.00  0.00    +0.000 A 
ATOM     28  C   UNL     1       4.103  14.562  18.345  0.00  0.00    +0.000 A 
ENDBRANCH  18  22
ENDBRANCH  10  15
TORSDOF 2
ENDMDL
