MODEL 1
REMARK VINA RESULT:      -6.1      0.000      0.000
REMARK  Name = 
REMARK  7 active torsions:
REMARK  status: ('A' for Active; 'I' for Inactive)
REMARK    1  A    between atoms: C_1  and  O_2
REMARK    2  A    between atoms: O_2  and  C_3
REMARK    3  A    between atoms: C_3  and  C_4
REMARK    4  A    between atoms: C_4  and  N_5
REMARK    5  A    between atoms: C_4  and  C_12
REMARK    6  A    between atoms: N_5  and  C_6
REMARK    7  A    between atoms: N_16  and  C_17
REMARK                            x       y       z     vdW  Elec       q    Type
REMARK                         _______ _______ _______ _____ _____    ______ ____
ROOT
ATOM      1  C   UNL     1       4.444   5.454  17.462  0.00  0.00    +0.000 C 
ENDROOT
BRANCH   1   2
ATOM      2  C   UNL     1       5.578   5.190  16.509  0.00  0.00    +0.000 A 
ATOM      3  C   UNL     1       5.584   5.006  15.134  0.00  0.00    +0.000 A 
ATOM      4  C   UNL     1       6.896   4.628  14.812  0.00  0.00    +0.000 A 
ATOM      5  N   UNL     1       7.700   4.654  15.871  0.00  0.00    +0.000 NA
ATOM      6  N   UNL     1       6.893   5.010  16.892  0.00  0.00    +0.000 N 
ATOM      7  C   UNL     1       7.451   5.081  18.223  0.00  0.00    +0.000 C 
ENDBRANCH   1   2
BRANCH   1   8
ATOM      8  N   UNL     1       3.281   4.563  17.235  0.00  0.00    +0.000 NA
ATOM      9  H   UNL     1       3.537   4.008  16.407  0.00  0.00    +0.000 HD
BRANCH   8  10
ATOM     10  C   UNL     1       2.908   3.602  18.297  0.00  0.00    +0.000 C 
ATOM     11  C   UNL     1       1.455   3.918  18.706  0.00  0.00    +0.000 C 
ATOM     12  C   UNL     1       0.893   2.926  19.721  0.00  0.00    +0.000 C 
ATOM     13  S   UNL     1       1.803   2.945  21.285  0.00  0.00    +0.000 S 
ATOM     14  C   UNL     1       3.458   2.656  20.625  0.00  0.00    +0.000 C 
ATOM     15  C   UNL     1       3.819   3.647  19.531  0.00  0.00    +0.000 C 
ENDBRANCH   8  10
ENDBRANCH   1   8
BRANCH   1  16
ATOM     16  C   UNL     1       4.072   6.963  17.516  0.00  0.00    +0.000 C 
BRANCH  16  18
ATOM     17  C   UNL     1       2.270   8.436  17.827  0.00  0.00    +0.000 C 
ATOM     18  O   UNL     1       2.813   7.165  18.171  0.00  0.00    +0.000 OA
ENDBRANCH  16  18
ENDBRANCH   1  16
TORSDOF 5
ENDMDL
MODEL 2
REMARK VINA RESULT:      -5.8      3.324      6.154
REMARK  Name = 
REMARK  7 active torsions:
REMARK  status: ('A' for Active; 'I' for Inactive)
REMARK    1  A    between atoms: C_1  and  O_2
REMARK    2  A    between atoms: O_2  and  C_3
REMARK    3  A    between atoms: C_3  and  C_4
REMARK    4  A    between atoms: C_4  and  N_5
REMARK    5  A    between atoms: C_4  and  C_12
REMARK    6  A    between atoms: N_5  and  C_6
REMARK    7  A    between atoms: N_16  and  C_17
REMARK                            x       y       z     vdW  Elec       q    Type
REMARK                         _______ _______ _______ _____ _____    ______ ____
ROOT
ATOM      1  C   UNL     1       4.417   2.604  19.823  0.00  0.00    +0.000 C 
ENDROOT
BRANCH   1   2
ATOM      2  C   UNL     1       2.941   2.585  19.532  0.00  0.00    +0.000 A 
ATOM      3  C   UNL     1       2.250   2.281  18.368  0.00  0.00    +0.000 A 
ATOM      4  C   UNL     1       0.910   2.597  18.635  0.00  0.00    +0.000 A 
ATOM      5  N   UNL     1       0.726   2.984  19.894  0.00  0.00    +0.000 NA
ATOM      6  N   UNL     1       1.963   2.959  20.433  0.00  0.00    +0.000 N 
ATOM      7  C   UNL     1       2.131   3.384  21.803  0.00  0.00    +0.000 C 
ENDBRANCH   1   2
BRANCH   1   8
ATOM      8  N   UNL     1       5.222   3.115  18.688  0.00  0.00    +0.000 NA
ATOM      9  H   UNL     1       4.631   2.959  17.859  0.00  0.00    +0.000 HD
BRANCH   8  10
ATOM     10  C   UNL     1       5.604   4.545  18.678  0.00  0.00    +0.000 C 
ATOM     11  C   UNL     1       4.871   5.203  17.491  0.00  0.00    +0.000 C 
ATOM     12  C   UNL     1       5.083   6.714  17.424  0.00  0.00    +0.000 C 
ATOM     13  S   UNL     1       6.819   7.159  17.170  0.00  0.00    +0.000 S 
ATOM     14  C   UNL     1       7.525   6.252  18.562  0.00  0.00    +0.000 C 
ATOM     15  C   UNL     1       7.115   4.789  18.558  0.00  0.00    +0.000 C 
ENDBRANCH   8  10
ENDBRANCH   1   8
BRANCH   1  16
ATOM     16  C   UNL     1       4.917   1.239  20.376  0.00  0.00    +0.000 C 
BRANCH  16  18
ATOM     17  C   UNL     1       6.099   0.153  22.089  0.00  0.00    +0.000 C 
ATOM     18  O   UNL     1       5.587   1.401  21.633  0.00  0.00    +0.000 OA
ENDBRANCH  16  18
ENDBRANCH   1  16
TORSDOF 5
ENDMDL
MODEL 3
REMARK VINA RESULT:      -5.8      2.421      3.365
REMARK  Name = 
REMARK  7 active torsions:
REMARK  status: ('A' for Active; 'I' for Inactive)
REMARK    1  A    between atoms: C_1  and  O_2
REMARK    2  A    between atoms: O_2  and  C_3
REMARK    3  A    between atoms: C_3  and  C_4
REMARK    4  A    between atoms: C_4  and  N_5
REMARK    5  A    between atoms: C_4  and  C_12
REMARK    6  A    between atoms: N_5  and  C_6
REMARK    7  A    between atoms: N_16  and  C_17
REMARK                            x       y       z     vdW  Elec       q    Type
REMARK                         _______ _______ _______ _____ _____    ______ ____
ROOT
ATOM      1  C   UNL     1       5.130   4.368  16.743  0.00  0.00    +0.000 C 
ENDROOT
BRANCH   1   2
ATOM      2  C   UNL     1       6.178   4.808  17.729  0.00  0.00    +0.000 A 
ATOM      3  C   UNL     1       7.562   4.732  17.675  0.00  0.00    +0.000 A 
ATOM      4  C   UNL     1       8.009   5.137  18.942  0.00  0.00    +0.000 A 
ATOM      5  N   UNL     1       7.008   5.533  19.724  0.00  0.00    +0.000 NA
ATOM      6  N   UNL     1       5.904   5.342  18.972  0.00  0.00    +0.000 N 
ATOM      7  C   UNL     1       4.613   5.628  19.554  0.00  0.00    +0.000 C 
ENDBRANCH   1   2
BRANCH   1   8
ATOM      8  N   UNL     1       4.712   2.959  16.937  0.00  0.00    +0.000 NA
ATOM      9  H   UNL     1       5.445   2.549  17.532  0.00  0.00    +0.000 HD
BRANCH   8  10
ATOM     10  C   UNL     1       3.419   2.690  17.604  0.00  0.00    +0.000 C 
ATOM     11  C   UNL     1       2.563   3.966  17.469  0.00  0.00    +0.000 C 
ATOM     12  C   UNL     1       1.148   3.795  18.016  0.00  0.00    +0.000 C 
ATOM     13  S   UNL     1       1.131   3.442  19.792  0.00  0.00    +0.000 S 
ATOM     14  C   UNL     1       2.229   2.009  19.781  0.00  0.00    +0.000 C 
ATOM     15  C   UNL     1       3.546   2.302  19.084  0.00  0.00    +0.000 C 
ENDBRANCH   8  10
ENDBRANCH   1   8
BRANCH   1  16
ATOM     16  C   UNL     1       5.534   4.702  15.279  0.00  0.00    +0.000 C 
BRANCH  16  18
ATOM     17  C   UNL     1       6.187   3.737  13.240  0.00  0.00    +0.000 C 
ATOM     18  O   UNL     1       6.200   3.595  14.657  0.00  0.00    +0.000 OA
ENDBRANCH  16  18
ENDBRANCH   1  16
TORSDOF 5
ENDMDL
MODEL 4
REMARK VINA RESULT:      -5.7      3.292      6.061
REMARK  Name = 
REMARK  7 active torsions:
REMARK  status: ('A' for Active; 'I' for Inactive)
REMARK    1  A    between atoms: C_1  and  O_2
REMARK    2  A    between atoms: O_2  and  C_3
REMARK    3  A    between atoms: C_3  and  C_4
REMARK    4  A    between atoms: C_4  and  N_5
REMARK    5  A    between atoms: C_4  and  C_12
REMARK    6  A    between atoms: N_5  and  C_6
REMARK    7  A    between atoms: N_16  and  C_17
REMARK                            x       y       z     vdW  Elec       q    Type
REMARK                         _______ _______ _______ _____ _____    ______ ____
ROOT
ATOM      1  C   UNL     1       4.473   2.558  20.222  0.00  0.00    +0.000 C 
ENDROOT
BRANCH   1   2
ATOM      2  C   UNL     1       3.048   2.541  19.741  0.00  0.00    +0.000 A 
ATOM      3  C   UNL     1       2.435   1.789  18.749  0.00  0.00    +0.000 A 
ATOM      4  C   UNL     1       1.141   2.316  18.627  0.00  0.00    +0.000 A 
ATOM      5  N   UNL     1       0.898   3.267  19.524  0.00  0.00    +0.000 NA
ATOM      6  N   UNL     1       2.057   3.384  20.204  0.00  0.00    +0.000 N 
ATOM      7  C   UNL     1       2.155   4.389  21.238  0.00  0.00    +0.000 C 
ENDBRANCH   1   2
BRANCH   1   8
ATOM      8  N   UNL     1       5.391   3.245  19.282  0.00  0.00    +0.000 NA
ATOM      9  H   UNL     1       5.862   2.482  18.775  0.00  0.00    +0.000 HD
BRANCH   8  10
ATOM     10  C   UNL     1       4.813   4.146  18.261  0.00  0.00    +0.000 C 
ATOM     11  C   UNL     1       5.709   4.047  17.008  0.00  0.00    +0.000 C 
ATOM     12  C   UNL     1       5.166   4.842  15.823  0.00  0.00    +0.000 C 
ATOM     13  S   UNL     1       5.081   6.619  16.163  0.00  0.00    +0.000 S 
ATOM     14  C   UNL     1       4.097   6.546  17.674  0.00  0.00    +0.000 C 
ATOM     15  C   UNL     1       4.702   5.610  18.707  0.00  0.00    +0.000 C 
ENDBRANCH   8  10
ENDBRANCH   1   8
BRANCH   1  16
ATOM     16  C   UNL     1       4.960   1.142  20.645  0.00  0.00    +0.000 C 
BRANCH  16  18
ATOM     17  C   UNL     1       6.249  -0.095  22.168  0.00  0.00    +0.000 C 
ATOM     18  O   UNL     1       5.773   1.203  21.825  0.00  0.00    +0.000 OA
ENDBRANCH  16  18
ENDBRANCH   1  16
TORSDOF 5
ENDMDL
MODEL 5
REMARK VINA RESULT:      -5.7      0.750      1.303
REMARK  Name = 
REMARK  7 active torsions:
REMARK  status: ('A' for Active; 'I' for Inactive)
REMARK    1  A    between atoms: C_1  and  O_2
REMARK    2  A    between atoms: O_2  and  C_3
REMARK    3  A    between atoms: C_3  and  C_4
REMARK    4  A    between atoms: C_4  and  N_5
REMARK    5  A    between atoms: C_4  and  C_12
REMARK    6  A    between atoms: N_5  and  C_6
REMARK    7  A    between atoms: N_16  and  C_17
REMARK                            x       y       z     vdW  Elec       q    Type
REMARK                         _______ _______ _______ _____ _____    ______ ____
ROOT
ATOM      1  C   UNL     1       4.298   5.685  17.468  0.00  0.00    +0.000 C 
ENDROOT
BRANCH   1   2
ATOM      2  C   UNL     1       5.525   5.313  16.682  0.00  0.00    +0.000 A 
ATOM      3  C   UNL     1       5.686   5.028  15.334  0.00  0.00    +0.000 A 
ATOM      4  C   UNL     1       7.010   4.584  15.201  0.00  0.00    +0.000 A 
ATOM      5  N   UNL     1       7.683   4.662  16.345  0.00  0.00    +0.000 NA
ATOM      6  N   UNL     1       6.777   5.119  17.233  0.00  0.00    +0.000 N 
ATOM      7  C   UNL     1       7.174   5.271  18.614  0.00  0.00    +0.000 C 
ENDBRANCH   1   2
BRANCH   1   8
ATOM      8  N   UNL     1       3.213   4.682  17.352  0.00  0.00    +0.000 NA
ATOM      9  H   UNL     1       3.699   3.792  17.176  0.00  0.00    +0.000 HD
BRANCH   8  10
ATOM     10  C   UNL     1       2.326   4.462  18.516  0.00  0.00    +0.000 C 
ATOM     11  C   UNL     1       3.198   4.581  19.783  0.00  0.00    +0.000 C 
ATOM     12  C   UNL     1       2.390   4.489  21.074  0.00  0.00    +0.000 C 
ATOM     13  S   UNL     1       1.563   2.889  21.260  0.00  0.00    +0.000 S 
ATOM     14  C   UNL     1       0.678   2.871  19.687  0.00  0.00    +0.000 C 
ATOM     15  C   UNL     1       1.604   3.107  18.507  0.00  0.00    +0.000 C 
ENDBRANCH   8  10
ENDBRANCH   1   8
BRANCH   1  16
ATOM     16  C   UNL     1       3.836   7.140  17.169  0.00  0.00    +0.000 C 
BRANCH  16  18
ATOM     17  C   UNL     1       2.126   8.626  17.785  0.00  0.00    +0.000 C 
ATOM     18  O   UNL     1       3.079   7.680  18.260  0.00  0.00    +0.000 OA
ENDBRANCH  16  18
ENDBRANCH   1  16
TORSDOF 5
ENDMDL
MODEL 6
REMARK VINA RESULT:      -5.7      2.820      5.469
REMARK  Name = 
REMARK  7 active torsions:
REMARK  status: ('A' for Active; 'I' for Inactive)
REMARK    1  A    between atoms: C_1  and  O_2
REMARK    2  A    between atoms: O_2  and  C_3
REMARK    3  A    between atoms: C_3  and  C_4
REMARK    4  A    between atoms: C_4  and  N_5
REMARK    5  A    between atoms: C_4  and  C_12
REMARK    6  A    between atoms: N_5  and  C_6
REMARK    7  A    between atoms: N_16  and  C_17
REMARK                            x       y       z     vdW  Elec       q    Type
REMARK                         _______ _______ _______ _____ _____    ______ ____
ROOT
ATOM      1  C   UNL     1       2.991   5.509  19.337  0.00  0.00    +0.000 C 
ENDROOT
BRANCH   1   2
ATOM      2  C   UNL     1       2.308   4.427  20.129  0.00  0.00    +0.000 A 
ATOM      3  C   UNL     1       2.268   4.191  21.495  0.00  0.00    +0.000 A 
ATOM      4  C   UNL     1       1.627   2.952  21.642  0.00  0.00    +0.000 A 
ATOM      5  N   UNL     1       1.201   2.466  20.480  0.00  0.00    +0.000 NA
ATOM      6  N   UNL     1       1.606   3.377  19.571  0.00  0.00    +0.000 N 
ATOM      7  C   UNL     1       1.346   3.122  18.172  0.00  0.00    +0.000 C 
ENDBRANCH   1   2
BRANCH   1   8
ATOM      8  N   UNL     1       4.469   5.458  19.449  0.00  0.00    +0.000 NA
ATOM      9  H   UNL     1       4.646   4.983  20.344  0.00  0.00    +0.000 HD
BRANCH   8  10
ATOM     10  C   UNL     1       5.232   4.724  18.416  0.00  0.00    +0.000 C 
ATOM     11  C   UNL     1       6.640   5.353  18.357  0.00  0.00    +0.000 C 
ATOM     12  C   UNL     1       7.582   4.617  17.407  0.00  0.00    +0.000 C 
ATOM     13  S   UNL     1       7.009   4.662  15.691  0.00  0.00    +0.000 S 
ATOM     14  C   UNL     1       5.353   3.991  15.952  0.00  0.00    +0.000 C 
ATOM     15  C   UNL     1       4.589   4.753  17.022  0.00  0.00    +0.000 C 
ENDBRANCH   8  10
ENDBRANCH   1   8
BRANCH   1  16
ATOM     16  C   UNL     1       2.392   6.913  19.634  0.00  0.00    +0.000 C 
BRANCH  16  18
ATOM     17  C   UNL     1       1.702   8.963  18.721  0.00  0.00    +0.000 C 
ATOM     18  O   UNL     1       2.168   7.650  18.425  0.00  0.00    +0.000 OA
ENDBRANCH  16  18
ENDBRANCH   1  16
TORSDOF 5
ENDMDL
MODEL 7
REMARK VINA RESULT:      -5.7      1.075      1.139
REMARK  Name = 
REMARK  7 active torsions:
REMARK  status: ('A' for Active; 'I' for Inactive)
REMARK    1  A    between atoms: C_1  and  O_2
REMARK    2  A    between atoms: O_2  and  C_3
REMARK    3  A    between atoms: C_3  and  C_4
REMARK    4  A    between atoms: C_4  and  N_5
REMARK    5  A    between atoms: C_4  and  C_12
REMARK    6  A    between atoms: N_5  and  C_6
REMARK    7  A    between atoms: N_16  and  C_17
REMARK                            x       y       z     vdW  Elec       q    Type
REMARK                         _______ _______ _______ _____ _____    ______ ____
ROOT
ATOM      1  C   UNL     1       4.764   4.377  17.335  0.00  0.00    +0.000 C 
ENDROOT
BRANCH   1   2
ATOM      2  C   UNL     1       5.719   4.699  16.219  0.00  0.00    +0.000 A 
ATOM      3  C   UNL     1       5.778   4.234  14.913  0.00  0.00    +0.000 A 
ATOM      4  C   UNL     1       6.973   4.747  14.387  0.00  0.00    +0.000 A 
ATOM      5  N   UNL     1       7.594   5.553  15.243  0.00  0.00    +0.000 NA
ATOM      6  N   UNL     1       6.817   5.528  16.346  0.00  0.00    +0.000 N 
ATOM      7  C   UNL     1       7.242   6.271  17.510  0.00  0.00    +0.000 C 
ENDBRANCH   1   2
BRANCH   1   8
ATOM      8  N   UNL     1       4.362   2.950  17.357  0.00  0.00    +0.000 NA
ATOM      9  H   UNL     1       5.249   2.431  17.409  0.00  0.00    +0.000 HD
BRANCH   8  10
ATOM     10  C   UNL     1       3.517   2.469  18.473  0.00  0.00    +0.000 C 
ATOM     11  C   UNL     1       2.052   2.772  18.097  0.00  0.00    +0.000 C 
ATOM     12  C   UNL     1       1.052   2.224  19.112  0.00  0.00    +0.000 C 
ATOM     13  S   UNL     1       1.248   2.971  20.750  0.00  0.00    +0.000 S 
ATOM     14  C   UNL     1       3.001   2.612  20.989  0.00  0.00    +0.000 C 
ATOM     15  C   UNL     1       3.850   3.106  19.830  0.00  0.00    +0.000 C 
ENDBRANCH   8  10
ENDBRANCH   1   8
BRANCH   1  16
ATOM     16  C   UNL     1       3.562   5.363  17.374  0.00  0.00    +0.000 C 
BRANCH  16  18
ATOM     17  C   UNL     1       3.321   7.661  17.787  0.00  0.00    +0.000 C 
ATOM     18  O   UNL     1       3.788   6.422  18.313  0.00  0.00    +0.000 OA
ENDBRANCH  16  18
ENDBRANCH   1  16
TORSDOF 5
ENDMDL
MODEL 8
REMARK VINA RESULT:      -5.6      2.110      3.550
REMARK  Name = 
REMARK  7 active torsions:
REMARK  status: ('A' for Active; 'I' for Inactive)
REMARK    1  A    between atoms: C_1  and  O_2
REMARK    2  A    between atoms: O_2  and  C_3
REMARK    3  A    between atoms: C_3  and  C_4
REMARK    4  A    between atoms: C_4  and  N_5
REMARK    5  A    between atoms: C_4  and  C_12
REMARK    6  A    between atoms: N_5  and  C_6
REMARK    7  A    between atoms: N_16  and  C_17
REMARK                            x       y       z     vdW  Elec       q    Type
REMARK                         _______ _______ _______ _____ _____    ______ ____
ROOT
ATOM      1  C   UNL     1       5.383   4.069  16.284  0.00  0.00    +0.000 C 
ENDROOT
BRANCH   1   2
ATOM      2  C   UNL     1       6.294   4.945  17.099  0.00  0.00    +0.000 A 
ATOM      3  C   UNL     1       7.520   4.676  17.692  0.00  0.00    +0.000 A 
ATOM      4  C   UNL     1       7.820   5.809  18.462  0.00  0.00    +0.000 A 
ATOM      5  N   UNL     1       6.915   6.773  18.311  0.00  0.00    +0.000 NA
ATOM      6  N   UNL     1       6.002   6.242  17.471  0.00  0.00    +0.000 N 
ATOM      7  C   UNL     1       4.835   7.024  17.135  0.00  0.00    +0.000 C 
ENDBRANCH   1   2
BRANCH   1   8
ATOM      8  N   UNL     1       4.738   3.003  17.087  0.00  0.00    +0.000 NA
ATOM      9  H   UNL     1       5.462   2.706  17.756  0.00  0.00    +0.000 HD
BRANCH   8  10
ATOM     10  C   UNL     1       3.536   3.343  17.881  0.00  0.00    +0.000 C 
ATOM     11  C   UNL     1       3.988   3.497  19.348  0.00  0.00    +0.000 C 
ATOM     12  C   UNL     1       2.866   3.963  20.272  0.00  0.00    +0.000 C 
ATOM     13  S   UNL     1       1.501   2.777  20.355  0.00  0.00    +0.000 S 
ATOM     14  C   UNL     1       1.162   2.647  18.586  0.00  0.00    +0.000 C 
ATOM     15  C   UNL     1       2.409   2.305  17.789  0.00  0.00    +0.000 C 
ENDBRANCH   8  10
ENDBRANCH   1   8
BRANCH   1  16
ATOM     16  C   UNL     1       6.082   3.543  14.998  0.00  0.00    +0.000 C 
BRANCH  16  18
ATOM     17  C   UNL     1       6.065   3.526  12.650  0.00  0.00    +0.000 C 
ATOM     18  O   UNL     1       5.490   4.103  13.818  0.00  0.00    +0.000 OA
ENDBRANCH  16  18
ENDBRANCH   1  16
TORSDOF 5
ENDMDL
MODEL 9
REMARK VINA RESULT:      -5.6      2.772      5.164
REMARK  Name = 
REMARK  7 active torsions:
REMARK  status: ('A' for Active; 'I' for Inactive)
REMARK    1  A    between atoms: C_1  and  O_2
REMARK    2  A    between atoms: O_2  and  C_3
REMARK    3  A    between atoms: C_3  and  C_4
REMARK    4  A    between atoms: C_4  and  N_5
REMARK    5  A    between atoms: C_4  and  C_12
REMARK    6  A    between atoms: N_5  and  C_6
REMARK    7  A    between atoms: N_16  and  C_17
REMARK                            x       y       z     vdW  Elec       q    Type
REMARK                         _______ _______ _______ _____ _____    ______ ____
ROOT
ATOM      1  C   UNL     1       2.964   5.669  19.291  0.00  0.00    +0.000 C 
ENDROOT
BRANCH   1   2
ATOM      2  C   UNL     1       2.314   4.412  19.802  0.00  0.00    +0.000 A 
ATOM      3  C   UNL     1       1.811   4.097  21.056  0.00  0.00    +0.000 A 
ATOM      4  C   UNL     1       1.486   2.734  20.997  0.00  0.00    +0.000 A 
ATOM      5  N   UNL     1       1.673   2.225  19.782  0.00  0.00    +0.000 NA
ATOM      6  N   UNL     1       2.162   3.256  19.063  0.00  0.00    +0.000 N 
ATOM      7  C   UNL     1       2.531   3.026  17.685  0.00  0.00    +0.000 C 
ENDBRANCH   1   2
BRANCH   1   8
ATOM      8  N   UNL     1       4.425   5.705  19.537  0.00  0.00    +0.000 NA
ATOM      9  H   UNL     1       4.628   4.822  20.027  0.00  0.00    +0.000 HD
BRANCH   8  10
ATOM     10  C   UNL     1       5.337   5.767  18.373  0.00  0.00    +0.000 C 
ATOM     11  C   UNL     1       4.460   5.953  17.117  0.00  0.00    +0.000 C 
ATOM     12  C   UNL     1       5.277   6.149  15.843  0.00  0.00    +0.000 C 
ATOM     13  S   UNL     1       6.304   4.710  15.451  0.00  0.00    +0.000 S 
ATOM     14  C   UNL     1       7.179   4.581  17.024  0.00  0.00    +0.000 C 
ATOM     15  C   UNL     1       6.227   4.527  18.207  0.00  0.00    +0.000 C 
ENDBRANCH   8  10
ENDBRANCH   1   8
BRANCH   1  16
ATOM     16  C   UNL     1       2.220   6.946  19.778  0.00  0.00    +0.000 C 
BRANCH  16  18
ATOM     17  C   UNL     1       1.439   9.080  19.190  0.00  0.00    +0.000 C 
ATOM     18  O   UNL     1       2.209   7.960  18.765  0.00  0.00    +0.000 OA
ENDBRANCH  16  18
ENDBRANCH   1  16
TORSDOF 5
ENDMDL
