MODEL 1
REMARK VINA RESULT:      -8.6      0.000      0.000
REMARK  Name = 
REMARK  6 active torsions:
REMARK  status: ('A' for Active; 'I' for Inactive)
REMARK    1  A    between atoms: C_1  and  N_2
REMARK    2  A    between atoms: N_2  and  C_3
REMARK    3  A    between atoms: N_6  and  C_7
REMARK    4  A    between atoms: C_10  and  C_11
REMARK    5  A    between atoms: C_11  and  C_12
REMARK    6  A    between atoms: C_12  and  N_13
REMARK                            x       y       z     vdW  Elec       q    Type
REMARK                         _______ _______ _______ _____ _____    ______ ____
ROOT
ATOM      1  C   UNL     1       7.590   7.680  17.598  0.00  0.00    +0.000 C 
ENDROOT
BRANCH   1   2
ATOM      2  N   UNL     1       7.726   6.221  17.458  0.00  0.00    +0.000 NA
ATOM      3  C   UNL     1       7.285   5.487  18.663  0.00  0.00    +0.000 C 
ATOM      4  C   UNL     1       5.783   5.618  18.968  0.00  0.00    +0.000 C 
ATOM      5  N   UNL     1       4.957   5.259  17.810  0.00  0.00    +0.000 N 
ATOM      6  C   UNL     1       3.984   4.302  17.897  0.00  0.00    +0.000 A 
ATOM      7  N   UNL     1       3.737   3.429  16.919  0.00  0.00    +0.000 NA
ATOM      8  S   UNL     1       2.592   2.353  17.408  0.00  0.00    +0.000 S 
ATOM      9  C   UNL     1       2.303   3.050  18.946  0.00  0.00    +0.000 A 
ATOM     10  C   UNL     1       1.421   2.646  19.964  0.00  0.00    +0.000 A 
ATOM     11  C   UNL     1       1.356   3.405  21.135  0.00  0.00    +0.000 A 
ATOM     12  C   UNL     1       2.120   4.553  21.277  0.00  0.00    +0.000 A 
ATOM     13  C   UNL     1       2.980   4.948  20.252  0.00  0.00    +0.000 A 
ATOM     14  C   UNL     1       3.120   4.172  19.070  0.00  0.00    +0.000 A 
ATOM     15  C   UNL     1       5.385   5.792  16.508  0.00  0.00    +0.000 C 
ATOM     16  C   UNL     1       6.920   5.711  16.320  0.00  0.00    +0.000 C 
ENDBRANCH   1   2
BRANCH   1  17
ATOM     17  C   UNL     1       8.593   8.301  18.585  0.00  0.00    +0.000 C 
BRANCH  17  21
ATOM     18  C   UNL     1       9.478  12.501  18.000  0.00  0.00    +0.000 C 
ATOM     19  C   UNL     1       9.714  11.953  19.407  0.00  0.00    +0.000 C 
ATOM     20  C   UNL     1       9.729  10.426  19.387  0.00  0.00    +0.000 C 
ATOM     21  C   UNL     1       8.458   9.827  18.763  0.00  0.00    +0.000 C 
ATOM     22  C   UNL     1       8.124  10.473  17.407  0.00  0.00    +0.000 C 
ATOM     23  C   UNL     1       8.131  11.999  17.473  0.00  0.00    +0.000 C 
BRANCH  18  29
ATOM     24  C   UNL     1      11.957  16.603  17.185  0.00  0.00    +0.000 C 
ATOM     25  N   UNL     1      10.729  15.949  17.602  0.00  0.00    +0.000 N 
ATOM     26  C   UNL     1       9.559  16.778  17.836  0.00  0.00    +0.000 C 
ATOM     27  C   UNL     1      10.741  14.565  17.600  0.00  0.00    +0.000 C 
ATOM     28  O   UNL     1      11.748  13.921  17.310  0.00  0.00    +0.000 OA
ATOM     29  N   UNL     1       9.572  13.952  17.975  0.00  0.00    +0.000 N 
ATOM     30  H   UNL     1       8.716  14.480  17.926  0.00  0.00    +0.000 HD
ENDBRANCH  18  29
ENDBRANCH  17  21
ENDBRANCH   1  17
TORSDOF 4
ENDMDL
MODEL 2
REMARK VINA RESULT:      -8.5      1.147      1.603
REMARK  Name = 
REMARK  6 active torsions:
REMARK  status: ('A' for Active; 'I' for Inactive)
REMARK    1  A    between atoms: C_1  and  N_2
REMARK    2  A    between atoms: N_2  and  C_3
REMARK    3  A    between atoms: N_6  and  C_7
REMARK    4  A    between atoms: C_10  and  C_11
REMARK    5  A    between atoms: C_11  and  C_12
REMARK    6  A    between atoms: C_12  and  N_13
REMARK                            x       y       z     vdW  Elec       q    Type
REMARK                         _______ _______ _______ _____ _____    ______ ____
ROOT
ATOM      1  C   UNL     1       7.493   7.937  17.717  0.00  0.00    +0.000 C 
ENDROOT
BRANCH   1   2
ATOM      2  N   UNL     1       7.760   6.489  17.688  0.00  0.00    +0.000 NA
ATOM      3  C   UNL     1       7.285   5.797  18.904  0.00  0.00    +0.000 C 
ATOM      4  C   UNL     1       5.757   5.814  19.085  0.00  0.00    +0.000 C 
ATOM      5  N   UNL     1       5.060   5.313  17.896  0.00  0.00    +0.000 N 
ATOM      6  C   UNL     1       4.165   4.282  17.974  0.00  0.00    +0.000 A 
ATOM      7  N   UNL     1       4.072   3.330  17.043  0.00  0.00    +0.000 NA
ATOM      8  S   UNL     1       2.983   2.191  17.518  0.00  0.00    +0.000 S 
ATOM      9  C   UNL     1       2.514   2.954  18.977  0.00  0.00    +0.000 A 
ATOM     10  C   UNL     1       1.588   2.539  19.951  0.00  0.00    +0.000 A 
ATOM     11  C   UNL     1       1.366   3.361  21.059  0.00  0.00    +0.000 A 
ATOM     12  C   UNL     1       2.019   4.578  21.178  0.00  0.00    +0.000 A 
ATOM     13  C   UNL     1       2.924   4.983  20.196  0.00  0.00    +0.000 A 
ATOM     14  C   UNL     1       3.223   4.149  19.085  0.00  0.00    +0.000 A 
ATOM     15  C   UNL     1       5.548   5.799  16.596  0.00  0.00    +0.000 C 
ATOM     16  C   UNL     1       7.094   5.841  16.530  0.00  0.00    +0.000 C 
ENDBRANCH   1   2
BRANCH   1  17
ATOM     17  C   UNL     1       8.501   8.734  18.563  0.00  0.00    +0.000 C 
BRANCH  17  21
ATOM     18  C   UNL     1       9.154  13.001  18.201  0.00  0.00    +0.000 C 
ATOM     19  C   UNL     1       8.209  12.375  17.176  0.00  0.00    +0.000 C 
ATOM     20  C   UNL     1       7.777  10.983  17.632  0.00  0.00    +0.000 C 
ATOM     21  C   UNL     1       8.969  10.057  17.926  0.00  0.00    +0.000 C 
ATOM     22  C   UNL     1      10.006  10.729  18.843  0.00  0.00    +0.000 C 
ATOM     23  C   UNL     1      10.399  12.122  18.353  0.00  0.00    +0.000 C 
BRANCH  18  29
ATOM     24  C   UNL     1       8.446  17.797  18.557  0.00  0.00    +0.000 C 
ATOM     25  N   UNL     1       9.179  16.683  17.981  0.00  0.00    +0.000 N 
ATOM     26  C   UNL     1      10.348  16.981  17.171  0.00  0.00    +0.000 C 
ATOM     27  C   UNL     1       8.781  15.418  18.376  0.00  0.00    +0.000 C 
ATOM     28  O   UNL     1       7.828  15.241  19.133  0.00  0.00    +0.000 OA
ATOM     29  N   UNL     1       9.490  14.370  17.844  0.00  0.00    +0.000 N 
ATOM     30  H   UNL     1      10.407  14.551  17.474  0.00  0.00    +0.000 HD
ENDBRANCH  18  29
ENDBRANCH  17  21
ENDBRANCH   1  17
TORSDOF 4
ENDMDL
MODEL 3
REMARK VINA RESULT:      -8.3      0.451      1.039
REMARK  Name = 
REMARK  6 active torsions:
REMARK  status: ('A' for Active; 'I' for Inactive)
REMARK    1  A    between atoms: C_1  and  N_2
REMARK    2  A    between atoms: N_2  and  C_3
REMARK    3  A    between atoms: N_6  and  C_7
REMARK    4  A    between atoms: C_10  and  C_11
REMARK    5  A    between atoms: C_11  and  C_12
REMARK    6  A    between atoms: C_12  and  N_13
REMARK                            x       y       z     vdW  Elec       q    Type
REMARK                         _______ _______ _______ _____ _____    ______ ____
ROOT
ATOM      1  C   UNL     1       7.615   7.867  17.630  0.00  0.00    +0.000 C 
ENDROOT
BRANCH   1   2
ATOM      2  N   UNL     1       7.788   6.412  17.481  0.00  0.00    +0.000 NA
ATOM      3  C   UNL     1       7.357   5.660  18.679  0.00  0.00    +0.000 C 
ATOM      4  C   UNL     1       5.850   5.753  18.974  0.00  0.00    +0.000 C 
ATOM      5  N   UNL     1       5.041   5.382  17.809  0.00  0.00    +0.000 N 
ATOM      6  C   UNL     1       4.090   4.401  17.882  0.00  0.00    +0.000 A 
ATOM      7  N   UNL     1       3.871   3.529  16.897  0.00  0.00    +0.000 NA
ATOM      8  S   UNL     1       2.749   2.422  17.372  0.00  0.00    +0.000 S 
ATOM      9  C   UNL     1       2.433   3.102  18.912  0.00  0.00    +0.000 A 
ATOM     10  C   UNL     1       1.555   2.670  19.921  0.00  0.00    +0.000 A 
ATOM     11  C   UNL     1       1.463   3.419  21.097  0.00  0.00    +0.000 A 
ATOM     12  C   UNL     1       2.199   4.584  21.251  0.00  0.00    +0.000 A 
ATOM     13  C   UNL     1       3.055   5.007  20.235  0.00  0.00    +0.000 A 
ATOM     14  C   UNL     1       3.222   4.242  19.049  0.00  0.00    +0.000 A 
ATOM     15  C   UNL     1       5.465   5.934  16.513  0.00  0.00    +0.000 C 
ATOM     16  C   UNL     1       7.002   5.891  16.334  0.00  0.00    +0.000 C 
ENDBRANCH   1   2
BRANCH   1  17
ATOM     17  C   UNL     1       8.531   8.491  18.698  0.00  0.00    +0.000 C 
BRANCH  17  21
ATOM     18  C   UNL     1       8.815  12.811  18.848  0.00  0.00    +0.000 C 
ATOM     19  C   UNL     1       8.366  12.211  17.516  0.00  0.00    +0.000 C 
ATOM     20  C   UNL     1       7.951  10.754  17.702  0.00  0.00    +0.000 C 
ATOM     21  C   UNL     1       9.052   9.900  18.352  0.00  0.00    +0.000 C 
ATOM     22  C   UNL     1       9.620  10.562  19.620  0.00  0.00    +0.000 C 
ATOM     23  C   UNL     1      10.010  12.021  19.388  0.00  0.00    +0.000 C 
BRANCH  18  29
ATOM     24  C   UNL     1      11.393  16.480  16.968  0.00  0.00    +0.000 C 
ATOM     25  N   UNL     1      10.327  16.022  17.844  0.00  0.00    +0.000 N 
ATOM     26  C   UNL     1       9.469  17.023  18.455  0.00  0.00    +0.000 C 
ATOM     27  C   UNL     1      10.129  14.654  17.905  0.00  0.00    +0.000 C 
ATOM     28  O   UNL     1      10.846  13.863  17.294  0.00  0.00    +0.000 OA
ATOM     29  N   UNL     1       9.109  14.229  18.718  0.00  0.00    +0.000 N 
ATOM     30  H   UNL     1       8.388  14.886  18.966  0.00  0.00    +0.000 HD
ENDBRANCH  18  29
ENDBRANCH  17  21
ENDBRANCH   1  17
TORSDOF 4
ENDMDL
MODEL 4
REMARK VINA RESULT:      -8.0      0.989      1.192
REMARK  Name = 
REMARK  6 active torsions:
REMARK  status: ('A' for Active; 'I' for Inactive)
REMARK    1  A    between atoms: C_1  and  N_2
REMARK    2  A    between atoms: N_2  and  C_3
REMARK    3  A    between atoms: N_6  and  C_7
REMARK    4  A    between atoms: C_10  and  C_11
REMARK    5  A    between atoms: C_11  and  C_12
REMARK    6  A    between atoms: C_12  and  N_13
REMARK                            x       y       z     vdW  Elec       q    Type
REMARK                         _______ _______ _______ _____ _____    ______ ____
ROOT
ATOM      1  C   UNL     1       7.689   7.835  17.693  0.00  0.00    +0.000 C 
ENDROOT
BRANCH   1   2
ATOM      2  N   UNL     1       7.823   6.376  17.546  0.00  0.00    +0.000 NA
ATOM      3  C   UNL     1       7.342   5.635  18.731  0.00  0.00    +0.000 C 
ATOM      4  C   UNL     1       5.832   5.770  18.990  0.00  0.00    +0.000 C 
ATOM      5  N   UNL     1       5.041   5.424  17.804  0.00  0.00    +0.000 N 
ATOM      6  C   UNL     1       4.062   4.470  17.853  0.00  0.00    +0.000 A 
ATOM      7  N   UNL     1       3.842   3.606  16.861  0.00  0.00    +0.000 NA
ATOM      8  S   UNL     1       2.677   2.531  17.306  0.00  0.00    +0.000 S 
ATOM      9  C   UNL     1       2.344   3.217  18.839  0.00  0.00    +0.000 A 
ATOM     10  C   UNL     1       1.428   2.809  19.826  0.00  0.00    +0.000 A 
ATOM     11  C   UNL     1       1.330   3.560  21.000  0.00  0.00    +0.000 A 
ATOM     12  C   UNL     1       2.094   4.703  21.175  0.00  0.00    +0.000 A 
ATOM     13  C   UNL     1       2.987   5.103  20.180  0.00  0.00    +0.000 A 
ATOM     14  C   UNL     1       3.161   4.335  18.997  0.00  0.00    +0.000 A 
ATOM     15  C   UNL     1       5.512   5.965  16.520  0.00  0.00    +0.000 C 
ATOM     16  C   UNL     1       7.051   5.879  16.379  0.00  0.00    +0.000 C 
ENDBRANCH   1   2
BRANCH   1  17
ATOM     17  C   UNL     1       8.688   8.449  18.690  0.00  0.00    +0.000 C 
BRANCH  17  21
ATOM     18  C   UNL     1       9.595  12.552  17.639  0.00  0.00    +0.000 C 
ATOM     19  C   UNL     1      10.075  12.087  19.013  0.00  0.00    +0.000 C 
ATOM     20  C   UNL     1      10.032  10.564  19.104  0.00  0.00    +0.000 C 
ATOM     21  C   UNL     1       8.643   9.987  18.776  0.00  0.00    +0.000 C 
ATOM     22  C   UNL     1       8.080  10.559  17.463  0.00  0.00    +0.000 C 
ATOM     23  C   UNL     1       8.154  12.084  17.414  0.00  0.00    +0.000 C 
BRANCH  18  29
ATOM     24  C   UNL     1       8.356  17.103  18.820  0.00  0.00    +0.000 C 
ATOM     25  N   UNL     1       9.163  16.196  18.021  0.00  0.00    +0.000 N 
ATOM     26  C   UNL     1      10.213  16.765  17.195  0.00  0.00    +0.000 C 
ATOM     27  C   UNL     1       8.954  14.844  18.231  0.00  0.00    +0.000 C 
ATOM     28  O   UNL     1       8.099  14.429  19.011  0.00  0.00    +0.000 OA
ATOM     29  N   UNL     1       9.733  13.992  17.489  0.00  0.00    +0.000 N 
ATOM     30  H   UNL     1      10.587  14.346  17.092  0.00  0.00    +0.000 HD
ENDBRANCH  18  29
ENDBRANCH  17  21
ENDBRANCH   1  17
TORSDOF 4
ENDMDL
MODEL 5
REMARK VINA RESULT:      -7.9      8.359     10.788
REMARK  Name = 
REMARK  6 active torsions:
REMARK  status: ('A' for Active; 'I' for Inactive)
REMARK    1  A    between atoms: C_1  and  N_2
REMARK    2  A    between atoms: N_2  and  C_3
REMARK    3  A    between atoms: N_6  and  C_7
REMARK    4  A    between atoms: C_10  and  C_11
REMARK    5  A    between atoms: C_11  and  C_12
REMARK    6  A    between atoms: C_12  and  N_13
REMARK                            x       y       z     vdW  Elec       q    Type
REMARK                         _______ _______ _______ _____ _____    ______ ____
ROOT
ATOM      1  C   UNL     1       1.222  11.177  19.841  0.00  0.00    +0.000 C 
ENDROOT
BRANCH   1   2
ATOM      2  N   UNL     1       0.344  10.063  19.443  0.00  0.00    +0.000 NA
ATOM      3  C   UNL     1       0.712   9.486  18.133  0.00  0.00    +0.000 C 
ATOM      4  C   UNL     1       2.090   8.803  18.108  0.00  0.00    +0.000 C 
ATOM      5  N   UNL     1       2.224   7.803  19.172  0.00  0.00    +0.000 N 
ATOM      6  C   UNL     1       2.566   6.508  18.896  0.00  0.00    +0.000 A 
ATOM      7  N   UNL     1       2.031   5.465  19.532  0.00  0.00    +0.000 NA
ATOM      8  S   UNL     1       2.578   4.063  18.865  0.00  0.00    +0.000 S 
ATOM      9  C   UNL     1       3.634   4.781  17.724  0.00  0.00    +0.000 A 
ATOM     10  C   UNL     1       4.465   4.176  16.764  0.00  0.00    +0.000 A 
ATOM     11  C   UNL     1       5.257   4.993  15.953  0.00  0.00    +0.000 A 
ATOM     12  C   UNL     1       5.249   6.370  16.114  0.00  0.00    +0.000 A 
ATOM     13  C   UNL     1       4.431   6.954  17.080  0.00  0.00    +0.000 A 
ATOM     14  C   UNL     1       3.566   6.164  17.885  0.00  0.00    +0.000 A 
ATOM     15  C   UNL     1       1.737   8.193  20.504  0.00  0.00    +0.000 C 
ATOM     16  C   UNL     1       0.394   8.959  20.434  0.00  0.00    +0.000 C 
ENDBRANCH   1   2
BRANCH   1  17
ATOM     17  C   UNL     1       0.493  12.292  20.610  0.00  0.00    +0.000 C 
BRANCH  17  21
ATOM     18  C   UNL     1      -3.418  12.859  22.385  0.00  0.00    +0.000 C 
ATOM     19  C   UNL     1      -2.487  11.883  23.104  0.00  0.00    +0.000 C 
ATOM     20  C   UNL     1      -1.052  12.057  22.612  0.00  0.00    +0.000 C 
ATOM     21  C   UNL     1      -0.927  11.922  21.085  0.00  0.00    +0.000 C 
ATOM     22  C   UNL     1      -1.958  12.791  20.345  0.00  0.00    +0.000 C 
ATOM     23  C   UNL     1      -3.376  12.592  20.878  0.00  0.00    +0.000 C 
BRANCH  18  29
ATOM     24  C   UNL     1      -7.551  14.981  23.817  0.00  0.00    +0.000 C 
ATOM     25  N   UNL     1      -6.772  13.770  23.622  0.00  0.00    +0.000 N 
ATOM     26  C   UNL     1      -7.434  12.493  23.821  0.00  0.00    +0.000 C 
ATOM     27  C   UNL     1      -5.494  13.939  23.118  0.00  0.00    +0.000 C 
ATOM     28  O   UNL     1      -5.023  15.052  22.894  0.00  0.00    +0.000 OA
ATOM     29  N   UNL     1      -4.770  12.791  22.917  0.00  0.00    +0.000 N 
ATOM     30  H   UNL     1      -5.265  11.919  22.838  0.00  0.00    +0.000 HD
ENDBRANCH  18  29
ENDBRANCH  17  21
ENDBRANCH   1  17
TORSDOF 4
ENDMDL
MODEL 6
REMARK VINA RESULT:      -7.8      1.471      1.819
REMARK  Name = 
REMARK  6 active torsions:
REMARK  status: ('A' for Active; 'I' for Inactive)
REMARK    1  A    between atoms: C_1  and  N_2
REMARK    2  A    between atoms: N_2  and  C_3
REMARK    3  A    between atoms: N_6  and  C_7
REMARK    4  A    between atoms: C_10  and  C_11
REMARK    5  A    between atoms: C_11  and  C_12
REMARK    6  A    between atoms: C_12  and  N_13
REMARK                            x       y       z     vdW  Elec       q    Type
REMARK                         _______ _______ _______ _____ _____    ______ ____
ROOT
ATOM      1  C   UNL     1       7.589   7.487  17.061  0.00  0.00    +0.000 C 
ENDROOT
BRANCH   1   2
ATOM      2  N   UNL     1       7.793   6.078  17.436  0.00  0.00    +0.000 NA
ATOM      3  C   UNL     1       7.163   5.734  18.728  0.00  0.00    +0.000 C 
ATOM      4  C   UNL     1       5.628   5.821  18.726  0.00  0.00    +0.000 C 
ATOM      5  N   UNL     1       5.037   5.039  17.635  0.00  0.00    +0.000 N 
ATOM      6  C   UNL     1       4.094   4.078  17.875  0.00  0.00    +0.000 A 
ATOM      7  N   UNL     1       4.056   2.919  17.215  0.00  0.00    +0.000 NA
ATOM      8  S   UNL     1       2.874   1.960  17.841  0.00  0.00    +0.000 S 
ATOM      9  C   UNL     1       2.289   3.084  18.993  0.00  0.00    +0.000 A 
ATOM     10  C   UNL     1       1.250   2.951  19.931  0.00  0.00    +0.000 A 
ATOM     11  C   UNL     1       0.950   4.037  20.758  0.00  0.00    +0.000 A 
ATOM     12  C   UNL     1       1.640   5.233  20.633  0.00  0.00    +0.000 A 
ATOM     13  C   UNL     1       2.660   5.353  19.688  0.00  0.00    +0.000 A 
ATOM     14  C   UNL     1       3.036   4.255  18.869  0.00  0.00    +0.000 A 
ATOM     15  C   UNL     1       5.678   5.162  16.317  0.00  0.00    +0.000 C 
ATOM     16  C   UNL     1       7.223   5.162  16.417  0.00  0.00    +0.000 C 
ENDBRANCH   1   2
BRANCH   1  17
ATOM     17  C   UNL     1       7.637   8.457  18.255  0.00  0.00    +0.000 C 
BRANCH  17  21
ATOM     18  C   UNL     1       9.454  12.312  19.029  0.00  0.00    +0.000 C 
ATOM     19  C   UNL     1       8.820  12.131  17.651  0.00  0.00    +0.000 C 
ATOM     20  C   UNL     1       7.909  10.906  17.641  0.00  0.00    +0.000 C 
ATOM     21  C   UNL     1       8.630   9.625  18.093  0.00  0.00    +0.000 C 
ATOM     22  C   UNL     1       9.397   9.832  19.411  0.00  0.00    +0.000 C 
ATOM     23  C   UNL     1      10.285  11.075  19.377  0.00  0.00    +0.000 C 
BRANCH  18  29
ATOM     24  C   UNL     1      10.826  16.381  21.309  0.00  0.00    +0.000 C 
ATOM     25  N   UNL     1      10.919  15.506  20.154  0.00  0.00    +0.000 N 
ATOM     26  C   UNL     1      11.926  15.805  19.150  0.00  0.00    +0.000 C 
ATOM     27  C   UNL     1      10.130  14.369  20.180  0.00  0.00    +0.000 C 
ATOM     28  O   UNL     1       9.354  14.135  21.106  0.00  0.00    +0.000 OA
ATOM     29  N   UNL     1      10.237  13.536  19.095  0.00  0.00    +0.000 N 
ATOM     30  H   UNL     1      11.058  13.604  18.518  0.00  0.00    +0.000 HD
ENDBRANCH  18  29
ENDBRANCH  17  21
ENDBRANCH   1  17
TORSDOF 4
ENDMDL
MODEL 7
REMARK VINA RESULT:      -7.6      1.762      2.128
REMARK  Name = 
REMARK  6 active torsions:
REMARK  status: ('A' for Active; 'I' for Inactive)
REMARK    1  A    between atoms: C_1  and  N_2
REMARK    2  A    between atoms: N_2  and  C_3
REMARK    3  A    between atoms: N_6  and  C_7
REMARK    4  A    between atoms: C_10  and  C_11
REMARK    5  A    between atoms: C_11  and  C_12
REMARK    6  A    between atoms: C_12  and  N_13
REMARK                            x       y       z     vdW  Elec       q    Type
REMARK                         _______ _______ _______ _____ _____    ______ ____
ROOT
ATOM      1  C   UNL     1       8.026   7.625  18.662  0.00  0.00    +0.000 C 
ENDROOT
BRANCH   1   2
ATOM      2  N   UNL     1       7.977   6.288  18.046  0.00  0.00    +0.000 NA
ATOM      3  C   UNL     1       7.467   5.252  18.969  0.00  0.00    +0.000 C 
ATOM      4  C   UNL     1       5.999   5.443  19.383  0.00  0.00    +0.000 C 
ATOM      5  N   UNL     1       5.116   5.582  18.220  0.00  0.00    +0.000 N 
ATOM      6  C   UNL     1       4.032   4.766  18.045  0.00  0.00    +0.000 A 
ATOM      7  N   UNL     1       3.663   4.298  16.851  0.00  0.00    +0.000 NA
ATOM      8  S   UNL     1       2.401   3.257  17.026  0.00  0.00    +0.000 S 
ATOM      9  C   UNL     1       2.225   3.434  18.721  0.00  0.00    +0.000 A 
ATOM     10  C   UNL     1       1.316   2.818  19.599  0.00  0.00    +0.000 A 
ATOM     11  C   UNL     1       1.365   3.150  20.955  0.00  0.00    +0.000 A 
ATOM     12  C   UNL     1       2.269   4.093  21.420  0.00  0.00    +0.000 A 
ATOM     13  C   UNL     1       3.154   4.706  20.534  0.00  0.00    +0.000 A 
ATOM     14  C   UNL     1       3.178   4.353  19.158  0.00  0.00    +0.000 A 
ATOM     15  C   UNL     1       5.586   6.464  17.142  0.00  0.00    +0.000 C 
ATOM     16  C   UNL     1       7.096   6.278  16.851  0.00  0.00    +0.000 C 
ENDBRANCH   1   2
BRANCH   1  17
ATOM     17  C   UNL     1       7.964   8.776  17.644  0.00  0.00    +0.000 C 
BRANCH  17  21
ATOM     18  C   UNL     1       9.136  12.484  19.554  0.00  0.00    +0.000 C 
ATOM     19  C   UNL     1       8.957  12.534  18.037  0.00  0.00    +0.000 C 
ATOM     20  C   UNL     1       8.197  11.303  17.549  0.00  0.00    +0.000 C 
ATOM     21  C   UNL     1       8.858   9.985  17.987  0.00  0.00    +0.000 C 
ATOM     22  C   UNL     1       9.178   9.975  19.492  0.00  0.00    +0.000 C 
ATOM     23  C   UNL     1       9.928  11.230  19.935  0.00  0.00    +0.000 C 
BRANCH  18  29
ATOM     24  C   UNL     1       8.852  16.994  21.347  0.00  0.00    +0.000 C 
ATOM     25  N   UNL     1       9.667  15.872  20.913  0.00  0.00    +0.000 N 
ATOM     26  C   UNL     1      11.100  15.940  21.142  0.00  0.00    +0.000 C 
ATOM     27  C   UNL     1       8.984  14.763  20.445  0.00  0.00    +0.000 C 
ATOM     28  O   UNL     1       7.757  14.743  20.353  0.00  0.00    +0.000 OA
ATOM     29  N   UNL     1       9.758  13.699  20.055  0.00  0.00    +0.000 N 
ATOM     30  H   UNL     1      10.701  13.640  20.401  0.00  0.00    +0.000 HD
ENDBRANCH  18  29
ENDBRANCH  17  21
ENDBRANCH   1  17
TORSDOF 4
ENDMDL
MODEL 8
REMARK VINA RESULT:      -7.4      1.060      1.103
REMARK  Name = 
REMARK  6 active torsions:
REMARK  status: ('A' for Active; 'I' for Inactive)
REMARK    1  A    between atoms: C_1  and  N_2
REMARK    2  A    between atoms: N_2  and  C_3
REMARK    3  A    between atoms: N_6  and  C_7
REMARK    4  A    between atoms: C_10  and  C_11
REMARK    5  A    between atoms: C_11  and  C_12
REMARK    6  A    between atoms: C_12  and  N_13
REMARK                            x       y       z     vdW  Elec       q    Type
REMARK                         _______ _______ _______ _____ _____    ______ ____
ROOT
ATOM      1  C   UNL     1       7.541   7.874  18.452  0.00  0.00    +0.000 C 
ENDROOT
BRANCH   1   2
ATOM      2  N   UNL     1       7.695   6.497  17.953  0.00  0.00    +0.000 NA
ATOM      3  C   UNL     1       7.322   5.480  18.958  0.00  0.00    +0.000 C 
ATOM      4  C   UNL     1       5.833   5.491  19.346  0.00  0.00    +0.000 C 
ATOM      5  N   UNL     1       4.962   5.403  18.169  0.00  0.00    +0.000 N 
ATOM      6  C   UNL     1       4.009   4.428  18.058  0.00  0.00    +0.000 A 
ATOM      7  N   UNL     1       3.733   3.813  16.907  0.00  0.00    +0.000 NA
ATOM      8  S   UNL     1       2.630   2.619  17.163  0.00  0.00    +0.000 S 
ATOM      9  C   UNL     1       2.399   2.911  18.835  0.00  0.00    +0.000 A 
ATOM     10  C   UNL     1       1.571   2.247  19.757  0.00  0.00    +0.000 A 
ATOM     11  C   UNL     1       1.547   2.696  21.080  0.00  0.00    +0.000 A 
ATOM     12  C   UNL     1       2.297   3.795  21.468  0.00  0.00    +0.000 A 
ATOM     13  C   UNL     1       3.103   4.452  20.537  0.00  0.00    +0.000 A 
ATOM     14  C   UNL     1       3.202   3.991  19.197  0.00  0.00    +0.000 A 
ATOM     15  C   UNL     1       5.321   6.249  17.021  0.00  0.00    +0.000 C 
ATOM     16  C   UNL     1       6.846   6.259  16.758  0.00  0.00    +0.000 C 
ENDBRANCH   1   2
BRANCH   1  17
ATOM     17  C   UNL     1       8.488   8.883  17.781  0.00  0.00    +0.000 C 
BRANCH  17  21
ATOM     18  C   UNL     1      10.247  12.633  19.050  0.00  0.00    +0.000 C 
ATOM     19  C   UNL     1       9.942  11.623  20.156  0.00  0.00    +0.000 C 
ATOM     20  C   UNL     1       9.689  10.241  19.559  0.00  0.00    +0.000 C 
ATOM     21  C   UNL     1       8.581  10.248  18.493  0.00  0.00    +0.000 C 
ATOM     22  C   UNL     1       8.795  11.357  17.448  0.00  0.00    +0.000 C 
ATOM     23  C   UNL     1       9.056  12.718  18.092  0.00  0.00    +0.000 C 
BRANCH  18  29
ATOM     24  C   UNL     1      12.333  17.007  18.661  0.00  0.00    +0.000 C 
ATOM     25  N   UNL     1      11.598  16.041  19.459  0.00  0.00    +0.000 N 
ATOM     26  C   UNL     1      11.096  16.467  20.754  0.00  0.00    +0.000 C 
ATOM     27  C   UNL     1      11.314  14.832  18.850  0.00  0.00    +0.000 C 
ATOM     28  O   UNL     1      11.702  14.566  17.713  0.00  0.00    +0.000 OA
ATOM     29  N   UNL     1      10.602  13.931  19.602  0.00  0.00    +0.000 N 
ATOM     30  H   UNL     1      10.071  14.273  20.385  0.00  0.00    +0.000 HD
ENDBRANCH  18  29
ENDBRANCH  17  21
ENDBRANCH   1  17
TORSDOF 4
ENDMDL
MODEL 9
REMARK VINA RESULT:      -7.4      1.894      2.134
REMARK  Name = 
REMARK  6 active torsions:
REMARK  status: ('A' for Active; 'I' for Inactive)
REMARK    1  A    between atoms: C_1  and  N_2
REMARK    2  A    between atoms: N_2  and  C_3
REMARK    3  A    between atoms: N_6  and  C_7
REMARK    4  A    between atoms: C_10  and  C_11
REMARK    5  A    between atoms: C_11  and  C_12
REMARK    6  A    between atoms: C_12  and  N_13
REMARK                            x       y       z     vdW  Elec       q    Type
REMARK                         _______ _______ _______ _____ _____    ______ ____
ROOT
ATOM      1  C   UNL     1       7.269   8.052  17.835  0.00  0.00    +0.000 C 
ENDROOT
BRANCH   1   2
ATOM      2  N   UNL     1       7.557   6.617  17.668  0.00  0.00    +0.000 NA
ATOM      3  C   UNL     1       7.174   5.816  18.850  0.00  0.00    +0.000 C 
ATOM      4  C   UNL     1       5.661   5.786  19.128  0.00  0.00    +0.000 C 
ATOM      5  N   UNL     1       4.896   5.370  17.947  0.00  0.00    +0.000 N 
ATOM      6  C   UNL     1       4.025   4.317  17.996  0.00  0.00    +0.000 A 
ATOM      7  N   UNL     1       3.886   3.444  16.996  0.00  0.00    +0.000 NA
ATOM      8  S   UNL     1       2.849   2.246  17.442  0.00  0.00    +0.000 S 
ATOM      9  C   UNL     1       2.464   2.876  18.987  0.00  0.00    +0.000 A 
ATOM     10  C   UNL     1       1.611   2.362  19.980  0.00  0.00    +0.000 A 
ATOM     11  C   UNL     1       1.448   3.084  21.164  0.00  0.00    +0.000 A 
ATOM     12  C   UNL     1       2.088   4.301  21.344  0.00  0.00    +0.000 A 
ATOM     13  C   UNL     1       2.920   4.805  20.343  0.00  0.00    +0.000 A 
ATOM     14  C   UNL     1       3.159   4.073  19.150  0.00  0.00    +0.000 A 
ATOM     15  C   UNL     1       5.290   5.972  16.665  0.00  0.00    +0.000 C 
ATOM     16  C   UNL     1       6.827   6.053  16.505  0.00  0.00    +0.000 C 
ENDBRANCH   1   2
BRANCH   1  17
ATOM     17  C   UNL     1       8.509   8.951  17.689  0.00  0.00    +0.000 C 
BRANCH  17  21
ATOM     18  C   UNL     1      10.002  12.568  19.547  0.00  0.00    +0.000 C 
ATOM     19  C   UNL     1       9.634  11.427  20.494  0.00  0.00    +0.000 C 
ATOM     20  C   UNL     1       9.489  10.119  19.720  0.00  0.00    +0.000 C 
ATOM     21  C   UNL     1       8.485  10.223  18.560  0.00  0.00    +0.000 C 
ATOM     22  C   UNL     1       8.754  11.454  17.676  0.00  0.00    +0.000 C 
ATOM     23  C   UNL     1       8.903  12.735  18.495  0.00  0.00    +0.000 C 
BRANCH  18  29
ATOM     24  C   UNL     1       8.531  16.211  22.411  0.00  0.00    +0.000 C 
ATOM     25  N   UNL     1       9.589  15.574  21.646  0.00  0.00    +0.000 N 
ATOM     26  C   UNL     1      10.933  16.112  21.760  0.00  0.00    +0.000 C 
ATOM     27  C   UNL     1       9.248  14.409  20.981  0.00  0.00    +0.000 C 
ATOM     28  O   UNL     1       8.102  13.962  20.993  0.00  0.00    +0.000 OA
ATOM     29  N   UNL     1      10.256  13.801  20.276  0.00  0.00    +0.000 N 
ATOM     30  H   UNL     1      11.208  14.022  20.513  0.00  0.00    +0.000 HD
ENDBRANCH  18  29
ENDBRANCH  17  21
ENDBRANCH   1  17
TORSDOF 4
ENDMDL
