MODEL 1
REMARK VINA RESULT:      -7.3      0.000      0.000
REMARK  Name = 
REMARK  6 active torsions:
REMARK  status: ('A' for Active; 'I' for Inactive)
REMARK    1  A    between atoms: C_1  and  C_2
REMARK    2  A    between atoms: C_8  and  N_9
REMARK    3  A    between atoms: C_10  and  C_12
REMARK    4  A    between atoms: C_12  and  N_13
REMARK    5  A    between atoms: C_20  and  C_21
REMARK    6  A    between atoms: N_25  and  C_26
REMARK                            x       y       z     vdW  Elec       q    Type
REMARK                         _______ _______ _______ _____ _____    ______ ____
ROOT
ATOM      1  N   UNL     1       2.933   3.421  19.868  0.00  0.00    +0.000 N 
ATOM      2  C   UNL     1       2.243   2.300  19.303  0.00  0.00    +0.000 C 
ATOM      3  O   UNL     1       1.320   1.830  19.960  0.00  0.00    +0.000 OA
ATOM      4  C   UNL     1       2.673   1.729  17.972  0.00  0.00    +0.000 C 
ATOM      5  C   UNL     1       3.781   2.453  17.213  0.00  0.00    +0.000 C 
ATOM      6  N   UNL     1       4.362   3.570  17.906  0.00  0.00    +0.000 N 
ATOM      7  N   UNL     1       5.266   4.377  17.327  0.00  0.00    +0.000 NA
ATOM      8  C   UNL     1       5.609   5.217  18.316  0.00  0.00    +0.000 A 
ATOM      9  C   UNL     1       4.868   4.953  19.501  0.00  0.00    +0.000 A 
ATOM     10  C   UNL     1       3.997   3.954  19.158  0.00  0.00    +0.000 A 
ENDROOT
BRANCH   8  11
ATOM     11  C   UNL     1       6.618   6.312  18.163  0.00  0.00    +0.000 A 
ATOM     12  C   UNL     1       6.530   7.340  17.238  0.00  0.00    +0.000 A 
ATOM     13  C   UNL     1       7.675   8.159  17.380  0.00  0.00    +0.000 A 
ATOM     14  C   UNL     1       8.441   7.612  18.382  0.00  0.00    +0.000 A 
ATOM     15  N   UNL     1       7.794   6.493  18.857  0.00  0.00    +0.000 N 
ATOM     16  C   UNL     1       8.357   5.617  19.863  0.00  0.00    +0.000 C 
ENDBRANCH   8  11
BRANCH   1  17
ATOM     17  C   UNL     1       2.348   4.089  21.045  0.00  0.00    +0.000 C 
BRANCH  17  19
ATOM     18  N   UNL     1       2.051   6.537  20.946  0.00  0.00    +0.000 N 
ATOM     19  C   UNL     1       1.465   5.288  20.752  0.00  0.00    +0.000 C 
ATOM     20  O   UNL     1       0.295   5.080  20.427  0.00  0.00    +0.000 OA
ATOM     21  H   UNL     1       2.990   6.555  21.331  0.00  0.00    +0.000 HD
BRANCH  18  29
ATOM     22  C   UNL     1       2.353   8.067  18.476  0.00  0.00    +0.000 C 
ATOM     23  C   UNL     1       1.518   8.563  19.630  0.00  0.00    +0.000 A 
ATOM     24  C   UNL     1       0.871   9.823  19.565  0.00  0.00    +0.000 A 
ATOM     25 CL   UNL     1       0.977  10.858  18.178  0.00  0.00    +0.000 Cl
ATOM     26  C   UNL     1       0.118  10.314  20.632  0.00  0.00    +0.000 A 
ATOM     27  C   UNL     1      -0.029   9.550  21.776  0.00  0.00    +0.000 A 
ATOM     28  C   UNL     1       0.590   8.303  21.859  0.00  0.00    +0.000 A 
ATOM     29  C   UNL     1       1.383   7.797  20.817  0.00  0.00    +0.000 A 
ENDBRANCH  18  29
ENDBRANCH  17  19
ENDBRANCH   1  17
TORSDOF 4
ENDMDL
MODEL 2
REMARK VINA RESULT:      -7.0      3.434      6.163
REMARK  Name = 
REMARK  6 active torsions:
REMARK  status: ('A' for Active; 'I' for Inactive)
REMARK    1  A    between atoms: C_1  and  C_2
REMARK    2  A    between atoms: C_8  and  N_9
REMARK    3  A    between atoms: C_10  and  C_12
REMARK    4  A    between atoms: C_12  and  N_13
REMARK    5  A    between atoms: C_20  and  C_21
REMARK    6  A    between atoms: N_25  and  C_26
REMARK                            x       y       z     vdW  Elec       q    Type
REMARK                         _______ _______ _______ _____ _____    ______ ____
ROOT
ATOM      1  N   UNL     1       1.323   9.414  20.323  0.00  0.00    +0.000 N 
ATOM      2  C   UNL     1       1.396  10.422  19.308  0.00  0.00    +0.000 C 
ATOM      3  O   UNL     1       1.073  11.560  19.634  0.00  0.00    +0.000 OA
ATOM      4  C   UNL     1       1.826  10.064  17.904  0.00  0.00    +0.000 C 
ATOM      5  C   UNL     1       2.281   8.631  17.645  0.00  0.00    +0.000 C 
ATOM      6  N   UNL     1       2.163   7.743  18.768  0.00  0.00    +0.000 N 
ATOM      7  N   UNL     1       2.627   6.484  18.734  0.00  0.00    +0.000 NA
ATOM      8  C   UNL     1       2.250   5.983  19.921  0.00  0.00    +0.000 A 
ATOM      9  C   UNL     1       1.592   6.964  20.712  0.00  0.00    +0.000 A 
ATOM     10  C   UNL     1       1.656   8.115  19.974  0.00  0.00    +0.000 A 
ENDROOT
BRANCH   8  11
ATOM     11  C   UNL     1       2.529   4.578  20.356  0.00  0.00    +0.000 A 
ATOM     12  C   UNL     1       1.755   3.864  21.257  0.00  0.00    +0.000 A 
ATOM     13  C   UNL     1       2.346   2.592  21.433  0.00  0.00    +0.000 A 
ATOM     14  C   UNL     1       3.471   2.556  20.645  0.00  0.00    +0.000 A 
ATOM     15  N   UNL     1       3.578   3.762  19.990  0.00  0.00    +0.000 N 
ATOM     16  C   UNL     1       4.694   4.108  19.137  0.00  0.00    +0.000 C 
ENDBRANCH   8  11
BRANCH   1  17
ATOM     17  C   UNL     1       1.123   9.835  21.721  0.00  0.00    +0.000 C 
BRANCH  17  19
ATOM     18  N   UNL     1      -0.770  11.415  21.830  0.00  0.00    +0.000 N 
ATOM     19  C   UNL     1      -0.310  10.132  22.122  0.00  0.00    +0.000 C 
ATOM     20  O   UNL     1      -0.938   9.258  22.721  0.00  0.00    +0.000 OA
ATOM     21  H   UNL     1      -0.101  12.070  21.438  0.00  0.00    +0.000 HD
BRANCH  18  29
ATOM     22  C   UNL     1      -2.553  12.406  19.738  0.00  0.00    +0.000 C 
ATOM     23  C   UNL     1      -2.934  12.435  21.198  0.00  0.00    +0.000 A 
ATOM     24  C   UNL     1      -4.175  12.983  21.610  0.00  0.00    +0.000 A 
ATOM     25 CL   UNL     1      -5.327  13.636  20.492  0.00  0.00    +0.000 Cl
ATOM     26  C   UNL     1      -4.534  13.047  22.957  0.00  0.00    +0.000 A 
ATOM     27  C   UNL     1      -3.678  12.541  23.919  0.00  0.00    +0.000 A 
ATOM     28  C   UNL     1      -2.458  11.987  23.536  0.00  0.00    +0.000 A 
ATOM     29  C   UNL     1      -2.051  11.941  22.193  0.00  0.00    +0.000 A 
ENDBRANCH  18  29
ENDBRANCH  17  19
ENDBRANCH   1  17
TORSDOF 4
ENDMDL
MODEL 3
REMARK VINA RESULT:      -6.9      2.218      3.050
REMARK  Name = 
REMARK  6 active torsions:
REMARK  status: ('A' for Active; 'I' for Inactive)
REMARK    1  A    between atoms: C_1  and  C_2
REMARK    2  A    between atoms: C_8  and  N_9
REMARK    3  A    between atoms: C_10  and  C_12
REMARK    4  A    between atoms: C_12  and  N_13
REMARK    5  A    between atoms: C_20  and  C_21
REMARK    6  A    between atoms: N_25  and  C_26
REMARK                            x       y       z     vdW  Elec       q    Type
REMARK                         _______ _______ _______ _____ _____    ______ ____
ROOT
ATOM      1  N   UNL     1       2.758   4.635  19.635  0.00  0.00    +0.000 N 
ATOM      2  C   UNL     1       1.640   3.870  20.100  0.00  0.00    +0.000 C 
ATOM      3  O   UNL     1       1.119   4.234  21.149  0.00  0.00    +0.000 OA
ATOM      4  C   UNL     1       1.167   2.660  19.327  0.00  0.00    +0.000 C 
ATOM      5  C   UNL     1       1.846   2.359  17.995  0.00  0.00    +0.000 C 
ATOM      6  N   UNL     1       2.940   3.227  17.660  0.00  0.00    +0.000 N 
ATOM      7  N   UNL     1       3.564   3.164  16.473  0.00  0.00    +0.000 NA
ATOM      8  C   UNL     1       4.555   4.061  16.595  0.00  0.00    +0.000 A 
ATOM      9  C   UNL     1       4.505   4.719  17.855  0.00  0.00    +0.000 A 
ATOM     10  C   UNL     1       3.383   4.229  18.466  0.00  0.00    +0.000 A 
ENDROOT
BRANCH   8  11
ATOM     11  C   UNL     1       5.553   4.348  15.518  0.00  0.00    +0.000 A 
ATOM     12  C   UNL     1       5.500   3.827  14.236  0.00  0.00    +0.000 A 
ATOM     13  C   UNL     1       6.623   4.303  13.520  0.00  0.00    +0.000 A 
ATOM     14  C   UNL     1       7.342   5.098  14.379  0.00  0.00    +0.000 A 
ATOM     15  N   UNL     1       6.688   5.126  15.591  0.00  0.00    +0.000 N 
ATOM     16  C   UNL     1       7.209   5.802  16.760  0.00  0.00    +0.000 C 
ENDBRANCH   8  11
BRANCH   1  17
ATOM     17  C   UNL     1       3.046   5.928  20.282  0.00  0.00    +0.000 C 
BRANCH  17  19
ATOM     18  N   UNL     1       1.760   7.999  20.664  0.00  0.00    +0.000 N 
ATOM     19  C   UNL     1       2.301   7.125  19.723  0.00  0.00    +0.000 C 
ATOM     20  O   UNL     1       2.175   7.211  18.501  0.00  0.00    +0.000 OA
ATOM     21  H   UNL     1       1.842   7.737  21.642  0.00  0.00    +0.000 HD
BRANCH  18  29
ATOM     22  C   UNL     1       0.277   9.295  22.822  0.00  0.00    +0.000 C 
ATOM     23  C   UNL     1       0.212   9.784  21.397  0.00  0.00    +0.000 A 
ATOM     24  C   UNL     1      -0.611  10.885  21.048  0.00  0.00    +0.000 A 
ATOM     25 CL   UNL     1      -1.571  11.741  22.210  0.00  0.00    +0.000 Cl
ATOM     26  C   UNL     1      -0.709  11.336  19.731  0.00  0.00    +0.000 A 
ATOM     27  C   UNL     1       0.030  10.718  18.739  0.00  0.00    +0.000 A 
ATOM     28  C   UNL     1       0.854   9.640  19.060  0.00  0.00    +0.000 A 
ATOM     29  C   UNL     1       0.947   9.140  20.368  0.00  0.00    +0.000 A 
ENDBRANCH  18  29
ENDBRANCH  17  19
ENDBRANCH   1  17
TORSDOF 4
ENDMDL
MODEL 4
REMARK VINA RESULT:      -6.9      2.729      3.955
REMARK  Name = 
REMARK  6 active torsions:
REMARK  status: ('A' for Active; 'I' for Inactive)
REMARK    1  A    between atoms: C_1  and  C_2
REMARK    2  A    between atoms: C_8  and  N_9
REMARK    3  A    between atoms: C_10  and  C_12
REMARK    4  A    between atoms: C_12  and  N_13
REMARK    5  A    between atoms: C_20  and  C_21
REMARK    6  A    between atoms: N_25  and  C_26
REMARK                            x       y       z     vdW  Elec       q    Type
REMARK                         _______ _______ _______ _____ _____    ______ ____
ROOT
ATOM      1  N   UNL     1       2.508   6.746  19.650  0.00  0.00    +0.000 N 
ATOM      2  C   UNL     1       1.491   6.204  20.500  0.00  0.00    +0.000 C 
ATOM      3  O   UNL     1       0.916   6.989  21.247  0.00  0.00    +0.000 OA
ATOM      4  C   UNL     1       1.183   4.724  20.475  0.00  0.00    +0.000 C 
ATOM      5  C   UNL     1       1.909   3.864  19.445  0.00  0.00    +0.000 C 
ATOM      6  N   UNL     1       2.888   4.559  18.655  0.00  0.00    +0.000 N 
ATOM      7  N   UNL     1       3.527   3.971  17.632  0.00  0.00    +0.000 NA
ATOM      8  C   UNL     1       4.395   4.912  17.227  0.00  0.00    +0.000 A 
ATOM      9  C   UNL     1       4.249   6.109  17.979  0.00  0.00    +0.000 A 
ATOM     10  C   UNL     1       3.191   5.875  18.816  0.00  0.00    +0.000 A 
ENDROOT
BRANCH   8  11
ATOM     11  C   UNL     1       5.360   4.721  16.099  0.00  0.00    +0.000 A 
ATOM     12  C   UNL     1       5.000   4.583  14.769  0.00  0.00    +0.000 A 
ATOM     13  C   UNL     1       6.180   4.398  14.010  0.00  0.00    +0.000 A 
ATOM     14  C   UNL     1       7.234   4.420  14.891  0.00  0.00    +0.000 A 
ATOM     15  N   UNL     1       6.734   4.620  16.158  0.00  0.00    +0.000 N 
ATOM     16  C   UNL     1       7.557   4.614  17.349  0.00  0.00    +0.000 C 
ENDBRANCH   8  11
BRANCH   1  17
ATOM     17  C   UNL     1       2.623   8.211  19.534  0.00  0.00    +0.000 C 
BRANCH  17  19
ATOM     18  N   UNL     1       0.590   9.610  19.519  0.00  0.00    +0.000 N 
ATOM     19  C   UNL     1       1.516   8.900  18.758  0.00  0.00    +0.000 C 
ATOM     20  O   UNL     1       1.477   8.739  17.537  0.00  0.00    +0.000 OA
ATOM     21  H   UNL     1       0.681   9.558  20.529  0.00  0.00    +0.000 HD
BRANCH  18  29
ATOM     22  C   UNL     1      -0.732  11.647  21.143  0.00  0.00    +0.000 C 
ATOM     23  C   UNL     1      -1.244  11.249  19.781  0.00  0.00    +0.000 A 
ATOM     24  C   UNL     1      -2.421  11.837  19.252  0.00  0.00    +0.000 A 
ATOM     25 CL   UNL     1      -3.333  13.039  20.106  0.00  0.00    +0.000 Cl
ATOM     26  C   UNL     1      -2.929  11.463  18.007  0.00  0.00    +0.000 A 
ATOM     27  C   UNL     1      -2.261  10.517  17.251  0.00  0.00    +0.000 A 
ATOM     28  C   UNL     1      -1.095   9.933  17.746  0.00  0.00    +0.000 A 
ATOM     29  C   UNL     1      -0.579  10.261  19.010  0.00  0.00    +0.000 A 
ENDBRANCH  18  29
ENDBRANCH  17  19
ENDBRANCH   1  17
TORSDOF 4
ENDMDL
MODEL 5
REMARK VINA RESULT:      -6.9      4.135      6.762
REMARK  Name = 
REMARK  6 active torsions:
REMARK  status: ('A' for Active; 'I' for Inactive)
REMARK    1  A    between atoms: C_1  and  C_2
REMARK    2  A    between atoms: C_8  and  N_9
REMARK    3  A    between atoms: C_10  and  C_12
REMARK    4  A    between atoms: C_12  and  N_13
REMARK    5  A    between atoms: C_20  and  C_21
REMARK    6  A    between atoms: N_25  and  C_26
REMARK                            x       y       z     vdW  Elec       q    Type
REMARK                         _______ _______ _______ _____ _____    ______ ____
ROOT
ATOM      1  N   UNL     1       0.828  10.243  19.556  0.00  0.00    +0.000 N 
ATOM      2  C   UNL     1       0.458  10.788  20.828  0.00  0.00    +0.000 C 
ATOM      3  O   UNL     1      -0.054  11.902  20.825  0.00  0.00    +0.000 OA
ATOM      4  C   UNL     1       0.726  10.013  22.098  0.00  0.00    +0.000 C 
ATOM      5  C   UNL     1       1.293   8.603  21.964  0.00  0.00    +0.000 C 
ATOM      6  N   UNL     1       1.596   8.195  20.621  0.00  0.00    +0.000 N 
ATOM      7  N   UNL     1       1.993   6.947  20.326  0.00  0.00    +0.000 NA
ATOM      8  C   UNL     1       2.249   7.005  19.010  0.00  0.00    +0.000 A 
ATOM      9  C   UNL     1       1.956   8.293  18.482  0.00  0.00    +0.000 A 
ATOM     10  C   UNL     1       1.434   8.996  19.534  0.00  0.00    +0.000 A 
ENDROOT
BRANCH   8  11
ATOM     11  C   UNL     1       2.743   5.843  18.207  0.00  0.00    +0.000 A 
ATOM     12  C   UNL     1       2.073   4.638  18.072  0.00  0.00    +0.000 A 
ATOM     13  C   UNL     1       2.860   3.784  17.264  0.00  0.00    +0.000 A 
ATOM     14  C   UNL     1       3.996   4.481  16.929  0.00  0.00    +0.000 A 
ATOM     15  N   UNL     1       3.921   5.731  17.500  0.00  0.00    +0.000 N 
ATOM     16  C   UNL     1       4.987   6.707  17.425  0.00  0.00    +0.000 C 
ENDBRANCH   8  11
BRANCH   1  17
ATOM     17  C   UNL     1       0.350  10.916  18.335  0.00  0.00    +0.000 C 
BRANCH  17  19
ATOM     18  N   UNL     1      -1.942  11.822  18.459  0.00  0.00    +0.000 N 
ATOM     19  C   UNL     1      -1.130  10.770  18.038  0.00  0.00    +0.000 C 
ATOM     20  O   UNL     1      -1.516   9.726  17.510  0.00  0.00    +0.000 OA
ATOM     21  H   UNL     1      -1.499  12.567  18.988  0.00  0.00    +0.000 HD
BRANCH  18  29
ATOM     22  C   UNL     1      -3.506  12.662  20.779  0.00  0.00    +0.000 C 
ATOM     23  C   UNL     1      -4.153  12.257  19.478  0.00  0.00    +0.000 A 
ATOM     24  C   UNL     1      -5.565  12.240  19.349  0.00  0.00    +0.000 A 
ATOM     25 CL   UNL     1      -6.629  12.684  20.643  0.00  0.00    +0.000 Cl
ATOM     26  C   UNL     1      -6.186  11.841  18.164  0.00  0.00    +0.000 A 
ATOM     27  C   UNL     1      -5.414  11.479  17.075  0.00  0.00    +0.000 A 
ATOM     28  C   UNL     1      -4.024  11.499  17.175  0.00  0.00    +0.000 A 
ATOM     29  C   UNL     1      -3.370  11.860  18.364  0.00  0.00    +0.000 A 
ENDBRANCH  18  29
ENDBRANCH  17  19
ENDBRANCH   1  17
TORSDOF 4
ENDMDL
MODEL 6
REMARK VINA RESULT:      -6.9      3.820      7.570
REMARK  Name = 
REMARK  6 active torsions:
REMARK  status: ('A' for Active; 'I' for Inactive)
REMARK    1  A    between atoms: C_1  and  C_2
REMARK    2  A    between atoms: C_8  and  N_9
REMARK    3  A    between atoms: C_10  and  C_12
REMARK    4  A    between atoms: C_12  and  N_13
REMARK    5  A    between atoms: C_20  and  C_21
REMARK    6  A    between atoms: N_25  and  C_26
REMARK                            x       y       z     vdW  Elec       q    Type
REMARK                         _______ _______ _______ _____ _____    ______ ____
ROOT
ATOM      1  N   UNL     1       4.609   5.694  18.593  0.00  0.00    +0.000 N 
ATOM      2  C   UNL     1       4.819   4.375  19.109  0.00  0.00    +0.000 C 
ATOM      3  O   UNL     1       5.829   3.788  18.734  0.00  0.00    +0.000 OA
ATOM      4  C   UNL     1       3.810   3.751  20.046  0.00  0.00    +0.000 C 
ATOM      5  C   UNL     1       2.637   4.613  20.502  0.00  0.00    +0.000 C 
ATOM      6  N   UNL     1       2.575   5.919  19.907  0.00  0.00    +0.000 N 
ATOM      7  N   UNL     1       1.671   6.835  20.290  0.00  0.00    +0.000 NA
ATOM      8  C   UNL     1       1.892   7.858  19.450  0.00  0.00    +0.000 A 
ATOM      9  C   UNL     1       2.980   7.585  18.575  0.00  0.00    +0.000 A 
ATOM     10  C   UNL     1       3.461   6.368  18.979  0.00  0.00    +0.000 A 
ENDROOT
BRANCH   8  11
ATOM     11  C   UNL     1       1.109   9.134  19.469  0.00  0.00    +0.000 A 
ATOM     12  C   UNL     1       0.692   9.819  18.340  0.00  0.00    +0.000 A 
ATOM     13  C   UNL     1       0.006  10.983  18.760  0.00  0.00    +0.000 A 
ATOM     14  C   UNL     1       0.025  10.989  20.133  0.00  0.00    +0.000 A 
ATOM     15  N   UNL     1       0.692   9.863  20.561  0.00  0.00    +0.000 N 
ATOM     16  C   UNL     1       0.974   9.587  21.954  0.00  0.00    +0.000 C 
ENDBRANCH   8  11
BRANCH   1  17
ATOM     17  C   UNL     1       5.713   6.353  17.872  0.00  0.00    +0.000 C 
BRANCH  17  19
ATOM     18  N   UNL     1       6.551   5.166  15.876  0.00  0.00    +0.000 N 
ATOM     19  C   UNL     1       5.718   6.171  16.365  0.00  0.00    +0.000 C 
ATOM     20  O   UNL     1       5.046   6.948  15.685  0.00  0.00    +0.000 OA
ATOM     21  H   UNL     1       7.138   4.682  16.549  0.00  0.00    +0.000 HD
BRANCH  18  29
ATOM     22  C   UNL     1       4.948   3.106  14.564  0.00  0.00    +0.000 C 
ATOM     23  C   UNL     1       6.020   3.877  13.834  0.00  0.00    +0.000 A 
ATOM     24  C   UNL     1       6.310   3.597  12.474  0.00  0.00    +0.000 A 
ATOM     25 CL   UNL     1       5.466   2.385  11.566  0.00  0.00    +0.000 Cl
ATOM     26  C   UNL     1       7.317   4.277  11.787  0.00  0.00    +0.000 A 
ATOM     27  C   UNL     1       8.036   5.268  12.431  0.00  0.00    +0.000 A 
ATOM     28  C   UNL     1       7.760   5.568  13.764  0.00  0.00    +0.000 A 
ATOM     29  C   UNL     1       6.780   4.877  14.493  0.00  0.00    +0.000 A 
ENDBRANCH  18  29
ENDBRANCH  17  19
ENDBRANCH   1  17
TORSDOF 4
ENDMDL
MODEL 7
REMARK VINA RESULT:      -6.9      0.633      1.207
REMARK  Name = 
REMARK  6 active torsions:
REMARK  status: ('A' for Active; 'I' for Inactive)
REMARK    1  A    between atoms: C_1  and  C_2
REMARK    2  A    between atoms: C_8  and  N_9
REMARK    3  A    between atoms: C_10  and  C_12
REMARK    4  A    between atoms: C_12  and  N_13
REMARK    5  A    between atoms: C_20  and  C_21
REMARK    6  A    between atoms: N_25  and  C_26
REMARK                            x       y       z     vdW  Elec       q    Type
REMARK                         _______ _______ _______ _____ _____    ______ ____
ROOT
ATOM      1  N   UNL     1       2.927   3.416  20.216  0.00  0.00    +0.000 N 
ATOM      2  C   UNL     1       2.261   2.219  19.797  0.00  0.00    +0.000 C 
ATOM      3  O   UNL     1       1.345   1.818  20.508  0.00  0.00    +0.000 OA
ATOM      4  C   UNL     1       2.708   1.492  18.550  0.00  0.00    +0.000 C 
ATOM      5  C   UNL     1       3.805   2.135  17.707  0.00  0.00    +0.000 C 
ATOM      6  N   UNL     1       4.361   3.342  18.253  0.00  0.00    +0.000 N 
ATOM      7  N   UNL     1       5.251   4.086  17.577  0.00  0.00    +0.000 NA
ATOM      8  C   UNL     1       5.574   5.052  18.451  0.00  0.00    +0.000 A 
ATOM      9  C   UNL     1       4.834   4.927  19.659  0.00  0.00    +0.000 A 
ATOM     10  C   UNL     1       3.984   3.875  19.445  0.00  0.00    +0.000 A 
ENDROOT
BRANCH   8  11
ATOM     11  C   UNL     1       6.562   6.138  18.161  0.00  0.00    +0.000 A 
ATOM     12  C   UNL     1       7.726   6.357  18.880  0.00  0.00    +0.000 A 
ATOM     13  C   UNL     1       8.381   7.481  18.326  0.00  0.00    +0.000 A 
ATOM     14  C   UNL     1       7.603   7.931  17.287  0.00  0.00    +0.000 A 
ATOM     15  N   UNL     1       6.501   7.112  17.187  0.00  0.00    +0.000 N 
ATOM     16  C   UNL     1       5.421   7.341  16.251  0.00  0.00    +0.000 C 
ENDBRANCH   8  11
BRANCH   1  17
ATOM     17  C   UNL     1       2.325   4.217  21.297  0.00  0.00    +0.000 C 
BRANCH  17  19
ATOM     18  N   UNL     1       1.986   6.654  21.100  0.00  0.00    +0.000 N 
ATOM     19  C   UNL     1       1.465   5.385  20.852  0.00  0.00    +0.000 C 
ATOM     20  O   UNL     1       0.360   5.140  20.366  0.00  0.00    +0.000 OA
ATOM     21  H   UNL     1       2.859   6.704  21.616  0.00  0.00    +0.000 HD
BRANCH  18  29
ATOM     22  C   UNL     1       2.393   8.002  18.540  0.00  0.00    +0.000 C 
ATOM     23  C   UNL     1       1.499   8.570  19.614  0.00  0.00    +0.000 A 
ATOM     24  C   UNL     1       0.844   9.814  19.425  0.00  0.00    +0.000 A 
ATOM     25 CL   UNL     1       1.008  10.747  17.973  0.00  0.00    +0.000 Cl
ATOM     26  C   UNL     1       0.037  10.373  20.416  0.00  0.00    +0.000 A 
ATOM     27  C   UNL     1      -0.158   9.693  21.605  0.00  0.00    +0.000 A 
ATOM     28  C   UNL     1       0.467   8.463  21.809  0.00  0.00    +0.000 A 
ATOM     29  C   UNL     1       1.314   7.892  20.847  0.00  0.00    +0.000 A 
ENDBRANCH  18  29
ENDBRANCH  17  19
ENDBRANCH   1  17
TORSDOF 4
ENDMDL
MODEL 8
REMARK VINA RESULT:      -6.8      4.484      7.512
REMARK  Name = 
REMARK  6 active torsions:
REMARK  status: ('A' for Active; 'I' for Inactive)
REMARK    1  A    between atoms: C_1  and  C_2
REMARK    2  A    between atoms: C_8  and  N_9
REMARK    3  A    between atoms: C_10  and  C_12
REMARK    4  A    between atoms: C_12  and  N_13
REMARK    5  A    between atoms: C_20  and  C_21
REMARK    6  A    between atoms: N_25  and  C_26
REMARK                            x       y       z     vdW  Elec       q    Type
REMARK                         _______ _______ _______ _____ _____    ______ ____
ROOT
ATOM      1  N   UNL     1      -0.915  11.041  20.627  0.00  0.00    +0.000 N 
ATOM      2  C   UNL     1      -1.435  11.453  21.896  0.00  0.00    +0.000 C 
ATOM      3  O   UNL     1      -2.270  12.351  21.888  0.00  0.00    +0.000 OA
ATOM      4  C   UNL     1      -0.937  10.811  23.171  0.00  0.00    +0.000 C 
ATOM      5  C   UNL     1       0.043   9.649  23.045  0.00  0.00    +0.000 C 
ATOM      6  N   UNL     1       0.457   9.346  21.703  0.00  0.00    +0.000 N 
ATOM      7  N   UNL     1       1.224   8.282  21.416  0.00  0.00    +0.000 NA
ATOM      8  C   UNL     1       1.446   8.407  20.098  0.00  0.00    +0.000 A 
ATOM      9  C   UNL     1       0.765   9.534  19.562  0.00  0.00    +0.000 A 
ATOM     10  C   UNL     1       0.050  10.047  20.611  0.00  0.00    +0.000 A 
ENDROOT
BRANCH   8  11
ATOM     11  C   UNL     1       2.278   7.451  19.302  0.00  0.00    +0.000 A 
ATOM     12  C   UNL     1       2.948   7.775  18.133  0.00  0.00    +0.000 A 
ATOM     13  C   UNL     1       3.599   6.611  17.662  0.00  0.00    +0.000 A 
ATOM     14  C   UNL     1       3.309   5.600  18.546  0.00  0.00    +0.000 A 
ATOM     15  N   UNL     1       2.510   6.114  19.542  0.00  0.00    +0.000 N 
ATOM     16  C   UNL     1       1.942   5.308  20.602  0.00  0.00    +0.000 C 
ENDBRANCH   8  11
BRANCH   1  17
ATOM     17  C   UNL     1      -1.582  11.521  19.403  0.00  0.00    +0.000 C 
BRANCH  17  19
ATOM     18  N   UNL     1      -0.271  13.611  19.494  0.00  0.00    +0.000 N 
ATOM     19  C   UNL     1      -0.893  12.664  18.681  0.00  0.00    +0.000 C 
ATOM     20  O   UNL     1      -0.978  12.710  17.453  0.00  0.00    +0.000 OA
ATOM     21  H   UNL     1      -0.383  13.506  20.498  0.00  0.00    +0.000 HD
BRANCH  18  29
ATOM     22  C   UNL     1       2.605  13.606  18.983  0.00  0.00    +0.000 C 
ATOM     23  C   UNL     1       1.756  14.838  18.788  0.00  0.00    +0.000 A 
ATOM     24  C   UNL     1       2.344  16.062  18.376  0.00  0.00    +0.000 A 
ATOM     25 CL   UNL     1       4.041  16.226  18.060  0.00  0.00    +0.000 Cl
ATOM     26  C   UNL     1       1.583  17.220  18.217  0.00  0.00    +0.000 A 
ATOM     27  C   UNL     1       0.218  17.180  18.439  0.00  0.00    +0.000 A 
ATOM     28  C   UNL     1      -0.383  15.985  18.834  0.00  0.00    +0.000 A 
ATOM     29  C   UNL     1       0.360  14.811  19.038  0.00  0.00    +0.000 A 
ENDBRANCH  18  29
ENDBRANCH  17  19
ENDBRANCH   1  17
TORSDOF 4
ENDMDL
MODEL 9
REMARK VINA RESULT:      -6.8      3.758      5.868
REMARK  Name = 
REMARK  6 active torsions:
REMARK  status: ('A' for Active; 'I' for Inactive)
REMARK    1  A    between atoms: C_1  and  C_2
REMARK    2  A    between atoms: C_8  and  N_9
REMARK    3  A    between atoms: C_10  and  C_12
REMARK    4  A    between atoms: C_12  and  N_13
REMARK    5  A    between atoms: C_20  and  C_21
REMARK    6  A    between atoms: N_25  and  C_26
REMARK                            x       y       z     vdW  Elec       q    Type
REMARK                         _______ _______ _______ _____ _____    ______ ____
ROOT
ATOM      1  N   UNL     1       1.257   9.263  19.274  0.00  0.00    +0.000 N 
ATOM      2  C   UNL     1       0.572   9.269  20.531  0.00  0.00    +0.000 C 
ATOM      3  O   UNL     1      -0.146  10.235  20.766  0.00  0.00    +0.000 OA
ATOM      4  C   UNL     1       0.767   8.136  21.513  0.00  0.00    +0.000 C 
ATOM      5  C   UNL     1       1.621   6.952  21.071  0.00  0.00    +0.000 C 
ATOM      6  N   UNL     1       2.227   7.090  19.776  0.00  0.00    +0.000 N 
ATOM      7  N   UNL     1       2.911   6.090  19.198  0.00  0.00    +0.000 NA
ATOM      8  C   UNL     1       3.373   6.644  18.066  0.00  0.00    +0.000 A 
ATOM      9  C   UNL     1       2.923   7.985  17.925  0.00  0.00    +0.000 A 
ATOM     10  C   UNL     1       2.096   8.195  18.996  0.00  0.00    +0.000 A 
ENDROOT
BRANCH   8  11
ATOM     11  C   UNL     1       4.222   5.916  17.072  0.00  0.00    +0.000 A 
ATOM     12  C   UNL     1       5.069   6.528  16.162  0.00  0.00    +0.000 A 
ATOM     13  C   UNL     1       5.678   5.519  15.380  0.00  0.00    +0.000 A 
ATOM     14  C   UNL     1       5.187   4.314  15.821  0.00  0.00    +0.000 A 
ATOM     15  N   UNL     1       4.306   4.558  16.850  0.00  0.00    +0.000 N 
ATOM     16  C   UNL     1       3.534   3.520  17.500  0.00  0.00    +0.000 C 
ENDBRANCH   8  11
BRANCH   1  17
ATOM     17  C   UNL     1       0.871  10.257  18.256  0.00  0.00    +0.000 C 
BRANCH  17  19
ATOM     18  N   UNL     1      -1.308  11.411  18.358  0.00  0.00    +0.000 N 
ATOM     19  C   UNL     1      -0.603  10.299  17.901  0.00  0.00    +0.000 C 
ATOM     20  O   UNL     1      -1.082   9.338  17.297  0.00  0.00    +0.000 OA
ATOM     21  H   UNL     1      -0.806  12.068  18.947  0.00  0.00    +0.000 HD
BRANCH  18  29
ATOM     22  C   UNL     1      -2.822  12.508  20.603  0.00  0.00    +0.000 C 
ATOM     23  C   UNL     1      -3.478  12.142  19.294  0.00  0.00    +0.000 A 
ATOM     24  C   UNL     1      -4.877  12.291  19.121  0.00  0.00    +0.000 A 
ATOM     25 CL   UNL     1      -5.915  12.902  20.368  0.00  0.00    +0.000 Cl
ATOM     26  C   UNL     1      -5.509  11.931  17.930  0.00  0.00    +0.000 A 
ATOM     27  C   UNL     1      -4.757  11.442  16.877  0.00  0.00    +0.000 A 
ATOM     28  C   UNL     1      -3.377  11.299  17.020  0.00  0.00    +0.000 A 
ATOM     29  C   UNL     1      -2.717  11.617  18.217  0.00  0.00    +0.000 A 
ENDBRANCH  18  29
ENDBRANCH  17  19
ENDBRANCH   1  17
TORSDOF 4
ENDMDL
