MODEL 1
REMARK VINA RESULT:      -8.2      0.000      0.000
REMARK  Name = 
REMARK  5 active torsions:
REMARK  status: ('A' for Active; 'I' for Inactive)
REMARK    1  A    between atoms: C_1  and  C_2
REMARK    2  A    between atoms: C_2  and  C_3
REMARK    3  A    between atoms: C_7  and  N_8
REMARK    4  A    between atoms: N_8  and  C_9
REMARK    5  A    between atoms: N_12  and  C_13
REMARK                            x       y       z     vdW  Elec       q    Type
REMARK                         _______ _______ _______ _____ _____    ______ ____
ROOT
ATOM      1  N   UNL     1       3.177   6.969  18.084  0.00  0.00    +0.000 N 
ATOM      2  C   UNL     1       4.341   6.803  17.208  0.00  0.00    +0.000 C 
ATOM      3  C   UNL     1       2.560   8.212  18.196  0.00  0.00    +0.000 C 
ATOM      4  N   UNL     1       2.688   9.176  17.332  0.00  0.00    +0.000 NA
ATOM      5  N   UNL     1       1.829   8.401  19.351  0.00  0.00    +0.000 N 
ATOM      6  H   UNL     1       3.241   8.889  16.533  0.00  0.00    +0.000 HD
ATOM      7  H   UNL     1       2.396   8.310  20.179  0.00  0.00    +0.000 HD
ENDROOT
BRANCH   5   8
ATOM      8  C   UNL     1       0.747   9.312  19.466  0.00  0.00    +0.000 A 
ATOM      9  C   UNL     1       0.225   9.891  18.291  0.00  0.00    +0.000 A 
ATOM     10  C   UNL     1      -0.785  10.843  18.333  0.00  0.00    +0.000 A 
ATOM     11  C   UNL     1      -1.266  11.270  19.564  0.00  0.00    +0.000 A 
ATOM     12  C   UNL     1      -0.783  10.713  20.758  0.00  0.00    +0.000 A 
ATOM     13  C   UNL     1      -1.241  11.208  21.986  0.00  0.00    +0.000 A 
ATOM     14  C   UNL     1      -0.823  10.644  23.189  0.00  0.00    +0.000 A 
ATOM     15  C   UNL     1       0.011   9.535  23.173  0.00  0.00    +0.000 A 
ATOM     16  C   UNL     1       0.504   9.051  21.958  0.00  0.00    +0.000 A 
ATOM     17  C   UNL     1       0.173   9.661  20.724  0.00  0.00    +0.000 A 
ENDBRANCH   5   8
BRANCH   1  22
ATOM     18  C   UNL     1       2.052   4.118  20.284  0.00  0.00    +0.000 A 
ATOM     19  C   UNL     1       1.326   3.348  19.376  0.00  0.00    +0.000 A 
ATOM     20  C   UNL     1       1.209   3.767  18.048  0.00  0.00    +0.000 A 
ATOM     21  C   UNL     1       1.817   4.949  17.625  0.00  0.00    +0.000 A 
ATOM     22  C   UNL     1       2.559   5.755  18.504  0.00  0.00    +0.000 A 
ATOM     23  C   UNL     1       2.664   5.299  19.836  0.00  0.00    +0.000 A 
BRANCH  18  25
ATOM     24  C   UNL     1       1.584   2.322  21.993  0.00  0.00    +0.000 C 
ATOM     25  C   UNL     1       2.183   3.694  21.725  0.00  0.00    +0.000 C 
ENDBRANCH  18  25
ENDBRANCH   1  22
TORSDOF 3
ENDMDL
MODEL 2
REMARK VINA RESULT:      -8.0      0.893      1.584
REMARK  Name = 
REMARK  5 active torsions:
REMARK  status: ('A' for Active; 'I' for Inactive)
REMARK    1  A    between atoms: C_1  and  C_2
REMARK    2  A    between atoms: C_2  and  C_3
REMARK    3  A    between atoms: C_7  and  N_8
REMARK    4  A    between atoms: N_8  and  C_9
REMARK    5  A    between atoms: N_12  and  C_13
REMARK                            x       y       z     vdW  Elec       q    Type
REMARK                         _______ _______ _______ _____ _____    ______ ____
ROOT
ATOM      1  N   UNL     1       3.069   7.010  18.319  0.00  0.00    +0.000 N 
ATOM      2  C   UNL     1       4.167   6.738  17.385  0.00  0.00    +0.000 C 
ATOM      3  C   UNL     1       2.425   8.245  18.297  0.00  0.00    +0.000 C 
ATOM      4  N   UNL     1       2.458   9.072  17.295  0.00  0.00    +0.000 NA
ATOM      5  N   UNL     1       1.780   8.589  19.467  0.00  0.00    +0.000 N 
ATOM      6  H   UNL     1       2.956   8.681  16.504  0.00  0.00    +0.000 HD
ATOM      7  H   UNL     1       2.412   8.631  20.252  0.00  0.00    +0.000 HD
ENDROOT
BRANCH   5   8
ATOM      8  C   UNL     1       0.683   9.486  19.535  0.00  0.00    +0.000 A 
ATOM      9  C   UNL     1       0.203  10.057  18.338  0.00  0.00    +0.000 A 
ATOM     10  C   UNL     1      -0.819  10.997  18.335  0.00  0.00    +0.000 A 
ATOM     11  C   UNL     1      -1.356  11.420  19.544  0.00  0.00    +0.000 A 
ATOM     12  C   UNL     1      -0.915  10.872  20.758  0.00  0.00    +0.000 A 
ATOM     13  C   UNL     1      -1.430  11.364  21.966  0.00  0.00    +0.000 A 
ATOM     14  C   UNL     1      -1.055  10.808  23.186  0.00  0.00    +0.000 A 
ATOM     15  C   UNL     1      -0.208   9.709  23.208  0.00  0.00    +0.000 A 
ATOM     16  C   UNL     1       0.341   9.228  22.015  0.00  0.00    +0.000 A 
ATOM     17  C   UNL     1       0.054   9.832  20.767  0.00  0.00    +0.000 A 
ENDBRANCH   5   8
BRANCH   1  22
ATOM     18  C   UNL     1       2.003   3.444  18.936  0.00  0.00    +0.000 A 
ATOM     19  C   UNL     1       1.455   3.545  20.215  0.00  0.00    +0.000 A 
ATOM     20  C   UNL     1       1.439   4.780  20.868  0.00  0.00    +0.000 A 
ATOM     21  C   UNL     1       1.963   5.914  20.247  0.00  0.00    +0.000 A 
ATOM     22  C   UNL     1       2.522   5.861  18.959  0.00  0.00    +0.000 A 
ATOM     23  C   UNL     1       2.516   4.599  18.324  0.00  0.00    +0.000 A 
BRANCH  18  25
ATOM     24  C   UNL     1       3.451   1.555  18.099  0.00  0.00    +0.000 C 
ATOM     25  C   UNL     1       2.043   2.121  18.215  0.00  0.00    +0.000 C 
ENDBRANCH  18  25
ENDBRANCH   1  22
TORSDOF 3
ENDMDL
MODEL 3
REMARK VINA RESULT:      -7.9      3.835      6.927
REMARK  Name = 
REMARK  5 active torsions:
REMARK  status: ('A' for Active; 'I' for Inactive)
REMARK    1  A    between atoms: C_1  and  C_2
REMARK    2  A    between atoms: C_2  and  C_3
REMARK    3  A    between atoms: C_7  and  N_8
REMARK    4  A    between atoms: N_8  and  C_9
REMARK    5  A    between atoms: N_12  and  C_13
REMARK                            x       y       z     vdW  Elec       q    Type
REMARK                         _______ _______ _______ _____ _____    ______ ____
ROOT
ATOM      1  N   UNL     1       6.466   5.245  15.859  0.00  0.00    +0.000 N 
ATOM      2  C   UNL     1       7.259   5.129  14.631  0.00  0.00    +0.000 C 
ATOM      3  C   UNL     1       5.327   4.463  16.029  0.00  0.00    +0.000 C 
ATOM      4  N   UNL     1       5.076   3.375  15.363  0.00  0.00    +0.000 NA
ATOM      5  N   UNL     1       4.407   4.959  16.932  0.00  0.00    +0.000 N 
ATOM      6  H   UNL     1       5.843   3.129  14.749  0.00  0.00    +0.000 HD
ATOM      7  H   UNL     1       4.068   5.870  16.667  0.00  0.00    +0.000 HD
ENDROOT
BRANCH   5   8
ATOM      8  C   UNL     1       3.473   4.155  17.635  0.00  0.00    +0.000 A 
ATOM      9  C   UNL     1       3.243   2.838  17.187  0.00  0.00    +0.000 A 
ATOM     10  C   UNL     1       2.292   2.020  17.782  0.00  0.00    +0.000 A 
ATOM     11  C   UNL     1       1.517   2.522  18.819  0.00  0.00    +0.000 A 
ATOM     12  C   UNL     1       1.718   3.823  19.303  0.00  0.00    +0.000 A 
ATOM     13  C   UNL     1       0.878   4.326  20.306  0.00  0.00    +0.000 A 
ATOM     14  C   UNL     1       1.082   5.592  20.848  0.00  0.00    +0.000 A 
ATOM     15  C   UNL     1       2.171   6.347  20.434  0.00  0.00    +0.000 A 
ATOM     16  C   UNL     1       2.998   5.875  19.411  0.00  0.00    +0.000 A 
ATOM     17  C   UNL     1       2.761   4.633  18.774  0.00  0.00    +0.000 A 
ENDBRANCH   5   8
BRANCH   1  22
ATOM     18  C   UNL     1       7.993   7.998  17.938  0.00  0.00    +0.000 A 
ATOM     19  C   UNL     1       8.392   7.289  19.070  0.00  0.00    +0.000 A 
ATOM     20  C   UNL     1       8.159   5.914  19.147  0.00  0.00    +0.000 A 
ATOM     21  C   UNL     1       7.533   5.245  18.096  0.00  0.00    +0.000 A 
ATOM     22  C   UNL     1       7.115   5.917  16.935  0.00  0.00    +0.000 A 
ATOM     23  C   UNL     1       7.373   7.305  16.887  0.00  0.00    +0.000 A 
BRANCH  18  25
ATOM     24  C   UNL     1       9.108  10.023  18.949  0.00  0.00    +0.000 C 
ATOM     25  C   UNL     1       8.222   9.485  17.836  0.00  0.00    +0.000 C 
ENDBRANCH  18  25
ENDBRANCH   1  22
TORSDOF 3
ENDMDL
MODEL 4
REMARK VINA RESULT:      -7.8      3.236      5.480
REMARK  Name = 
REMARK  5 active torsions:
REMARK  status: ('A' for Active; 'I' for Inactive)
REMARK    1  A    between atoms: C_1  and  C_2
REMARK    2  A    between atoms: C_2  and  C_3
REMARK    3  A    between atoms: C_7  and  N_8
REMARK    4  A    between atoms: N_8  and  C_9
REMARK    5  A    between atoms: N_12  and  C_13
REMARK                            x       y       z     vdW  Elec       q    Type
REMARK                         _______ _______ _______ _____ _____    ______ ____
ROOT
ATOM      1  N   UNL     1       0.609  11.718  19.724  0.00  0.00    +0.000 N 
ATOM      2  C   UNL     1       1.624  12.714  20.081  0.00  0.00    +0.000 C 
ATOM      3  C   UNL     1      -0.480  12.082  18.937  0.00  0.00    +0.000 C 
ATOM      4  N   UNL     1      -0.519  13.140  18.183  0.00  0.00    +0.000 NA
ATOM      5  N   UNL     1      -1.586  11.265  19.055  0.00  0.00    +0.000 N 
ATOM      6  H   UNL     1       0.365  13.635  18.187  0.00  0.00    +0.000 HD
ATOM      7  H   UNL     1      -1.938  11.235  19.999  0.00  0.00    +0.000 HD
ENDROOT
BRANCH   5   8
ATOM      8  C   UNL     1      -2.571  11.114  18.045  0.00  0.00    +0.000 A 
ATOM      9  C   UNL     1      -2.239  10.393  16.880  0.00  0.00    +0.000 A 
ATOM     10  C   UNL     1      -3.128  10.266  15.821  0.00  0.00    +0.000 A 
ATOM     11  C   UNL     1      -4.362  10.899  15.890  0.00  0.00    +0.000 A 
ATOM     12  C   UNL     1      -4.738  11.618  17.034  0.00  0.00    +0.000 A 
ATOM     13  C   UNL     1      -5.963  12.300  17.050  0.00  0.00    +0.000 A 
ATOM     14  C   UNL     1      -6.392  12.980  18.187  0.00  0.00    +0.000 A 
ATOM     15  C   UNL     1      -5.628  12.932  19.344  0.00  0.00    +0.000 A 
ATOM     16  C   UNL     1      -4.388  12.285  19.335  0.00  0.00    +0.000 A 
ATOM     17  C   UNL     1      -3.881  11.666  18.167  0.00  0.00    +0.000 A 
ENDBRANCH   5   8
BRANCH   1  22
ATOM     18  C   UNL     1       1.935   8.245  19.077  0.00  0.00    +0.000 A 
ATOM     19  C   UNL     1       1.786   7.662  20.335  0.00  0.00    +0.000 A 
ATOM     20  C   UNL     1       1.254   8.409  21.388  0.00  0.00    +0.000 A 
ATOM     21  C   UNL     1       0.866   9.734  21.188  0.00  0.00    +0.000 A 
ATOM     22  C   UNL     1       0.994  10.362  19.937  0.00  0.00    +0.000 A 
ATOM     23  C   UNL     1       1.529   9.576  18.893  0.00  0.00    +0.000 A 
BRANCH  18  25
ATOM     24  C   UNL     1       2.649   5.978  18.229  0.00  0.00    +0.000 C 
ATOM     25  C   UNL     1       2.519   7.464  17.927  0.00  0.00    +0.000 C 
ENDBRANCH  18  25
ENDBRANCH   1  22
TORSDOF 3
ENDMDL
MODEL 5
REMARK VINA RESULT:      -7.8      2.545      5.095
REMARK  Name = 
REMARK  5 active torsions:
REMARK  status: ('A' for Active; 'I' for Inactive)
REMARK    1  A    between atoms: C_1  and  C_2
REMARK    2  A    between atoms: C_2  and  C_3
REMARK    3  A    between atoms: C_7  and  N_8
REMARK    4  A    between atoms: N_8  and  C_9
REMARK    5  A    between atoms: N_12  and  C_13
REMARK                            x       y       z     vdW  Elec       q    Type
REMARK                         _______ _______ _______ _____ _____    ______ ____
ROOT
ATOM      1  N   UNL     1       4.512   5.420  17.259  0.00  0.00    +0.000 N 
ATOM      2  C   UNL     1       4.587   4.261  16.365  0.00  0.00    +0.000 C 
ATOM      3  C   UNL     1       3.287   5.810  17.794  0.00  0.00    +0.000 C 
ATOM      4  N   UNL     1       2.240   5.043  17.868  0.00  0.00    +0.000 NA
ATOM      5  N   UNL     1       3.218   7.128  18.197  0.00  0.00    +0.000 N 
ATOM      6  H   UNL     1       2.443   4.103  17.547  0.00  0.00    +0.000 HD
ATOM      7  H   UNL     1       3.393   7.768  17.438  0.00  0.00    +0.000 HD
ENDROOT
BRANCH   5   8
ATOM      8  C   UNL     1       2.324   7.609  19.189  0.00  0.00    +0.000 A 
ATOM      9  C   UNL     1       2.045   6.788  20.301  0.00  0.00    +0.000 A 
ATOM     10  C   UNL     1       1.127   7.162  21.273  0.00  0.00    +0.000 A 
ATOM     11  C   UNL     1       0.432   8.356  21.127  0.00  0.00    +0.000 A 
ATOM     12  C   UNL     1       0.685   9.208  20.043  0.00  0.00    +0.000 A 
ATOM     13  C   UNL     1      -0.076  10.375  19.887  0.00  0.00    +0.000 A 
ATOM     14  C   UNL     1       0.184  11.270  18.853  0.00  0.00    +0.000 A 
ATOM     15  C   UNL     1       1.251  11.038  17.997  0.00  0.00    +0.000 A 
ATOM     16  C   UNL     1       1.998   9.863  18.117  0.00  0.00    +0.000 A 
ATOM     17  C   UNL     1       1.700   8.887  19.099  0.00  0.00    +0.000 A 
ENDBRANCH   5   8
BRANCH   1  22
ATOM     18  C   UNL     1       7.540   7.575  17.906  0.00  0.00    +0.000 A 
ATOM     19  C   UNL     1       8.246   6.782  18.811  0.00  0.00    +0.000 A 
ATOM     20  C   UNL     1       7.726   5.546  19.203  0.00  0.00    +0.000 A 
ATOM     21  C   UNL     1       6.507   5.099  18.694  0.00  0.00    +0.000 A 
ATOM     22  C   UNL     1       5.763   5.863  17.779  0.00  0.00    +0.000 A 
ATOM     23  C   UNL     1       6.320   7.103  17.398  0.00  0.00    +0.000 A 
BRANCH  18  25
ATOM     24  C   UNL     1       8.803   9.649  18.594  0.00  0.00    +0.000 C 
ATOM     25  C   UNL     1       8.074   8.918  17.477  0.00  0.00    +0.000 C 
ENDBRANCH  18  25
ENDBRANCH   1  22
TORSDOF 3
ENDMDL
MODEL 6
REMARK VINA RESULT:      -7.7      3.096      4.999
REMARK  Name = 
REMARK  5 active torsions:
REMARK  status: ('A' for Active; 'I' for Inactive)
REMARK    1  A    between atoms: C_1  and  C_2
REMARK    2  A    between atoms: C_2  and  C_3
REMARK    3  A    between atoms: C_7  and  N_8
REMARK    4  A    between atoms: N_8  and  C_9
REMARK    5  A    between atoms: N_12  and  C_13
REMARK                            x       y       z     vdW  Elec       q    Type
REMARK                         _______ _______ _______ _____ _____    ______ ____
ROOT
ATOM      1  N   UNL     1       0.583  11.004  19.689  0.00  0.00    +0.000 N 
ATOM      2  C   UNL     1       1.407  11.907  20.498  0.00  0.00    +0.000 C 
ATOM      3  C   UNL     1      -0.579  11.475  19.084  0.00  0.00    +0.000 C 
ATOM      4  N   UNL     1      -0.838  12.730  18.867  0.00  0.00    +0.000 NA
ATOM      5  N   UNL     1      -1.512  10.505  18.774  0.00  0.00    +0.000 N 
ATOM      6  H   UNL     1      -0.060  13.322  19.133  0.00  0.00    +0.000 HD
ATOM      7  H   UNL     1      -1.821  10.001  19.590  0.00  0.00    +0.000 HD
ENDROOT
BRANCH   5   8
ATOM      8  C   UNL     1      -2.484  10.637  17.749  0.00  0.00    +0.000 A 
ATOM      9  C   UNL     1      -2.207  10.087  16.481  0.00  0.00    +0.000 A 
ATOM     10  C   UNL     1      -3.080  10.240  15.412  0.00  0.00    +0.000 A 
ATOM     11  C   UNL     1      -4.236  10.991  15.581  0.00  0.00    +0.000 A 
ATOM     12  C   UNL     1      -4.556  11.548  16.828  0.00  0.00    +0.000 A 
ATOM     13  C   UNL     1      -5.696  12.354  16.953  0.00  0.00    +0.000 A 
ATOM     14  C   UNL     1      -6.073  12.879  18.186  0.00  0.00    +0.000 A 
ATOM     15  C   UNL     1      -5.347  12.552  19.322  0.00  0.00    +0.000 A 
ATOM     16  C   UNL     1      -4.188  11.778  19.209  0.00  0.00    +0.000 A 
ATOM     17  C   UNL     1      -3.725  11.308  17.956  0.00  0.00    +0.000 A 
ENDBRANCH   5   8
BRANCH   1  22
ATOM     18  C   UNL     1       1.847   7.452  19.822  0.00  0.00    +0.000 A 
ATOM     19  C   UNL     1       2.461   7.338  18.574  0.00  0.00    +0.000 A 
ATOM     20  C   UNL     1       2.456   8.425  17.697  0.00  0.00    +0.000 A 
ATOM     21  C   UNL     1       1.845   9.625  18.062  0.00  0.00    +0.000 A 
ATOM     22  C   UNL     1       1.218   9.786  19.309  0.00  0.00    +0.000 A 
ATOM     23  C   UNL     1       1.247   8.671  20.174  0.00  0.00    +0.000 A 
BRANCH  18  25
ATOM     24  C   UNL     1       2.571   5.073  20.251  0.00  0.00    +0.000 C 
ATOM     25  C   UNL     1       1.827   6.290  20.782  0.00  0.00    +0.000 C 
ENDBRANCH  18  25
ENDBRANCH   1  22
TORSDOF 3
ENDMDL
MODEL 7
REMARK VINA RESULT:      -7.6      3.239      5.983
REMARK  Name = 
REMARK  5 active torsions:
REMARK  status: ('A' for Active; 'I' for Inactive)
REMARK    1  A    between atoms: C_1  and  C_2
REMARK    2  A    between atoms: C_2  and  C_3
REMARK    3  A    between atoms: C_7  and  N_8
REMARK    4  A    between atoms: N_8  and  C_9
REMARK    5  A    between atoms: N_12  and  C_13
REMARK                            x       y       z     vdW  Elec       q    Type
REMARK                         _______ _______ _______ _____ _____    ______ ____
ROOT
ATOM      1  N   UNL     1       0.439  12.424  20.515  0.00  0.00    +0.000 N 
ATOM      2  C   UNL     1       1.579  13.316  20.753  0.00  0.00    +0.000 C 
ATOM      3  C   UNL     1      -0.767  12.942  20.053  0.00  0.00    +0.000 C 
ATOM      4  N   UNL     1      -0.895  14.097  19.470  0.00  0.00    +0.000 NA
ATOM      5  N   UNL     1      -1.877  12.165  20.317  0.00  0.00    +0.000 N 
ATOM      6  H   UNL     1       0.002  14.547  19.334  0.00  0.00    +0.000 HD
ATOM      7  H   UNL     1      -2.011  12.017  21.305  0.00  0.00    +0.000 HD
ENDROOT
BRANCH   5   8
ATOM      8  C   UNL     1      -3.071  12.200  19.551  0.00  0.00    +0.000 A 
ATOM      9  C   UNL     1      -4.209  12.824  20.102  0.00  0.00    +0.000 A 
ATOM     10  C   UNL     1      -5.429  12.833  19.440  0.00  0.00    +0.000 A 
ATOM     11  C   UNL     1      -5.547  12.175  18.222  0.00  0.00    +0.000 A 
ATOM     12  C   UNL     1      -4.438  11.549  17.633  0.00  0.00    +0.000 A 
ATOM     13  C   UNL     1      -4.601  10.838  16.436  0.00  0.00    +0.000 A 
ATOM     14  C   UNL     1      -3.513  10.250  15.795  0.00  0.00    +0.000 A 
ATOM     15  C   UNL     1      -2.238  10.422  16.314  0.00  0.00    +0.000 A 
ATOM     16  C   UNL     1      -2.062  11.099  17.524  0.00  0.00    +0.000 A 
ATOM     17  C   UNL     1      -3.159  11.626  18.248  0.00  0.00    +0.000 A 
ENDBRANCH   5   8
BRANCH   1  22
ATOM     18  C   UNL     1       1.516   9.066  19.173  0.00  0.00    +0.000 A 
ATOM     19  C   UNL     1       1.425   8.277  20.319  0.00  0.00    +0.000 A 
ATOM     20  C   UNL     1       1.011   8.849  21.525  0.00  0.00    +0.000 A 
ATOM     21  C   UNL     1       0.686  10.203  21.588  0.00  0.00    +0.000 A 
ATOM     22  C   UNL     1       0.761  11.037  20.460  0.00  0.00    +0.000 A 
ATOM     23  C   UNL     1       1.175  10.425  19.256  0.00  0.00    +0.000 A 
BRANCH  18  25
ATOM     24  C   UNL     1       2.686   7.143  18.032  0.00  0.00    +0.000 C 
ATOM     25  C   UNL     1       1.972   8.476  17.863  0.00  0.00    +0.000 C 
ENDBRANCH  18  25
ENDBRANCH   1  22
TORSDOF 3
ENDMDL
MODEL 8
REMARK VINA RESULT:      -7.6      1.415      6.482
REMARK  Name = 
REMARK  5 active torsions:
REMARK  status: ('A' for Active; 'I' for Inactive)
REMARK    1  A    between atoms: C_1  and  C_2
REMARK    2  A    between atoms: C_2  and  C_3
REMARK    3  A    between atoms: C_7  and  N_8
REMARK    4  A    between atoms: N_8  and  C_9
REMARK    5  A    between atoms: N_12  and  C_13
REMARK                            x       y       z     vdW  Elec       q    Type
REMARK                         _______ _______ _______ _____ _____    ______ ____
ROOT
ATOM      1  N   UNL     1       0.582  10.586  19.215  0.00  0.00    +0.000 N 
ATOM      2  C   UNL     1       0.199  11.913  18.722  0.00  0.00    +0.000 C 
ATOM      3  C   UNL     1       1.445   9.787  18.469  0.00  0.00    +0.000 C 
ATOM      4  N   UNL     1       2.236  10.231  17.538  0.00  0.00    +0.000 NA
ATOM      5  N   UNL     1       1.365   8.435  18.733  0.00  0.00    +0.000 N 
ATOM      6  H   UNL     1       2.196  11.241  17.465  0.00  0.00    +0.000 HD
ATOM      7  H   UNL     1       0.443   8.067  18.558  0.00  0.00    +0.000 HD
ENDROOT
BRANCH   5   8
ATOM      8  C   UNL     1       2.426   7.519  18.511  0.00  0.00    +0.000 A 
ATOM      9  C   UNL     1       3.376   7.816  17.511  0.00  0.00    +0.000 A 
ATOM     10  C   UNL     1       4.398   6.933  17.190  0.00  0.00    +0.000 A 
ATOM     11  C   UNL     1       4.466   5.707  17.839  0.00  0.00    +0.000 A 
ATOM     12  C   UNL     1       3.548   5.374  18.846  0.00  0.00    +0.000 A 
ATOM     13  C   UNL     1       3.601   4.105  19.439  0.00  0.00    +0.000 A 
ATOM     14  C   UNL     1       2.741   3.760  20.478  0.00  0.00    +0.000 A 
ATOM     15  C   UNL     1       1.858   4.705  20.980  0.00  0.00    +0.000 A 
ATOM     16  C   UNL     1       1.769   5.964  20.378  0.00  0.00    +0.000 A 
ATOM     17  C   UNL     1       2.563   6.313  19.259  0.00  0.00    +0.000 A 
ENDBRANCH   5   8
BRANCH   1  22
ATOM     18  C   UNL     1      -1.007  10.864  22.625  0.00  0.00    +0.000 A 
ATOM     19  C   UNL     1      -0.302   9.888  23.330  0.00  0.00    +0.000 A 
ATOM     20  C   UNL     1       0.689   9.145  22.685  0.00  0.00    +0.000 A 
ATOM     21  C   UNL     1       0.981   9.375  21.340  0.00  0.00    +0.000 A 
ATOM     22  C   UNL     1       0.299  10.348  20.591  0.00  0.00    +0.000 A 
ATOM     23  C   UNL     1      -0.692  11.086  21.276  0.00  0.00    +0.000 A 
BRANCH  18  25
ATOM     24  C   UNL     1      -1.853  13.170  23.200  0.00  0.00    +0.000 C 
ATOM     25  C   UNL     1      -2.089  11.670  23.296  0.00  0.00    +0.000 C 
ENDBRANCH  18  25
ENDBRANCH   1  22
TORSDOF 3
ENDMDL
MODEL 9
REMARK VINA RESULT:      -7.5      2.012      7.188
REMARK  Name = 
REMARK  5 active torsions:
REMARK  status: ('A' for Active; 'I' for Inactive)
REMARK    1  A    between atoms: C_1  and  C_2
REMARK    2  A    between atoms: C_2  and  C_3
REMARK    3  A    between atoms: C_7  and  N_8
REMARK    4  A    between atoms: N_8  and  C_9
REMARK    5  A    between atoms: N_12  and  C_13
REMARK                            x       y       z     vdW  Elec       q    Type
REMARK                         _______ _______ _______ _____ _____    ______ ____
ROOT
ATOM      1  N   UNL     1       1.317   8.782  20.809  0.00  0.00    +0.000 N 
ATOM      2  C   UNL     1       1.076   9.091  22.223  0.00  0.00    +0.000 C 
ATOM      3  C   UNL     1       1.830   7.541  20.445  0.00  0.00    +0.000 C 
ATOM      4  N   UNL     1       1.795   6.482  21.197  0.00  0.00    +0.000 NA
ATOM      5  N   UNL     1       2.465   7.508  19.220  0.00  0.00    +0.000 N 
ATOM      6  H   UNL     1       1.289   6.653  22.058  0.00  0.00    +0.000 HD
ATOM      7  H   UNL     1       3.248   8.142  19.179  0.00  0.00    +0.000 HD
ENDROOT
BRANCH   5   8
ATOM      8  C   UNL     1       2.604   6.338  18.429  0.00  0.00    +0.000 A 
ATOM      9  C   UNL     1       1.542   5.410  18.405  0.00  0.00    +0.000 A 
ATOM     10  C   UNL     1       1.637   4.210  17.712  0.00  0.00    +0.000 A 
ATOM     11  C   UNL     1       2.821   3.894  17.059  0.00  0.00    +0.000 A 
ATOM     12  C   UNL     1       3.899   4.792  17.049  0.00  0.00    +0.000 A 
ATOM     13  C   UNL     1       5.104   4.419  16.437  0.00  0.00    +0.000 A 
ATOM     14  C   UNL     1       6.176   5.304  16.361  0.00  0.00    +0.000 A 
ATOM     15  C   UNL     1       6.032   6.597  16.843  0.00  0.00    +0.000 A 
ATOM     16  C   UNL     1       4.849   6.974  17.487  0.00  0.00    +0.000 A 
ATOM     17  C   UNL     1       3.776   6.068  17.663  0.00  0.00    +0.000 A 
ENDBRANCH   5   8
BRANCH   1  22
ATOM     18  C   UNL     1      -1.196  10.200  18.378  0.00  0.00    +0.000 A 
ATOM     19  C   UNL     1      -0.594  11.414  18.047  0.00  0.00    +0.000 A 
ATOM     20  C   UNL     1       0.631  11.761  18.622  0.00  0.00    +0.000 A 
ATOM     21  C   UNL     1       1.258  10.900  19.522  0.00  0.00    +0.000 A 
ATOM     22  C   UNL     1       0.690   9.666  19.884  0.00  0.00    +0.000 A 
ATOM     23  C   UNL     1      -0.544   9.343  19.279  0.00  0.00    +0.000 A 
BRANCH  18  25
ATOM     24  C   UNL     1      -2.790  10.481  16.443  0.00  0.00    +0.000 C 
ATOM     25  C   UNL     1      -2.523   9.808  17.781  0.00  0.00    +0.000 C 
ENDBRANCH  18  25
ENDBRANCH   1  22
TORSDOF 3
ENDMDL
