MODEL 1
REMARK VINA RESULT:      -7.2      0.000      0.000
REMARK  Name = 
REMARK  5 active torsions:
REMARK  status: ('A' for Active; 'I' for Inactive)
REMARK    1  A    between atoms: C_1  and  C_2
REMARK    2  A    between atoms: C_2  and  C_3
REMARK    3  A    between atoms: C_2  and  N_5
REMARK    4  A    between atoms: C_3  and  O_4
REMARK    5  A    between atoms: N_8  and  C_9
REMARK                            x       y       z     vdW  Elec       q    Type
REMARK                         _______ _______ _______ _____ _____    ______ ____
ROOT
ATOM      1  N   UNL     1       1.091   2.863  19.099  0.00  0.00    +0.000 NA
ATOM      2  C   UNL     1       1.223   3.924  18.060  0.00  0.00    +0.000 C 
ATOM      3  C   UNL     1       2.513   4.773  18.157  0.00  0.00    +0.000 C 
ATOM      4  N   UNL     1       3.713   3.922  18.162  0.00  0.00    +0.000 N 
ATOM      5  C   UNL     1       3.650   2.739  19.044  0.00  0.00    +0.000 C 
ATOM      6  C   UNL     1       2.296   2.003  18.938  0.00  0.00    +0.000 C 
ENDROOT
BRANCH   4   7
ATOM      7  C   UNL     1       4.823   4.184  17.330  0.00  0.00    +0.000 A 
ATOM      8  C   UNL     1       4.680   4.055  16.001  0.00  0.00    +0.000 A 
ATOM      9  C   UNL     1       5.579   4.259  14.900  0.00  0.00    +0.000 A 
ATOM     10  C   UNL     1       6.862   4.623  14.915  0.00  0.00    +0.000 A 
ATOM     11  C   UNL     1       7.688   4.895  16.049  0.00  0.00    +0.000 A 
ATOM     12  C   UNL     1       7.373   4.876  17.346  0.00  0.00    +0.000 A 
ATOM     13  C   UNL     1       6.104   4.573  18.046  0.00  0.00    +0.000 A 
ATOM     14  O   UNL     1       6.139   4.630  19.282  0.00  0.00    +0.000 OA
ENDBRANCH   4   7
BRANCH   1  16
ATOM     15  C   UNL     1       1.684   2.580  21.507  0.00  0.00    +0.000 C 
ATOM     16  C   UNL     1       0.907   3.416  20.466  0.00  0.00    +0.000 C 
BRANCH  16  17
ATOM     17  C   UNL     1       1.365   4.893  20.631  0.00  0.00    +0.000 C 
BRANCH  17  18
ATOM     18  O   UNL     1       2.496   4.988  21.501  0.00  0.00    +0.000 OA
ATOM     19  H   UNL     1       3.245   5.303  20.967  0.00  0.00    +0.000 HD
ENDBRANCH  17  18
ENDBRANCH  16  17
ENDBRANCH   1  16
TORSDOF 4
ENDMDL
MODEL 2
REMARK VINA RESULT:      -7.1      2.506      6.159
REMARK  Name = 
REMARK  5 active torsions:
REMARK  status: ('A' for Active; 'I' for Inactive)
REMARK    1  A    between atoms: C_1  and  C_2
REMARK    2  A    between atoms: C_2  and  C_3
REMARK    3  A    between atoms: C_2  and  N_5
REMARK    4  A    between atoms: C_3  and  O_4
REMARK    5  A    between atoms: N_8  and  C_9
REMARK                            x       y       z     vdW  Elec       q    Type
REMARK                         _______ _______ _______ _____ _____    ______ ____
ROOT
ATOM      1  N   UNL     1       6.652   6.328  17.169  0.00  0.00    +0.000 NA
ATOM      2  C   UNL     1       6.615   4.963  17.766  0.00  0.00    +0.000 C 
ATOM      3  C   UNL     1       5.671   4.809  18.983  0.00  0.00    +0.000 C 
ATOM      4  N   UNL     1       4.306   5.254  18.658  0.00  0.00    +0.000 N 
ATOM      5  C   UNL     1       4.211   6.530  17.924  0.00  0.00    +0.000 C 
ATOM      6  C   UNL     1       5.246   6.625  16.780  0.00  0.00    +0.000 C 
ENDROOT
BRANCH   4   7
ATOM      7  C   UNL     1       3.170   4.477  18.972  0.00  0.00    +0.000 A 
ATOM      8  C   UNL     1       2.531   4.704  20.131  0.00  0.00    +0.000 A 
ATOM      9  C   UNL     1       1.363   4.122  20.730  0.00  0.00    +0.000 A 
ATOM     10  C   UNL     1       0.586   3.136  20.280  0.00  0.00    +0.000 A 
ATOM     11  C   UNL     1       0.725   2.386  19.071  0.00  0.00    +0.000 A 
ATOM     12  C   UNL     1       1.639   2.506  18.106  0.00  0.00    +0.000 A 
ATOM     13  C   UNL     1       2.792   3.422  17.949  0.00  0.00    +0.000 A 
ATOM     14  O   UNL     1       3.470   3.270  16.925  0.00  0.00    +0.000 OA
ENDBRANCH   4   7
BRANCH   1  16
ATOM     15  C   UNL     1       8.343   6.685  18.970  0.00  0.00    +0.000 C 
ATOM     16  C   UNL     1       7.266   7.335  18.074  0.00  0.00    +0.000 C 
BRANCH  16  17
ATOM     17  C   UNL     1       7.940   8.532  17.343  0.00  0.00    +0.000 C 
BRANCH  17  18
ATOM     18  O   UNL     1       8.460   9.480  18.278  0.00  0.00    +0.000 OA
ATOM     19  H   UNL     1       9.320   9.143  18.583  0.00  0.00    +0.000 HD
ENDBRANCH  17  18
ENDBRANCH  16  17
ENDBRANCH   1  16
TORSDOF 4
ENDMDL
MODEL 3
REMARK VINA RESULT:      -7.0      2.351      6.012
REMARK  Name = 
REMARK  5 active torsions:
REMARK  status: ('A' for Active; 'I' for Inactive)
REMARK    1  A    between atoms: C_1  and  C_2
REMARK    2  A    between atoms: C_2  and  C_3
REMARK    3  A    between atoms: C_2  and  N_5
REMARK    4  A    between atoms: C_3  and  O_4
REMARK    5  A    between atoms: N_8  and  C_9
REMARK                            x       y       z     vdW  Elec       q    Type
REMARK                         _______ _______ _______ _____ _____    ______ ____
ROOT
ATOM      1  N   UNL     1       6.680   6.368  17.090  0.00  0.00    +0.000 NA
ATOM      2  C   UNL     1       6.666   4.980  17.633  0.00  0.00    +0.000 C 
ATOM      3  C   UNL     1       5.694   4.752  18.815  0.00  0.00    +0.000 C 
ATOM      4  N   UNL     1       4.326   5.171  18.469  0.00  0.00    +0.000 N 
ATOM      5  C   UNL     1       4.214   6.472  17.781  0.00  0.00    +0.000 C 
ATOM      6  C   UNL     1       5.277   6.641  16.672  0.00  0.00    +0.000 C 
ENDROOT
BRANCH   4   7
ATOM      7  C   UNL     1       3.205   4.351  18.719  0.00  0.00    +0.000 A 
ATOM      8  C   UNL     1       3.009   3.269  17.949  0.00  0.00    +0.000 A 
ATOM      9  C   UNL     1       2.006   2.242  17.949  0.00  0.00    +0.000 A 
ATOM     10  C   UNL     1       0.938   2.104  18.737  0.00  0.00    +0.000 A 
ATOM     11  C   UNL     1       0.506   2.965  19.793  0.00  0.00    +0.000 A 
ATOM     12  C   UNL     1       1.071   4.083  20.254  0.00  0.00    +0.000 A 
ATOM     13  C   UNL     1       2.299   4.806  19.849  0.00  0.00    +0.000 A 
ATOM     14  O   UNL     1       2.550   5.841  20.478  0.00  0.00    +0.000 OA
ENDBRANCH   4   7
BRANCH   1  16
ATOM     15  C   UNL     1       8.320   6.705  18.942  0.00  0.00    +0.000 C 
ATOM     16  C   UNL     1       7.240   7.356  18.050  0.00  0.00    +0.000 C 
BRANCH  16  17
ATOM     17  C   UNL     1       7.886   8.605  17.386  0.00  0.00    +0.000 C 
BRANCH  17  18
ATOM     18  O   UNL     1       8.602   9.386  18.345  0.00  0.00    +0.000 OA
ATOM     19  H   UNL     1       8.051   9.436  19.145  0.00  0.00    +0.000 HD
ENDBRANCH  17  18
ENDBRANCH  16  17
ENDBRANCH   1  16
TORSDOF 4
ENDMDL
MODEL 4
REMARK VINA RESULT:      -6.9      2.234      3.445
REMARK  Name = 
REMARK  5 active torsions:
REMARK  status: ('A' for Active; 'I' for Inactive)
REMARK    1  A    between atoms: C_1  and  C_2
REMARK    2  A    between atoms: C_2  and  C_3
REMARK    3  A    between atoms: C_2  and  N_5
REMARK    4  A    between atoms: C_3  and  O_4
REMARK    5  A    between atoms: N_8  and  C_9
REMARK                            x       y       z     vdW  Elec       q    Type
REMARK                         _______ _______ _______ _____ _____    ______ ____
ROOT
ATOM      1  N   UNL     1       4.681   5.333  18.927  0.00  0.00    +0.000 NA
ATOM      2  C   UNL     1       5.198   4.043  18.390  0.00  0.00    +0.000 C 
ATOM      3  C   UNL     1       4.728   3.699  16.956  0.00  0.00    +0.000 C 
ATOM      4  N   UNL     1       5.032   4.792  16.019  0.00  0.00    +0.000 N 
ATOM      5  C   UNL     1       4.706   6.150  16.499  0.00  0.00    +0.000 C 
ATOM      6  C   UNL     1       5.140   6.372  17.965  0.00  0.00    +0.000 C 
ENDROOT
BRANCH   4   7
ATOM      7  C   UNL     1       5.653   4.562  14.773  0.00  0.00    +0.000 A 
ATOM      8  C   UNL     1       5.010   3.820  13.856  0.00  0.00    +0.000 A 
ATOM      9  C   UNL     1       5.342   3.422  12.518  0.00  0.00    +0.000 A 
ATOM     10  C   UNL     1       6.445   3.675  11.811  0.00  0.00    +0.000 A 
ATOM     11  C   UNL     1       7.602   4.410  12.216  0.00  0.00    +0.000 A 
ATOM     12  C   UNL     1       7.844   5.031  13.372  0.00  0.00    +0.000 A 
ATOM     13  C   UNL     1       7.032   5.172  14.604  0.00  0.00    +0.000 A 
ATOM     14  O   UNL     1       7.553   5.811  15.526  0.00  0.00    +0.000 OA
ENDBRANCH   4   7
BRANCH   1  16
ATOM     15  C   UNL     1       2.846   4.317  20.280  0.00  0.00    +0.000 C 
ATOM     16  C   UNL     1       3.213   5.313  19.159  0.00  0.00    +0.000 C 
BRANCH  16  17
ATOM     17  C   UNL     1       2.604   6.689  19.552  0.00  0.00    +0.000 C 
BRANCH  17  18
ATOM     18  O   UNL     1       1.905   6.608  20.796  0.00  0.00    +0.000 OA
ATOM     19  H   UNL     1       1.635   7.511  21.036  0.00  0.00    +0.000 HD
ENDBRANCH  17  18
ENDBRANCH  16  17
ENDBRANCH   1  16
TORSDOF 4
ENDMDL
MODEL 5
REMARK VINA RESULT:      -6.9      2.353      6.330
REMARK  Name = 
REMARK  5 active torsions:
REMARK  status: ('A' for Active; 'I' for Inactive)
REMARK    1  A    between atoms: C_1  and  C_2
REMARK    2  A    between atoms: C_2  and  C_3
REMARK    3  A    between atoms: C_2  and  N_5
REMARK    4  A    between atoms: C_3  and  O_4
REMARK    5  A    between atoms: N_8  and  C_9
REMARK                            x       y       z     vdW  Elec       q    Type
REMARK                         _______ _______ _______ _____ _____    ______ ____
ROOT
ATOM      1  N   UNL     1       6.623   5.827  15.279  0.00  0.00    +0.000 NA
ATOM      2  C   UNL     1       5.135   5.810  15.345  0.00  0.00    +0.000 C 
ATOM      3  C   UNL     1       4.529   4.590  16.080  0.00  0.00    +0.000 C 
ATOM      4  N   UNL     1       5.095   4.447  17.430  0.00  0.00    +0.000 N 
ATOM      5  C   UNL     1       6.560   4.596  17.526  0.00  0.00    +0.000 C 
ATOM      6  C   UNL     1       7.080   5.791  16.696  0.00  0.00    +0.000 C 
ENDROOT
BRANCH   4   7
ATOM      7  C   UNL     1       4.282   4.244  18.566  0.00  0.00    +0.000 A 
ATOM      8  C   UNL     1       4.228   3.018  19.114  0.00  0.00    +0.000 A 
ATOM      9  C   UNL     1       3.534   2.491  20.254  0.00  0.00    +0.000 A 
ATOM     10  C   UNL     1       2.699   3.105  21.093  0.00  0.00    +0.000 A 
ATOM     11  C   UNL     1       2.264   4.466  21.064  0.00  0.00    +0.000 A 
ATOM     12  C   UNL     1       2.603   5.442  20.219  0.00  0.00    +0.000 A 
ATOM     13  C   UNL     1       3.513   5.460  19.050  0.00  0.00    +0.000 A 
ATOM     14  O   UNL     1       3.606   6.539  18.452  0.00  0.00    +0.000 OA
ENDBRANCH   4   7
BRANCH   1  16
ATOM     15  C   UNL     1       6.053   3.790  13.954  0.00  0.00    +0.000 C 
ATOM     16  C   UNL     1       7.174   4.741  14.426  0.00  0.00    +0.000 C 
BRANCH  16  17
ATOM     17  C   UNL     1       7.920   5.236  13.154  0.00  0.00    +0.000 C 
BRANCH  17  18
ATOM     18  O   UNL     1       8.986   6.125  13.495  0.00  0.00    +0.000 OA
ATOM     19  H   UNL     1       8.910   6.903  12.916  0.00  0.00    +0.000 HD
ENDBRANCH  17  18
ENDBRANCH  16  17
ENDBRANCH   1  16
TORSDOF 4
ENDMDL
MODEL 6
REMARK VINA RESULT:      -6.9      2.080      2.719
REMARK  Name = 
REMARK  5 active torsions:
REMARK  status: ('A' for Active; 'I' for Inactive)
REMARK    1  A    between atoms: C_1  and  C_2
REMARK    2  A    between atoms: C_2  and  C_3
REMARK    3  A    between atoms: C_2  and  N_5
REMARK    4  A    between atoms: C_3  and  O_4
REMARK    5  A    between atoms: N_8  and  C_9
REMARK                            x       y       z     vdW  Elec       q    Type
REMARK                         _______ _______ _______ _____ _____    ______ ____
ROOT
ATOM      1  N   UNL     1       1.440   3.632  17.794  0.00  0.00    +0.000 NA
ATOM      2  C   UNL     1       1.666   5.051  18.190  0.00  0.00    +0.000 C 
ATOM      3  C   UNL     1       2.900   5.286  19.094  0.00  0.00    +0.000 C 
ATOM      4  N   UNL     1       4.120   4.731  18.487  0.00  0.00    +0.000 N 
ATOM      5  C   UNL     1       3.987   3.377  17.915  0.00  0.00    +0.000 C 
ATOM      6  C   UNL     1       2.687   3.214  17.096  0.00  0.00    +0.000 C 
ENDROOT
BRANCH   4   7
ATOM      7  C   UNL     1       5.318   5.472  18.401  0.00  0.00    +0.000 A 
ATOM      8  C   UNL     1       6.289   5.240  19.300  0.00  0.00    +0.000 A 
ATOM      9  C   UNL     1       7.603   5.789  19.479  0.00  0.00    +0.000 A 
ATOM     10  C   UNL     1       8.222   6.741  18.779  0.00  0.00    +0.000 A 
ATOM     11  C   UNL     1       7.723   7.478  17.661  0.00  0.00    +0.000 A 
ATOM     12  C   UNL     1       6.546   7.376  17.042  0.00  0.00    +0.000 A 
ATOM     13  C   UNL     1       5.377   6.499  17.285  0.00  0.00    +0.000 A 
ATOM     14  O   UNL     1       4.412   6.659  16.528  0.00  0.00    +0.000 OA
ENDBRANCH   4   7
BRANCH   1  16
ATOM     15  C   UNL     1       2.150   1.715  19.226  0.00  0.00    +0.000 C 
ATOM     16  C   UNL     1       1.057   2.768  18.942  0.00  0.00    +0.000 C 
BRANCH  16  17
ATOM     17  C   UNL     1       0.805   3.537  20.271  0.00  0.00    +0.000 C 
BRANCH  17  18
ATOM     18  O   UNL     1       1.231   2.769  21.399  0.00  0.00    +0.000 OA
ATOM     19  H   UNL     1       1.780   2.040  21.062  0.00  0.00    +0.000 HD
ENDBRANCH  17  18
ENDBRANCH  16  17
ENDBRANCH   1  16
TORSDOF 4
ENDMDL
MODEL 7
REMARK VINA RESULT:      -6.9      2.208      6.054
REMARK  Name = 
REMARK  5 active torsions:
REMARK  status: ('A' for Active; 'I' for Inactive)
REMARK    1  A    between atoms: C_1  and  C_2
REMARK    2  A    between atoms: C_2  and  C_3
REMARK    3  A    between atoms: C_2  and  N_5
REMARK    4  A    between atoms: C_3  and  O_4
REMARK    5  A    between atoms: N_8  and  C_9
REMARK                            x       y       z     vdW  Elec       q    Type
REMARK                         _______ _______ _______ _____ _____    ______ ____
ROOT
ATOM      1  N   UNL     1       6.361   6.028  16.311  0.00  0.00    +0.000 NA
ATOM      2  C   UNL     1       6.188   4.582  16.630  0.00  0.00    +0.000 C 
ATOM      3  C   UNL     1       5.684   4.286  18.063  0.00  0.00    +0.000 C 
ATOM      4  N   UNL     1       4.440   5.018  18.352  0.00  0.00    +0.000 N 
ATOM      5  C   UNL     1       4.426   6.436  17.942  0.00  0.00    +0.000 C 
ATOM      6  C   UNL     1       5.022   6.641  16.531  0.00  0.00    +0.000 C 
ENDROOT
BRANCH   4   7
ATOM      7  C   UNL     1       3.315   4.387  18.924  0.00  0.00    +0.000 A 
ATOM      8  C   UNL     1       3.085   4.541  20.239  0.00  0.00    +0.000 A 
ATOM      9  C   UNL     1       2.047   4.064  21.108  0.00  0.00    +0.000 A 
ATOM     10  C   UNL     1       1.004   3.282  20.828  0.00  0.00    +0.000 A 
ATOM     11  C   UNL     1       0.652   2.698  19.571  0.00  0.00    +0.000 A 
ATOM     12  C   UNL     1       1.260   2.814  18.389  0.00  0.00    +0.000 A 
ATOM     13  C   UNL     1       2.472   3.557  17.973  0.00  0.00    +0.000 A 
ATOM     14  O   UNL     1       2.791   3.451  16.782  0.00  0.00    +0.000 OA
ENDBRANCH   4   7
BRANCH   1  16
ATOM     15  C   UNL     1       7.160   8.150  17.355  0.00  0.00    +0.000 C 
ATOM     16  C   UNL     1       7.462   6.660  17.084  0.00  0.00    +0.000 C 
BRANCH  16  17
ATOM     17  C   UNL     1       7.750   5.994  18.460  0.00  0.00    +0.000 C 
BRANCH  17  18
ATOM     18  O   UNL     1       8.519   6.857  19.300  0.00  0.00    +0.000 OA
ATOM     19  H   UNL     1       7.901   7.293  19.910  0.00  0.00    +0.000 HD
ENDBRANCH  17  18
ENDBRANCH  16  17
ENDBRANCH   1  16
TORSDOF 4
ENDMDL
MODEL 8
REMARK VINA RESULT:      -6.8      3.158      5.393
REMARK  Name = 
REMARK  5 active torsions:
REMARK  status: ('A' for Active; 'I' for Inactive)
REMARK    1  A    between atoms: C_1  and  C_2
REMARK    2  A    between atoms: C_2  and  C_3
REMARK    3  A    between atoms: C_2  and  N_5
REMARK    4  A    between atoms: C_3  and  O_4
REMARK    5  A    between atoms: N_8  and  C_9
REMARK                            x       y       z     vdW  Elec       q    Type
REMARK                         _______ _______ _______ _____ _____    ______ ____
ROOT
ATOM      1  N   UNL     1       3.843   3.718  17.954  0.00  0.00    +0.000 NA
ATOM      2  C   UNL     1       2.622   4.319  17.347  0.00  0.00    +0.000 C 
ATOM      3  C   UNL     1       1.750   5.147  18.320  0.00  0.00    +0.000 C 
ATOM      4  N   UNL     1       2.543   6.188  18.992  0.00  0.00    +0.000 N 
ATOM      5  C   UNL     1       3.855   5.754  19.511  0.00  0.00    +0.000 C 
ATOM      6  C   UNL     1       4.617   4.866  18.501  0.00  0.00    +0.000 C 
ENDROOT
BRANCH   4   7
ATOM      7  C   UNL     1       2.104   7.527  19.078  0.00  0.00    +0.000 A 
ATOM      8  C   UNL     1       2.358   8.358  18.053  0.00  0.00    +0.000 A 
ATOM      9  C   UNL     1       2.042   9.738  17.816  0.00  0.00    +0.000 A 
ATOM     10  C   UNL     1       1.405  10.605  18.605  0.00  0.00    +0.000 A 
ATOM     11  C   UNL     1       0.877  10.382  19.914  0.00  0.00    +0.000 A 
ATOM     12  C   UNL     1       0.871   9.264  20.641  0.00  0.00    +0.000 A 
ATOM     13  C   UNL     1       1.394   7.905  20.364  0.00  0.00    +0.000 A 
ATOM     14  O   UNL     1       1.240   7.071  21.265  0.00  0.00    +0.000 OA
ENDBRANCH   4   7
BRANCH   1  16
ATOM     15  C   UNL     1       3.478   1.269  18.275  0.00  0.00    +0.000 C 
ATOM     16  C   UNL     1       3.529   2.658  18.948  0.00  0.00    +0.000 C 
BRANCH  16  17
ATOM     17  C   UNL     1       4.539   2.559  20.126  0.00  0.00    +0.000 C 
BRANCH  17  18
ATOM     18  O   UNL     1       5.247   1.317  20.096  0.00  0.00    +0.000 OA
ATOM     19  H   UNL     1       6.033   1.418  20.658  0.00  0.00    +0.000 HD
ENDBRANCH  17  18
ENDBRANCH  16  17
ENDBRANCH   1  16
TORSDOF 4
ENDMDL
MODEL 9
REMARK VINA RESULT:      -6.7      1.770      5.841
REMARK  Name = 
REMARK  5 active torsions:
REMARK  status: ('A' for Active; 'I' for Inactive)
REMARK    1  A    between atoms: C_1  and  C_2
REMARK    2  A    between atoms: C_2  and  C_3
REMARK    3  A    between atoms: C_2  and  N_5
REMARK    4  A    between atoms: C_3  and  O_4
REMARK    5  A    between atoms: N_8  and  C_9
REMARK                            x       y       z     vdW  Elec       q    Type
REMARK                         _______ _______ _______ _____ _____    ______ ____
ROOT
ATOM      1  N   UNL     1       5.389   6.021  15.984  0.00  0.00    +0.000 NA
ATOM      2  C   UNL     1       4.648   4.734  15.859  0.00  0.00    +0.000 C 
ATOM      3  C   UNL     1       4.719   3.818  17.104  0.00  0.00    +0.000 C 
ATOM      4  N   UNL     1       4.289   4.531  18.317  0.00  0.00    +0.000 N 
ATOM      5  C   UNL     1       4.838   5.891  18.484  0.00  0.00    +0.000 C 
ATOM      6  C   UNL     1       4.798   6.702  17.169  0.00  0.00    +0.000 C 
ENDROOT
BRANCH   4   7
ATOM      7  C   UNL     1       3.362   3.976  19.226  0.00  0.00    +0.000 A 
ATOM      8  C   UNL     1       2.093   4.414  19.205  0.00  0.00    +0.000 A 
ATOM      9  C   UNL     1       0.926   4.055  19.960  0.00  0.00    +0.000 A 
ATOM     10  C   UNL     1       0.800   3.167  20.948  0.00  0.00    +0.000 A 
ATOM     11  C   UNL     1       1.813   2.341  21.525  0.00  0.00    +0.000 A 
ATOM     12  C   UNL     1       3.104   2.241  21.203  0.00  0.00    +0.000 A 
ATOM     13  C   UNL     1       3.919   2.929  20.174  0.00  0.00    +0.000 A 
ATOM     14  O   UNL     1       5.116   2.620  20.134  0.00  0.00    +0.000 OA
ENDBRANCH   4   7
BRANCH   1  16
ATOM     15  C   UNL     1       7.460   6.601  17.252  0.00  0.00    +0.000 C 
ATOM     16  C   UNL     1       6.862   5.832  16.053  0.00  0.00    +0.000 C 
BRANCH  16  17
ATOM     17  C   UNL     1       7.316   4.351  16.187  0.00  0.00    +0.000 C 
BRANCH  17  18
ATOM     18  O   UNL     1       8.136   4.165  17.343  0.00  0.00    +0.000 OA
ATOM     19  H   UNL     1       8.060   3.231  17.604  0.00  0.00    +0.000 HD
ENDBRANCH  17  18
ENDBRANCH  16  17
ENDBRANCH   1  16
TORSDOF 4
ENDMDL
