MODEL 1
REMARK VINA RESULT:      -7.2      0.000      0.000
REMARK  Name = 
REMARK  11 active torsions:
REMARK  status: ('A' for Active; 'I' for Inactive)
REMARK    1  A    between atoms: C_1  and  O_2
REMARK    2  A    between atoms: O_2  and  C_3
REMARK    3  A    between atoms: C_3  and  C_5
REMARK    4  A    between atoms: C_5  and  O_6
REMARK    5  A    between atoms: O_6  and  C_7
REMARK    6  A    between atoms: C_9  and  O_10
REMARK    7  A    between atoms: O_10  and  C_11
REMARK    8  A    between atoms: C_11  and  C_12
REMARK    9  A    between atoms: C_12  and  O_14
REMARK   10  A    between atoms: O_14  and  C_15
REMARK   11  A    between atoms: C_17  and  C_18
REMARK                            x       y       z     vdW  Elec       q    Type
REMARK                         _______ _______ _______ _____ _____    ______ ____
ROOT
ATOM      1  C   UNL     1       5.709   4.086  15.138  0.00  0.00    +0.000 A 
ATOM      2  C   UNL     1       5.730   5.442  15.438  0.00  0.00    +0.000 A 
ATOM      3  C   UNL     1       4.935   6.023  16.455  0.00  0.00    +0.000 A 
ATOM      4  C   UNL     1       3.962   5.232  17.098  0.00  0.00    +0.000 A 
ATOM      5  C   UNL     1       2.932   5.648  18.082  0.00  0.00    +0.000 A 
ATOM      6  C   UNL     1       2.140   4.701  18.626  0.00  0.00    +0.000 A 
ATOM      7  C   UNL     1       2.206   3.276  18.318  0.00  0.00    +0.000 A 
ATOM      8  O   UNL     1       1.472   2.468  18.875  0.00  0.00    +0.000 OA
ATOM      9  O   UNL     1       3.117   2.908  17.360  0.00  0.00    +0.000 OA
ATOM     10  C   UNL     1       3.967   3.856  16.755  0.00  0.00    +0.000 A 
ATOM     11  C   UNL     1       4.833   3.275  15.815  0.00  0.00    +0.000 A 
ENDROOT
BRANCH   5  12
ATOM     12  C   UNL     1       2.545   6.988  18.576  0.00  0.00    +0.000 A 
ATOM     13  C   UNL     1       2.238   7.163  19.934  0.00  0.00    +0.000 A 
ATOM     14  C   UNL     1       1.569   8.311  20.367  0.00  0.00    +0.000 A 
ATOM     15  C   UNL     1       1.200   9.296  19.451  0.00  0.00    +0.000 A 
ATOM     16  C   UNL     1       1.511   9.141  18.101  0.00  0.00    +0.000 A 
ATOM     17  C   UNL     1       2.180   7.993  17.664  0.00  0.00    +0.000 A 
ENDBRANCH   5  12
BRANCH   1  18
ATOM     18  O   UNL     1       6.664   3.697  14.253  0.00  0.00    +0.000 OA
BRANCH  18  19
ATOM     19  C   UNL     1       6.539   4.159  12.915  0.00  0.00    +0.000 C 
BRANCH  19  20
ATOM     20  C   UNL     1       5.735   3.127  12.141  0.00  0.00    +0.000 C 
ATOM     21  O   UNL     1       6.181   2.119  11.609  0.00  0.00    +0.000 OA
BRANCH  20  23
ATOM     22  C   UNL     1       3.793   3.325  10.863  0.00  0.00    +0.000 C 
ATOM     23  O   UNL     1       4.418   3.487  12.137  0.00  0.00    +0.000 OA
ENDBRANCH  20  23
ENDBRANCH  19  20
ENDBRANCH  18  19
ENDBRANCH   1  18
BRANCH   3  24
ATOM     24  O   UNL     1       5.168   7.337  16.855  0.00  0.00    +0.000 OA
BRANCH  24  25
ATOM     25  C   UNL     1       6.081   7.425  17.956  0.00  0.00    +0.000 C 
BRANCH  25  26
ATOM     26  C   UNL     1       7.592   7.593  17.789  0.00  0.00    +0.000 C 
ATOM     27  O   UNL     1       8.169   8.293  16.976  0.00  0.00    +0.000 OA
BRANCH  26  28
ATOM     28  O   UNL     1       8.188   6.807  18.740  0.00  0.00    +0.000 OA
ATOM     29  C   UNL     1       7.475   5.657  19.209  0.00  0.00    +0.000 C 
ENDBRANCH  26  28
ENDBRANCH  25  26
ENDBRANCH  24  25
ENDBRANCH   3  24
TORSDOF 9
ENDMDL
MODEL 2
REMARK VINA RESULT:      -7.2      2.118      4.073
REMARK  Name = 
REMARK  11 active torsions:
REMARK  status: ('A' for Active; 'I' for Inactive)
REMARK    1  A    between atoms: C_1  and  O_2
REMARK    2  A    between atoms: O_2  and  C_3
REMARK    3  A    between atoms: C_3  and  C_5
REMARK    4  A    between atoms: C_5  and  O_6
REMARK    5  A    between atoms: O_6  and  C_7
REMARK    6  A    between atoms: C_9  and  O_10
REMARK    7  A    between atoms: O_10  and  C_11
REMARK    8  A    between atoms: C_11  and  C_12
REMARK    9  A    between atoms: C_12  and  O_14
REMARK   10  A    between atoms: O_14  and  C_15
REMARK   11  A    between atoms: C_17  and  C_18
REMARK                            x       y       z     vdW  Elec       q    Type
REMARK                         _______ _______ _______ _____ _____    ______ ____
ROOT
ATOM      1  C   UNL     1       5.542   5.630  15.509  0.00  0.00    +0.000 A 
ATOM      2  C   UNL     1       5.077   4.453  16.080  0.00  0.00    +0.000 A 
ATOM      3  C   UNL     1       4.019   4.412  17.019  0.00  0.00    +0.000 A 
ATOM      4  C   UNL     1       3.505   5.624  17.523  0.00  0.00    +0.000 A 
ATOM      5  C   UNL     1       2.506   5.830  18.601  0.00  0.00    +0.000 A 
ATOM      6  C   UNL     1       2.106   7.089  18.876  0.00  0.00    +0.000 A 
ATOM      7  C   UNL     1       2.585   8.288  18.197  0.00  0.00    +0.000 A 
ATOM      8  O   UNL     1       2.152   9.399  18.481  0.00  0.00    +0.000 OA
ATOM      9  O   UNL     1       3.556   8.095  17.246  0.00  0.00    +0.000 OA
ATOM     10  C   UNL     1       4.015   6.803  16.920  0.00  0.00    +0.000 A 
ATOM     11  C   UNL     1       4.995   6.821  15.916  0.00  0.00    +0.000 A 
ENDROOT
BRANCH   5  12
ATOM     12  C   UNL     1       1.862   4.872  19.525  0.00  0.00    +0.000 A 
ATOM     13  C   UNL     1       2.271   4.823  20.867  0.00  0.00    +0.000 A 
ATOM     14  C   UNL     1       1.925   3.734  21.673  0.00  0.00    +0.000 A 
ATOM     15  C   UNL     1       1.169   2.686  21.150  0.00  0.00    +0.000 A 
ATOM     16  C   UNL     1       0.746   2.728  19.823  0.00  0.00    +0.000 A 
ATOM     17  C   UNL     1       1.090   3.815  19.013  0.00  0.00    +0.000 A 
ENDBRANCH   5  12
BRANCH   1  18
ATOM     18  O   UNL     1       6.442   5.445  14.507  0.00  0.00    +0.000 OA
BRANCH  18  19
ATOM     19  C   UNL     1       6.769   4.105  14.164  0.00  0.00    +0.000 C 
BRANCH  19  20
ATOM     20  C   UNL     1       6.429   3.907  12.695  0.00  0.00    +0.000 C 
ATOM     21  O   UNL     1       7.195   4.061  11.753  0.00  0.00    +0.000 OA
BRANCH  20  23
ATOM     22  C   UNL     1       4.883   2.707  11.425  0.00  0.00    +0.000 C 
ATOM     23  O   UNL     1       5.128   3.511  12.579  0.00  0.00    +0.000 OA
ENDBRANCH  20  23
ENDBRANCH  19  20
ENDBRANCH  18  19
ENDBRANCH   1  18
BRANCH   3  24
ATOM     24  O   UNL     1       3.454   3.191  17.379  0.00  0.00    +0.000 OA
BRANCH  24  25
ATOM     25  C   UNL     1       4.328   2.396  18.189  0.00  0.00    +0.000 C 
BRANCH  25  26
ATOM     26  C   UNL     1       4.919   2.877  19.516  0.00  0.00    +0.000 C 
ATOM     27  O   UNL     1       5.653   3.832  19.691  0.00  0.00    +0.000 OA
BRANCH  26  28
ATOM     28  O   UNL     1       4.458   2.028  20.488  0.00  0.00    +0.000 OA
ATOM     29  C   UNL     1       5.367   1.064  21.030  0.00  0.00    +0.000 C 
ENDBRANCH  26  28
ENDBRANCH  25  26
ENDBRANCH  24  25
ENDBRANCH   3  24
TORSDOF 9
ENDMDL
MODEL 3
REMARK VINA RESULT:      -7.1      0.683      1.027
REMARK  Name = 
REMARK  11 active torsions:
REMARK  status: ('A' for Active; 'I' for Inactive)
REMARK    1  A    between atoms: C_1  and  O_2
REMARK    2  A    between atoms: O_2  and  C_3
REMARK    3  A    between atoms: C_3  and  C_5
REMARK    4  A    between atoms: C_5  and  O_6
REMARK    5  A    between atoms: O_6  and  C_7
REMARK    6  A    between atoms: C_9  and  O_10
REMARK    7  A    between atoms: O_10  and  C_11
REMARK    8  A    between atoms: C_11  and  C_12
REMARK    9  A    between atoms: C_12  and  O_14
REMARK   10  A    between atoms: O_14  and  C_15
REMARK   11  A    between atoms: C_17  and  C_18
REMARK                            x       y       z     vdW  Elec       q    Type
REMARK                         _______ _______ _______ _____ _____    ______ ____
ROOT
ATOM      1  C   UNL     1       5.605   4.065  15.399  0.00  0.00    +0.000 A 
ATOM      2  C   UNL     1       5.715   5.384  15.815  0.00  0.00    +0.000 A 
ATOM      3  C   UNL     1       4.895   5.951  16.820  0.00  0.00    +0.000 A 
ATOM      4  C   UNL     1       3.812   5.201  17.322  0.00  0.00    +0.000 A 
ATOM      5  C   UNL     1       2.747   5.628  18.263  0.00  0.00    +0.000 A 
ATOM      6  C   UNL     1       1.839   4.715  18.665  0.00  0.00    +0.000 A 
ATOM      7  C   UNL     1       1.810   3.319  18.241  0.00  0.00    +0.000 A 
ATOM      8  O   UNL     1       0.970   2.538  18.673  0.00  0.00    +0.000 OA
ATOM      9  O   UNL     1       2.759   2.948  17.322  0.00  0.00    +0.000 OA
ATOM     10  C   UNL     1       3.730   3.862  16.862  0.00  0.00    +0.000 A 
ATOM     11  C   UNL     1       4.614   3.283  15.939  0.00  0.00    +0.000 A 
ENDROOT
BRANCH   5  12
ATOM     12  C   UNL     1       2.435   6.953  18.842  0.00  0.00    +0.000 A 
ATOM     13  C   UNL     1       2.094   7.052  20.199  0.00  0.00    +0.000 A 
ATOM     14  C   UNL     1       1.490   8.212  20.695  0.00  0.00    +0.000 A 
ATOM     15  C   UNL     1       1.221   9.282  19.843  0.00  0.00    +0.000 A 
ATOM     16  C   UNL     1       1.566   9.202  18.496  0.00  0.00    +0.000 A 
ATOM     17  C   UNL     1       2.170   8.043  17.995  0.00  0.00    +0.000 A 
ENDBRANCH   5  12
BRANCH   1  18
ATOM     18  O   UNL     1       6.590   3.664  14.553  0.00  0.00    +0.000 OA
BRANCH  18  19
ATOM     19  C   UNL     1       6.597   4.224  13.248  0.00  0.00    +0.000 C 
BRANCH  19  20
ATOM     20  C   UNL     1       5.789   3.306  12.344  0.00  0.00    +0.000 C 
ATOM     21  O   UNL     1       4.720   3.577  11.813  0.00  0.00    +0.000 OA
BRANCH  20  23
ATOM     22  C   UNL     1       7.242   2.056  11.012  0.00  0.00    +0.000 C 
ATOM     23  O   UNL     1       6.448   2.119  12.198  0.00  0.00    +0.000 OA
ENDBRANCH  20  23
ENDBRANCH  19  20
ENDBRANCH  18  19
ENDBRANCH   1  18
BRANCH   3  24
ATOM     24  O   UNL     1       5.204   7.203  17.347  0.00  0.00    +0.000 OA
BRANCH  24  25
ATOM     25  C   UNL     1       6.528   7.633  17.006  0.00  0.00    +0.000 C 
BRANCH  25  26
ATOM     26  C   UNL     1       7.722   7.525  17.957  0.00  0.00    +0.000 C 
ATOM     27  O   UNL     1       8.394   8.438  18.400  0.00  0.00    +0.000 OA
BRANCH  26  28
ATOM     28  O   UNL     1       7.895   6.193  18.228  0.00  0.00    +0.000 OA
ATOM     29  C   UNL     1       7.519   5.713  19.524  0.00  0.00    +0.000 C 
ENDBRANCH  26  28
ENDBRANCH  25  26
ENDBRANCH  24  25
ENDBRANCH   3  24
TORSDOF 9
ENDMDL
MODEL 4
REMARK VINA RESULT:      -7.0      4.151      8.495
REMARK  Name = 
REMARK  11 active torsions:
REMARK  status: ('A' for Active; 'I' for Inactive)
REMARK    1  A    between atoms: C_1  and  O_2
REMARK    2  A    between atoms: O_2  and  C_3
REMARK    3  A    between atoms: C_3  and  C_5
REMARK    4  A    between atoms: C_5  and  O_6
REMARK    5  A    between atoms: O_6  and  C_7
REMARK    6  A    between atoms: C_9  and  O_10
REMARK    7  A    between atoms: O_10  and  C_11
REMARK    8  A    between atoms: C_11  and  C_12
REMARK    9  A    between atoms: C_12  and  O_14
REMARK   10  A    between atoms: O_14  and  C_15
REMARK   11  A    between atoms: C_17  and  C_18
REMARK                            x       y       z     vdW  Elec       q    Type
REMARK                         _______ _______ _______ _____ _____    ______ ____
ROOT
ATOM      1  C   UNL     1       1.529  10.374  18.627  0.00  0.00    +0.000 A 
ATOM      2  C   UNL     1       0.924   9.657  19.650  0.00  0.00    +0.000 A 
ATOM      3  C   UNL     1       1.236   8.307  19.940  0.00  0.00    +0.000 A 
ATOM      4  C   UNL     1       2.083   7.598  19.065  0.00  0.00    +0.000 A 
ATOM      5  C   UNL     1       2.437   6.157  19.084  0.00  0.00    +0.000 A 
ATOM      6  C   UNL     1       3.330   5.702  18.181  0.00  0.00    +0.000 A 
ATOM      7  C   UNL     1       3.984   6.518  17.163  0.00  0.00    +0.000 A 
ATOM      8  O   UNL     1       4.809   6.040  16.394  0.00  0.00    +0.000 OA
ATOM      9  O   UNL     1       3.603   7.836  17.111  0.00  0.00    +0.000 OA
ATOM     10  C   UNL     1       2.670   8.365  18.027  0.00  0.00    +0.000 A 
ATOM     11  C   UNL     1       2.428   9.731  17.813  0.00  0.00    +0.000 A 
ENDROOT
BRANCH   5  12
ATOM     12  C   UNL     1       1.934   5.043  19.917  0.00  0.00    +0.000 A 
ATOM     13  C   UNL     1       2.510   4.804  21.174  0.00  0.00    +0.000 A 
ATOM     14  C   UNL     1       2.290   3.592  21.834  0.00  0.00    +0.000 A 
ATOM     15  C   UNL     1       1.495   2.607  21.249  0.00  0.00    +0.000 A 
ATOM     16  C   UNL     1       0.906   2.837  20.007  0.00  0.00    +0.000 A 
ATOM     17  C   UNL     1       1.124   4.049  19.342  0.00  0.00    +0.000 A 
ENDBRANCH   5  12
BRANCH   1  18
ATOM     18  O   UNL     1       1.223  11.698  18.618  0.00  0.00    +0.000 OA
BRANCH  18  19
ATOM     19  C   UNL     1       0.843  12.287  19.854  0.00  0.00    +0.000 C 
BRANCH  19  20
ATOM     20  C   UNL     1       1.945  13.250  20.268  0.00  0.00    +0.000 C 
ATOM     21  O   UNL     1       2.892  13.599  19.575  0.00  0.00    +0.000 OA
BRANCH  20  23
ATOM     22  C   UNL     1       2.189  15.011  21.779  0.00  0.00    +0.000 C 
ATOM     23  O   UNL     1       1.713  13.685  21.540  0.00  0.00    +0.000 OA
ENDBRANCH  20  23
ENDBRANCH  19  20
ENDBRANCH  18  19
ENDBRANCH   1  18
BRANCH   3  24
ATOM     24  O   UNL     1       0.765   7.721  21.112  0.00  0.00    +0.000 OA
BRANCH  24  25
ATOM     25  C   UNL     1      -0.254   8.502  21.750  0.00  0.00    +0.000 C 
BRANCH  25  26
ATOM     26  C   UNL     1       0.015   9.438  22.929  0.00  0.00    +0.000 C 
ATOM     27  O   UNL     1       1.055   9.558  23.551  0.00  0.00    +0.000 OA
BRANCH  26  28
ATOM     28  O   UNL     1      -1.145  10.132  23.159  0.00  0.00    +0.000 OA
ATOM     29  C   UNL     1      -1.138  11.548  22.946  0.00  0.00    +0.000 C 
ENDBRANCH  26  28
ENDBRANCH  25  26
ENDBRANCH  24  25
ENDBRANCH   3  24
TORSDOF 9
ENDMDL
MODEL 5
REMARK VINA RESULT:      -7.0      1.255      1.464
REMARK  Name = 
REMARK  11 active torsions:
REMARK  status: ('A' for Active; 'I' for Inactive)
REMARK    1  A    between atoms: C_1  and  O_2
REMARK    2  A    between atoms: O_2  and  C_3
REMARK    3  A    between atoms: C_3  and  C_5
REMARK    4  A    between atoms: C_5  and  O_6
REMARK    5  A    between atoms: O_6  and  C_7
REMARK    6  A    between atoms: C_9  and  O_10
REMARK    7  A    between atoms: O_10  and  C_11
REMARK    8  A    between atoms: C_11  and  C_12
REMARK    9  A    between atoms: C_12  and  O_14
REMARK   10  A    between atoms: O_14  and  C_15
REMARK   11  A    between atoms: C_17  and  C_18
REMARK                            x       y       z     vdW  Elec       q    Type
REMARK                         _______ _______ _______ _____ _____    ______ ____
ROOT
ATOM      1  C   UNL     1       5.230   3.992  15.901  0.00  0.00    +0.000 A 
ATOM      2  C   UNL     1       5.358   5.341  16.204  0.00  0.00    +0.000 A 
ATOM      3  C   UNL     1       4.588   5.989  17.199  0.00  0.00    +0.000 A 
ATOM      4  C   UNL     1       3.533   5.284  17.813  0.00  0.00    +0.000 A 
ATOM      5  C   UNL     1       2.514   5.787  18.768  0.00  0.00    +0.000 A 
ATOM      6  C   UNL     1       1.629   4.911  19.287  0.00  0.00    +0.000 A 
ATOM      7  C   UNL     1       1.581   3.486  18.978  0.00  0.00    +0.000 A 
ATOM      8  O   UNL     1       0.766   2.744  19.513  0.00  0.00    +0.000 OA
ATOM      9  O   UNL     1       2.485   3.041  18.045  0.00  0.00    +0.000 OA
ATOM     10  C   UNL     1       3.430   3.912  17.467  0.00  0.00    +0.000 A 
ATOM     11  C   UNL     1       4.269   3.259  16.550  0.00  0.00    +0.000 A 
ENDROOT
BRANCH   5  12
ATOM     12  C   UNL     1       2.229   7.155  19.253  0.00  0.00    +0.000 A 
ATOM     13  C   UNL     1       1.864   7.351  20.594  0.00  0.00    +0.000 A 
ATOM     14  C   UNL     1       1.284   8.557  21.000  0.00  0.00    +0.000 A 
ATOM     15  C   UNL     1       1.063   9.576  20.076  0.00  0.00    +0.000 A 
ATOM     16  C   UNL     1       1.433   9.399  18.744  0.00  0.00    +0.000 A 
ATOM     17  C   UNL     1       2.014   8.195  18.333  0.00  0.00    +0.000 A 
ENDBRANCH   5  12
BRANCH   1  18
ATOM     18  O   UNL     1       6.173   3.522  15.042  0.00  0.00    +0.000 OA
BRANCH  18  19
ATOM     19  C   UNL     1       5.980   3.780  13.658  0.00  0.00    +0.000 C 
BRANCH  19  20
ATOM     20  C   UNL     1       7.169   4.590  13.167  0.00  0.00    +0.000 C 
ATOM     21  O   UNL     1       7.807   5.401  13.824  0.00  0.00    +0.000 OA
BRANCH  20  23
ATOM     22  C   UNL     1       6.989   2.956  11.511  0.00  0.00    +0.000 C 
ATOM     23  O   UNL     1       7.433   4.265  11.868  0.00  0.00    +0.000 OA
ENDBRANCH  20  23
ENDBRANCH  19  20
ENDBRANCH  18  19
ENDBRANCH   1  18
BRANCH   3  24
ATOM     24  O   UNL     1       4.921   7.277  17.608  0.00  0.00    +0.000 OA
BRANCH  24  25
ATOM     25  C   UNL     1       6.154   7.736  17.040  0.00  0.00    +0.000 C 
BRANCH  25  26
ATOM     26  C   UNL     1       7.491   7.697  17.782  0.00  0.00    +0.000 C 
ATOM     27  O   UNL     1       8.156   8.649  18.150  0.00  0.00    +0.000 OA
BRANCH  26  28
ATOM     28  O   UNL     1       7.807   6.376  17.966  0.00  0.00    +0.000 OA
ATOM     29  C   UNL     1       7.735   5.843  19.293  0.00  0.00    +0.000 C 
ENDBRANCH  26  28
ENDBRANCH  25  26
ENDBRANCH  24  25
ENDBRANCH   3  24
TORSDOF 9
ENDMDL
MODEL 6
REMARK VINA RESULT:      -7.0      3.124      8.148
REMARK  Name = 
REMARK  11 active torsions:
REMARK  status: ('A' for Active; 'I' for Inactive)
REMARK    1  A    between atoms: C_1  and  O_2
REMARK    2  A    between atoms: O_2  and  C_3
REMARK    3  A    between atoms: C_3  and  C_5
REMARK    4  A    between atoms: C_5  and  O_6
REMARK    5  A    between atoms: O_6  and  C_7
REMARK    6  A    between atoms: C_9  and  O_10
REMARK    7  A    between atoms: O_10  and  C_11
REMARK    8  A    between atoms: C_11  and  C_12
REMARK    9  A    between atoms: C_12  and  O_14
REMARK   10  A    between atoms: O_14  and  C_15
REMARK   11  A    between atoms: C_17  and  C_18
REMARK                            x       y       z     vdW  Elec       q    Type
REMARK                         _______ _______ _______ _____ _____    ______ ____
ROOT
ATOM      1  C   UNL     1       1.777   8.640  19.359  0.00  0.00    +0.000 A 
ATOM      2  C   UNL     1       1.794   7.462  20.093  0.00  0.00    +0.000 A 
ATOM      3  C   UNL     1       2.587   6.342  19.744  0.00  0.00    +0.000 A 
ATOM      4  C   UNL     1       3.279   6.351  18.516  0.00  0.00    +0.000 A 
ATOM      5  C   UNL     1       4.049   5.254  17.879  0.00  0.00    +0.000 A 
ATOM      6  C   UNL     1       4.694   5.508  16.721  0.00  0.00    +0.000 A 
ATOM      7  C   UNL     1       4.691   6.790  16.024  0.00  0.00    +0.000 A 
ATOM      8  O   UNL     1       5.326   6.955  14.989  0.00  0.00    +0.000 OA
ATOM      9  O   UNL     1       3.924   7.780  16.586  0.00  0.00    +0.000 OA
ATOM     10  C   UNL     1       3.226   7.569  17.792  0.00  0.00    +0.000 A 
ATOM     11  C   UNL     1       2.515   8.708  18.203  0.00  0.00    +0.000 A 
ENDROOT
BRANCH   5  12
ATOM     12  C   UNL     1       4.218   3.835  18.261  0.00  0.00    +0.000 A 
ATOM     13  C   UNL     1       3.565   2.837  17.523  0.00  0.00    +0.000 A 
ATOM     14  C   UNL     1       3.439   1.543  18.038  0.00  0.00    +0.000 A 
ATOM     15  C   UNL     1       3.963   1.233  19.292  0.00  0.00    +0.000 A 
ATOM     16  C   UNL     1       4.626   2.212  20.030  0.00  0.00    +0.000 A 
ATOM     17  C   UNL     1       4.754   3.507  19.519  0.00  0.00    +0.000 A 
ENDBRANCH   5  12
BRANCH   1  18
ATOM     18  O   UNL     1       1.089   9.653  19.948  0.00  0.00    +0.000 OA
BRANCH  18  19
ATOM     19  C   UNL     1       0.149   9.303  20.954  0.00  0.00    +0.000 C 
BRANCH  19  20
ATOM     20  C   UNL     1       0.452  10.144  22.185  0.00  0.00    +0.000 C 
ATOM     21  O   UNL     1       0.675   9.717  23.310  0.00  0.00    +0.000 OA
BRANCH  20  23
ATOM     22  C   UNL     1      -0.860  12.007  21.682  0.00  0.00    +0.000 C 
ATOM     23  O   UNL     1       0.452  11.465  21.843  0.00  0.00    +0.000 OA
ENDBRANCH  20  23
ENDBRANCH  19  20
ENDBRANCH  18  19
ENDBRANCH   1  18
BRANCH   3  24
ATOM     24  O   UNL     1       2.731   5.285  20.639  0.00  0.00    +0.000 OA
BRANCH  24  25
ATOM     25  C   UNL     1       1.518   4.544  20.818  0.00  0.00    +0.000 C 
BRANCH  25  26
ATOM     26  C   UNL     1       1.481   3.077  21.251  0.00  0.00    +0.000 C 
ATOM     27  O   UNL     1       1.950   2.598  22.267  0.00  0.00    +0.000 OA
BRANCH  26  28
ATOM     28  O   UNL     1       0.808   2.390  20.274  0.00  0.00    +0.000 OA
ATOM     29  C   UNL     1       0.440   3.096  19.083  0.00  0.00    +0.000 C 
ENDBRANCH  26  28
ENDBRANCH  25  26
ENDBRANCH  24  25
ENDBRANCH   3  24
TORSDOF 9
ENDMDL
MODEL 7
REMARK VINA RESULT:      -7.0      1.110      1.538
REMARK  Name = 
REMARK  11 active torsions:
REMARK  status: ('A' for Active; 'I' for Inactive)
REMARK    1  A    between atoms: C_1  and  O_2
REMARK    2  A    between atoms: O_2  and  C_3
REMARK    3  A    between atoms: C_3  and  C_5
REMARK    4  A    between atoms: C_5  and  O_6
REMARK    5  A    between atoms: O_6  and  C_7
REMARK    6  A    between atoms: C_9  and  O_10
REMARK    7  A    between atoms: O_10  and  C_11
REMARK    8  A    between atoms: C_11  and  C_12
REMARK    9  A    between atoms: C_12  and  O_14
REMARK   10  A    between atoms: O_14  and  C_15
REMARK   11  A    between atoms: C_17  and  C_18
REMARK                            x       y       z     vdW  Elec       q    Type
REMARK                         _______ _______ _______ _____ _____    ______ ____
ROOT
ATOM      1  C   UNL     1       4.993   3.827  16.204  0.00  0.00    +0.000 A 
ATOM      2  C   UNL     1       5.062   5.211  16.297  0.00  0.00    +0.000 A 
ATOM      3  C   UNL     1       4.368   5.957  17.279  0.00  0.00    +0.000 A 
ATOM      4  C   UNL     1       3.441   5.297  18.111  0.00  0.00    +0.000 A 
ATOM      5  C   UNL     1       2.507   5.882  19.104  0.00  0.00    +0.000 A 
ATOM      6  C   UNL     1       1.750   5.047  19.845  0.00  0.00    +0.000 A 
ATOM      7  C   UNL     1       1.765   3.591  19.747  0.00  0.00    +0.000 A 
ATOM      8  O   UNL     1       1.069   2.895  20.477  0.00  0.00    +0.000 OA
ATOM      9  O   UNL     1       2.584   3.061  18.782  0.00  0.00    +0.000 OA
ATOM     10  C   UNL     1       3.394   3.886  17.975  0.00  0.00    +0.000 A 
ATOM     11  C   UNL     1       4.166   3.149  17.063  0.00  0.00    +0.000 A 
ENDROOT
BRANCH   5  12
ATOM     12  C   UNL     1       2.186   7.289  19.425  0.00  0.00    +0.000 A 
ATOM     13  C   UNL     1       1.738   7.621  20.713  0.00  0.00    +0.000 A 
ATOM     14  C   UNL     1       1.128   8.855  20.955  0.00  0.00    +0.000 A 
ATOM     15  C   UNL     1       0.959   9.770  19.916  0.00  0.00    +0.000 A 
ATOM     16  C   UNL     1       1.411   9.459  18.635  0.00  0.00    +0.000 A 
ATOM     17  C   UNL     1       2.021   8.225  18.389  0.00  0.00    +0.000 A 
ENDBRANCH   5  12
BRANCH   1  18
ATOM     18  O   UNL     1       5.862   3.286  15.310  0.00  0.00    +0.000 OA
BRANCH  18  19
ATOM     19  C   UNL     1       6.690   4.181  14.581  0.00  0.00    +0.000 C 
BRANCH  19  20
ATOM     20  C   UNL     1       6.492   3.895  13.101  0.00  0.00    +0.000 C 
ATOM     21  O   UNL     1       7.235   4.250  12.194  0.00  0.00    +0.000 OA
BRANCH  20  23
ATOM     22  C   UNL     1       4.786   3.299  11.625  0.00  0.00    +0.000 C 
ATOM     23  O   UNL     1       5.355   3.161  12.928  0.00  0.00    +0.000 OA
ENDBRANCH  20  23
ENDBRANCH  19  20
ENDBRANCH  18  19
ENDBRANCH   1  18
BRANCH   3  24
ATOM     24  O   UNL     1       4.656   7.307  17.460  0.00  0.00    +0.000 OA
BRANCH  24  25
ATOM     25  C   UNL     1       5.955   7.665  16.971  0.00  0.00    +0.000 C 
BRANCH  25  26
ATOM     26  C   UNL     1       7.253   7.358  17.720  0.00  0.00    +0.000 C 
ATOM     27  O   UNL     1       7.448   6.456  18.515  0.00  0.00    +0.000 OA
BRANCH  26  28
ATOM     28  O   UNL     1       8.173   8.294  17.324  0.00  0.00    +0.000 OA
ATOM     29  C   UNL     1       8.376   9.438  18.160  0.00  0.00    +0.000 C 
ENDBRANCH  26  28
ENDBRANCH  25  26
ENDBRANCH  24  25
ENDBRANCH   3  24
TORSDOF 9
ENDMDL
MODEL 8
REMARK VINA RESULT:      -6.9      1.080      1.432
REMARK  Name = 
REMARK  11 active torsions:
REMARK  status: ('A' for Active; 'I' for Inactive)
REMARK    1  A    between atoms: C_1  and  O_2
REMARK    2  A    between atoms: O_2  and  C_3
REMARK    3  A    between atoms: C_3  and  C_5
REMARK    4  A    between atoms: C_5  and  O_6
REMARK    5  A    between atoms: O_6  and  C_7
REMARK    6  A    between atoms: C_9  and  O_10
REMARK    7  A    between atoms: O_10  and  C_11
REMARK    8  A    between atoms: C_11  and  C_12
REMARK    9  A    between atoms: C_12  and  O_14
REMARK   10  A    between atoms: O_14  and  C_15
REMARK   11  A    between atoms: C_17  and  C_18
REMARK                            x       y       z     vdW  Elec       q    Type
REMARK                         _______ _______ _______ _____ _____    ______ ____
ROOT
ATOM      1  C   UNL     1       5.148   3.923  15.899  0.00  0.00    +0.000 A 
ATOM      2  C   UNL     1       5.169   5.310  15.939  0.00  0.00    +0.000 A 
ATOM      3  C   UNL     1       4.463   6.069  16.903  0.00  0.00    +0.000 A 
ATOM      4  C   UNL     1       3.572   5.410  17.773  0.00  0.00    +0.000 A 
ATOM      5  C   UNL     1       2.632   6.000  18.758  0.00  0.00    +0.000 A 
ATOM      6  C   UNL     1       1.915   5.168  19.543  0.00  0.00    +0.000 A 
ATOM      7  C   UNL     1       1.981   3.711  19.500  0.00  0.00    +0.000 A 
ATOM      8  O   UNL     1       1.320   3.020  20.266  0.00  0.00    +0.000 OA
ATOM      9  O   UNL     1       2.804   3.173  18.542  0.00  0.00    +0.000 OA
ATOM     10  C   UNL     1       3.573   3.994  17.692  0.00  0.00    +0.000 A 
ATOM     11  C   UNL     1       4.357   3.249  16.796  0.00  0.00    +0.000 A 
ENDROOT
BRANCH   5  12
ATOM     12  C   UNL     1       2.266   7.407  19.030  0.00  0.00    +0.000 A 
ATOM     13  C   UNL     1       1.857   7.778  20.320  0.00  0.00    +0.000 A 
ATOM     14  C   UNL     1       1.207   8.998  20.533  0.00  0.00    +0.000 A 
ATOM     15  C   UNL     1       0.958   9.857  19.464  0.00  0.00    +0.000 A 
ATOM     16  C   UNL     1       1.371   9.506  18.180  0.00  0.00    +0.000 A 
ATOM     17  C   UNL     1       2.021   8.287  17.962  0.00  0.00    +0.000 A 
ENDBRANCH   5  12
BRANCH   1  18
ATOM     18  O   UNL     1       6.022   3.378  15.013  0.00  0.00    +0.000 OA
BRANCH  18  19
ATOM     19  C   UNL     1       6.731   4.270  14.164  0.00  0.00    +0.000 C 
BRANCH  19  20
ATOM     20  C   UNL     1       6.553   3.789  12.733  0.00  0.00    +0.000 C 
ATOM     21  O   UNL     1       5.809   2.889  12.364  0.00  0.00    +0.000 OA
BRANCH  20  23
ATOM     22  C   UNL     1       8.141   5.492  12.594  0.00  0.00    +0.000 C 
ATOM     23  O   UNL     1       7.346   4.528  11.904  0.00  0.00    +0.000 OA
ENDBRANCH  20  23
ENDBRANCH  19  20
ENDBRANCH  18  19
ENDBRANCH   1  18
BRANCH   3  24
ATOM     24  O   UNL     1       4.706   7.435  17.027  0.00  0.00    +0.000 OA
BRANCH  24  25
ATOM     25  C   UNL     1       5.869   7.720  17.814  0.00  0.00    +0.000 C 
BRANCH  25  26
ATOM     26  C   UNL     1       7.243   7.103  17.543  0.00  0.00    +0.000 C 
ATOM     27  O   UNL     1       7.816   7.026  16.472  0.00  0.00    +0.000 OA
BRANCH  26  28
ATOM     28  O   UNL     1       7.721   6.653  18.746  0.00  0.00    +0.000 OA
ATOM     29  C   UNL     1       7.352   5.336  19.170  0.00  0.00    +0.000 C 
ENDBRANCH  26  28
ENDBRANCH  25  26
ENDBRANCH  24  25
ENDBRANCH   3  24
TORSDOF 9
ENDMDL
MODEL 9
REMARK VINA RESULT:      -6.9      2.294      5.401
REMARK  Name = 
REMARK  11 active torsions:
REMARK  status: ('A' for Active; 'I' for Inactive)
REMARK    1  A    between atoms: C_1  and  O_2
REMARK    2  A    between atoms: O_2  and  C_3
REMARK    3  A    between atoms: C_3  and  C_5
REMARK    4  A    between atoms: C_5  and  O_6
REMARK    5  A    between atoms: O_6  and  C_7
REMARK    6  A    between atoms: C_9  and  O_10
REMARK    7  A    between atoms: O_10  and  C_11
REMARK    8  A    between atoms: C_11  and  C_12
REMARK    9  A    between atoms: C_12  and  O_14
REMARK   10  A    between atoms: O_14  and  C_15
REMARK   11  A    between atoms: C_17  and  C_18
REMARK                            x       y       z     vdW  Elec       q    Type
REMARK                         _______ _______ _______ _____ _____    ______ ____
ROOT
ATOM      1  C   UNL     1       4.406   5.180  18.174  0.00  0.00    +0.000 A 
ATOM      2  C   UNL     1       3.809   4.943  19.404  0.00  0.00    +0.000 A 
ATOM      3  C   UNL     1       2.857   5.816  19.986  0.00  0.00    +0.000 A 
ATOM      4  C   UNL     1       2.608   7.060  19.373  0.00  0.00    +0.000 A 
ATOM      5  C   UNL     1       1.770   8.183  19.863  0.00  0.00    +0.000 A 
ATOM      6  C   UNL     1       1.617   9.265  19.072  0.00  0.00    +0.000 A 
ATOM      7  C   UNL     1       2.220   9.433  17.754  0.00  0.00    +0.000 A 
ATOM      8  O   UNL     1       2.011  10.433  17.079  0.00  0.00    +0.000 OA
ATOM      9  O   UNL     1       3.045   8.418  17.336  0.00  0.00    +0.000 OA
ATOM     10  C   UNL     1       3.246   7.266  18.123  0.00  0.00    +0.000 A 
ATOM     11  C   UNL     1       4.110   6.345  17.511  0.00  0.00    +0.000 A 
ENDROOT
BRANCH   5  12
ATOM     12  C   UNL     1       1.070   8.383  21.150  0.00  0.00    +0.000 A 
ATOM     13  C   UNL     1      -0.333   8.377  21.183  0.00  0.00    +0.000 A 
ATOM     14  C   UNL     1      -1.018   8.875  22.295  0.00  0.00    +0.000 A 
ATOM     15  C   UNL     1      -0.311   9.383  23.385  0.00  0.00    +0.000 A 
ATOM     16  C   UNL     1       1.082   9.382  23.371  0.00  0.00    +0.000 A 
ATOM     17  C   UNL     1       1.771   8.885  22.260  0.00  0.00    +0.000 A 
ENDBRANCH   5  12
BRANCH   1  18
ATOM     18  O   UNL     1       5.157   4.146  17.711  0.00  0.00    +0.000 OA
BRANCH  18  19
ATOM     19  C   UNL     1       5.423   4.107  16.316  0.00  0.00    +0.000 C 
BRANCH  19  20
ATOM     20  C   UNL     1       6.887   4.463  16.113  0.00  0.00    +0.000 C 
ATOM     21  O   UNL     1       7.776   4.356  16.947  0.00  0.00    +0.000 OA
BRANCH  20  23
ATOM     22  C   UNL     1       6.376   4.140  13.859  0.00  0.00    +0.000 C 
ATOM     23  O   UNL     1       7.072   4.914  14.837  0.00  0.00    +0.000 OA
ENDBRANCH  20  23
ENDBRANCH  19  20
ENDBRANCH  18  19
ENDBRANCH   1  18
BRANCH   3  24
ATOM     24  O   UNL     1       2.134   5.411  21.105  0.00  0.00    +0.000 OA
BRANCH  24  25
ATOM     25  C   UNL     1       2.452   4.075  21.514  0.00  0.00    +0.000 C 
BRANCH  25  26
ATOM     26  C   UNL     1       1.453   2.917  21.463  0.00  0.00    +0.000 C 
ATOM     27  O   UNL     1       1.293   2.047  22.300  0.00  0.00    +0.000 OA
BRANCH  26  28
ATOM     28  O   UNL     1       0.756   3.043  20.290  0.00  0.00    +0.000 OA
ATOM     29  C   UNL     1       1.180   2.263  19.166  0.00  0.00    +0.000 C 
ENDBRANCH  26  28
ENDBRANCH  25  26
ENDBRANCH  24  25
ENDBRANCH   3  24
TORSDOF 9
ENDMDL
