MODEL 1
REMARK VINA RESULT:      -7.5      0.000      0.000
REMARK  Name = 
REMARK  7 active torsions:
REMARK  status: ('A' for Active; 'I' for Inactive)
REMARK    1  A    between atoms: C_1  and  O_2
REMARK    2  A    between atoms: O_2  and  C_3
REMARK    3  A    between atoms: C_7  and  C_8
REMARK    4  A    between atoms: C_12  and  C_13
REMARK    5  A    between atoms: C_14  and  N_15
REMARK    6  A    between atoms: N_20  and  C_21
REMARK    7  A    between atoms: N_32  and  C_33
REMARK                            x       y       z     vdW  Elec       q    Type
REMARK                         _______ _______ _______ _____ _____    ______ ____
ROOT
ATOM      1  C   UNL     1      -3.998  12.455  20.242  0.00  0.00    +0.000 A 
ATOM      2  N   UNL     1      -5.238  12.019  20.697  0.00  0.00    +0.000 N 
ATOM      3  C   UNL     1      -5.569  12.646  21.861  0.00  0.00    +0.000 A 
ATOM      4  C   UNL     1      -4.534  13.465  22.220  0.00  0.00    +0.000 A 
ATOM      5  C   UNL     1      -3.568  13.407  21.174  0.00  0.00    +0.000 A 
ATOM      6  C   UNL     1      -4.636  14.248  23.427  0.00  0.00    +0.000 A 
ATOM      7  O   UNL     1      -3.796  15.066  23.783  0.00  0.00    +0.000 OA
ATOM      8  N   UNL     1      -5.810  14.039  24.116  0.00  0.00    +0.000 N 
ATOM      9  C   UNL     1      -6.892  13.271  23.731  0.00  0.00    +0.000 A 
ATOM     10  O   UNL     1      -7.916  13.299  24.414  0.00  0.00    +0.000 OA
ATOM     11  N   UNL     1      -6.757  12.513  22.563  0.00  0.00    +0.000 N 
ATOM     12  C   UNL     1      -7.871  11.698  22.109  0.00  0.00    +0.000 C 
ATOM     13  H   UNL     1      -5.798  11.316  20.239  0.00  0.00    +0.000 HD
ATOM     14  H   UNL     1      -5.947  14.601  24.940  0.00  0.00    +0.000 HD
ENDROOT
BRANCH   5  15
ATOM     15  C   UNL     1      -2.355  14.184  21.106  0.00  0.00    +0.000 A 
ATOM     16  C   UNL     1      -1.110  13.775  21.488  0.00  0.00    +0.000 A 
ATOM     17  N   UNL     1      -0.046  14.711  21.458  0.00  0.00    +0.000 N 
ATOM     18  C   UNL     1       1.353  14.361  21.689  0.00  0.00    +0.000 C 
ATOM     19  C   UNL     1      -0.226  16.053  21.123  0.00  0.00    +0.000 A 
ATOM     20  O   UNL     1       0.663  16.902  21.171  0.00  0.00    +0.000 OA
ATOM     21  N   UNL     1      -1.461  16.411  20.713  0.00  0.00    +0.000 N 
ATOM     22  C   UNL     1      -2.543  15.600  20.654  0.00  0.00    +0.000 A 
ATOM     23  O   UNL     1      -3.636  16.052  20.318  0.00  0.00    +0.000 OA
ATOM     24  H   UNL     1      -1.594  17.380  20.458  0.00  0.00    +0.000 HD
BRANCH  16  25
ATOM     25  N   UNL     1      -0.864  12.427  21.935  0.00  0.00    +0.000 N 
ATOM     26  C   UNL     1      -0.036  11.473  21.350  0.00  0.00    +0.000 A 
ATOM     27  C   UNL     1      -0.036  10.307  22.077  0.00  0.00    +0.000 A 
ATOM     28  C   UNL     1      -0.871  10.522  23.182  0.00  0.00    +0.000 A 
ATOM     29  C   UNL     1      -1.394  11.790  23.055  0.00  0.00    +0.000 A 
ENDBRANCH  16  25
ENDBRANCH   5  15
BRANCH   1  34
ATOM     30  C   UNL     1      -3.588  11.062  16.734  0.00  0.00    +0.000 A 
ATOM     31  C   UNL     1      -2.297  10.544  16.795  0.00  0.00    +0.000 A 
ATOM     32  C   UNL     1      -1.534  10.711  17.943  0.00  0.00    +0.000 A 
ATOM     33  C   UNL     1      -2.081  11.357  19.052  0.00  0.00    +0.000 A 
ATOM     34  C   UNL     1      -3.385  11.870  19.031  0.00  0.00    +0.000 A 
ATOM     35  C   UNL     1      -4.125  11.730  17.842  0.00  0.00    +0.000 A 
BRANCH  30  37
ATOM     36  C   UNL     1      -3.495  10.190  14.539  0.00  0.00    +0.000 C 
ATOM     37  O   UNL     1      -4.262  10.793  15.573  0.00  0.00    +0.000 OA
ENDBRANCH  30  37
ENDBRANCH   1  34
TORSDOF 4
ENDMDL
MODEL 2
REMARK VINA RESULT:      -7.5      2.832      6.764
REMARK  Name = 
REMARK  7 active torsions:
REMARK  status: ('A' for Active; 'I' for Inactive)
REMARK    1  A    between atoms: C_1  and  O_2
REMARK    2  A    between atoms: O_2  and  C_3
REMARK    3  A    between atoms: C_7  and  C_8
REMARK    4  A    between atoms: C_12  and  C_13
REMARK    5  A    between atoms: C_14  and  N_15
REMARK    6  A    between atoms: N_20  and  C_21
REMARK    7  A    between atoms: N_32  and  C_33
REMARK                            x       y       z     vdW  Elec       q    Type
REMARK                         _______ _______ _______ _____ _____    ______ ____
ROOT
ATOM      1  C   UNL     1       0.735  12.449  20.780  0.00  0.00    +0.000 A 
ATOM      2  N   UNL     1       2.005  13.000  20.653  0.00  0.00    +0.000 N 
ATOM      3  C   UNL     1       1.942  14.213  20.034  0.00  0.00    +0.000 A 
ATOM      4  C   UNL     1       0.640  14.458  19.696  0.00  0.00    +0.000 A 
ATOM      5  C   UNL     1      -0.140  13.388  20.222  0.00  0.00    +0.000 A 
ATOM      6  C   UNL     1       0.303  15.688  19.023  0.00  0.00    +0.000 A 
ATOM      7  O   UNL     1      -0.844  16.027  18.755  0.00  0.00    +0.000 OA
ATOM      8  N   UNL     1       1.394  16.488  18.766  0.00  0.00    +0.000 N 
ATOM      9  C   UNL     1       2.702  16.287  19.163  0.00  0.00    +0.000 A 
ATOM     10  O   UNL     1       3.532  17.173  18.954  0.00  0.00    +0.000 OA
ATOM     11  N   UNL     1       3.000  15.078  19.803  0.00  0.00    +0.000 N 
ATOM     12  C   UNL     1       4.359  14.824  20.250  0.00  0.00    +0.000 C 
ATOM     13  H   UNL     1       2.856  12.549  20.957  0.00  0.00    +0.000 HD
ATOM     14  H   UNL     1       1.201  17.380  18.341  0.00  0.00    +0.000 HD
ENDROOT
BRANCH   5  15
ATOM     15  C   UNL     1      -1.578  13.290  20.166  0.00  0.00    +0.000 A 
ATOM     16  C   UNL     1      -2.458  13.760  21.097  0.00  0.00    +0.000 A 
ATOM     17  N   UNL     1      -3.838  13.475  20.937  0.00  0.00    +0.000 N 
ATOM     18  C   UNL     1      -4.890  14.050  21.770  0.00  0.00    +0.000 C 
ATOM     19  C   UNL     1      -4.332  12.674  19.907  0.00  0.00    +0.000 A 
ATOM     20  O   UNL     1      -5.511  12.342  19.796  0.00  0.00    +0.000 OA
ATOM     21  N   UNL     1      -3.437  12.259  18.985  0.00  0.00    +0.000 N 
ATOM     22  C   UNL     1      -2.107  12.506  19.004  0.00  0.00    +0.000 A 
ATOM     23  O   UNL     1      -1.378  12.027  18.137  0.00  0.00    +0.000 OA
ATOM     24  H   UNL     1      -3.793  11.688  18.231  0.00  0.00    +0.000 HD
BRANCH  16  25
ATOM     25  N   UNL     1      -2.013  14.519  22.239  0.00  0.00    +0.000 N 
ATOM     26  C   UNL     1      -1.685  14.041  23.504  0.00  0.00    +0.000 A 
ATOM     27  C   UNL     1      -1.278  15.063  24.328  0.00  0.00    +0.000 A 
ATOM     28  C   UNL     1      -1.320  16.237  23.563  0.00  0.00    +0.000 A 
ATOM     29  C   UNL     1      -1.807  15.895  22.321  0.00  0.00    +0.000 A 
ENDBRANCH  16  25
ENDBRANCH   5  15
BRANCH   1  34
ATOM     30  C   UNL     1       0.907   8.687  21.263  0.00  0.00    +0.000 A 
ATOM     31  C   UNL     1       0.004   8.504  22.307  0.00  0.00    +0.000 A 
ATOM     32  C   UNL     1      -0.603   9.602  22.903  0.00  0.00    +0.000 A 
ATOM     33  C   UNL     1      -0.341  10.886  22.421  0.00  0.00    +0.000 A 
ATOM     34  C   UNL     1       0.546  11.101  21.358  0.00  0.00    +0.000 A 
ATOM     35  C   UNL     1       1.184   9.979  20.798  0.00  0.00    +0.000 A 
BRANCH  30  37
ATOM     36  C   UNL     1       2.116   7.677  19.501  0.00  0.00    +0.000 C 
ATOM     37  O   UNL     1       1.403   7.532  20.722  0.00  0.00    +0.000 OA
ENDBRANCH  30  37
ENDBRANCH   1  34
TORSDOF 4
ENDMDL
MODEL 3
REMARK VINA RESULT:      -7.3      3.082      6.063
REMARK  Name = 
REMARK  7 active torsions:
REMARK  status: ('A' for Active; 'I' for Inactive)
REMARK    1  A    between atoms: C_1  and  O_2
REMARK    2  A    between atoms: O_2  and  C_3
REMARK    3  A    between atoms: C_7  and  C_8
REMARK    4  A    between atoms: C_12  and  C_13
REMARK    5  A    between atoms: C_14  and  N_15
REMARK    6  A    between atoms: N_20  and  C_21
REMARK    7  A    between atoms: N_32  and  C_33
REMARK                            x       y       z     vdW  Elec       q    Type
REMARK                         _______ _______ _______ _____ _____    ______ ____
ROOT
ATOM      1  C   UNL     1      -1.041  13.055  18.720  0.00  0.00    +0.000 A 
ATOM      2  N   UNL     1      -0.812  14.357  18.290  0.00  0.00    +0.000 N 
ATOM      3  C   UNL     1       0.286  14.879  18.907  0.00  0.00    +0.000 A 
ATOM      4  C   UNL     1       0.768  13.953  19.789  0.00  0.00    +0.000 A 
ATOM      5  C   UNL     1      -0.016  12.773  19.631  0.00  0.00    +0.000 A 
ATOM      6  C   UNL     1       1.936  14.264  20.575  0.00  0.00    +0.000 A 
ATOM      7  O   UNL     1       2.483  13.468  21.329  0.00  0.00    +0.000 OA
ATOM      8  N   UNL     1       2.426  15.530  20.348  0.00  0.00    +0.000 N 
ATOM      9  C   UNL     1       1.994  16.449  19.411  0.00  0.00    +0.000 A 
ATOM     10  O   UNL     1       2.634  17.491  19.258  0.00  0.00    +0.000 OA
ATOM     11  N   UNL     1       0.851  16.124  18.673  0.00  0.00    +0.000 N 
ATOM     12  C   UNL     1       0.363  17.051  17.667  0.00  0.00    +0.000 C 
ATOM     13  H   UNL     1      -1.396  14.851  17.632  0.00  0.00    +0.000 HD
ATOM     14  H   UNL     1       3.271  15.774  20.839  0.00  0.00    +0.000 HD
ENDROOT
BRANCH   5  15
ATOM     15  C   UNL     1       0.204  11.520  20.311  0.00  0.00    +0.000 A 
ATOM     16  C   UNL     1      -0.222  11.194  21.566  0.00  0.00    +0.000 A 
ATOM     17  N   UNL     1       0.183   9.956  22.124  0.00  0.00    +0.000 N 
ATOM     18  C   UNL     1      -0.330   9.423  23.383  0.00  0.00    +0.000 C 
ATOM     19  C   UNL     1       1.057   9.082  21.476  0.00  0.00    +0.000 A 
ATOM     20  O   UNL     1       1.490   8.044  21.973  0.00  0.00    +0.000 OA
ATOM     21  N   UNL     1       1.426   9.419  20.222  0.00  0.00    +0.000 N 
ATOM     22  C   UNL     1       1.068  10.548  19.566  0.00  0.00    +0.000 A 
ATOM     23  O   UNL     1       1.513  10.777  18.443  0.00  0.00    +0.000 OA
ATOM     24  H   UNL     1       2.049   8.784  19.745  0.00  0.00    +0.000 HD
BRANCH  16  25
ATOM     25  N   UNL     1      -1.053  12.087  22.335  0.00  0.00    +0.000 N 
ATOM     26  C   UNL     1      -0.663  13.225  23.033  0.00  0.00    +0.000 A 
ATOM     27  C   UNL     1      -1.742  13.834  23.627  0.00  0.00    +0.000 A 
ATOM     28  C   UNL     1      -2.872  13.079  23.280  0.00  0.00    +0.000 A 
ATOM     29  C   UNL     1      -2.430  12.007  22.537  0.00  0.00    +0.000 A 
ENDBRANCH  16  25
ENDBRANCH   5  15
BRANCH   1  34
ATOM     30  C   UNL     1      -4.519  11.539  18.570  0.00  0.00    +0.000 A 
ATOM     31  C   UNL     1      -4.391  10.668  17.491  0.00  0.00    +0.000 A 
ATOM     32  C   UNL     1      -3.206  10.625  16.768  0.00  0.00    +0.000 A 
ATOM     33  C   UNL     1      -2.128  11.423  17.154  0.00  0.00    +0.000 A 
ATOM     34  C   UNL     1      -2.218  12.294  18.248  0.00  0.00    +0.000 A 
ATOM     35  C   UNL     1      -3.442  12.355  18.939  0.00  0.00    +0.000 A 
BRANCH  30  37
ATOM     36  C   UNL     1      -6.768  10.816  18.536  0.00  0.00    +0.000 C 
ATOM     37  O   UNL     1      -5.711  11.459  19.236  0.00  0.00    +0.000 OA
ENDBRANCH  30  37
ENDBRANCH   1  34
TORSDOF 4
ENDMDL
MODEL 4
REMARK VINA RESULT:      -7.3      3.462      5.912
REMARK  Name = 
REMARK  7 active torsions:
REMARK  status: ('A' for Active; 'I' for Inactive)
REMARK    1  A    between atoms: C_1  and  O_2
REMARK    2  A    between atoms: O_2  and  C_3
REMARK    3  A    between atoms: C_7  and  C_8
REMARK    4  A    between atoms: C_12  and  C_13
REMARK    5  A    between atoms: C_14  and  N_15
REMARK    6  A    between atoms: N_20  and  C_21
REMARK    7  A    between atoms: N_32  and  C_33
REMARK                            x       y       z     vdW  Elec       q    Type
REMARK                         _______ _______ _______ _____ _____    ______ ____
ROOT
ATOM      1  C   UNL     1      -1.036  12.931  18.630  0.00  0.00    +0.000 A 
ATOM      2  N   UNL     1      -0.852  14.239  18.194  0.00  0.00    +0.000 N 
ATOM      3  C   UNL     1       0.179  14.827  18.865  0.00  0.00    +0.000 A 
ATOM      4  C   UNL     1       0.657  13.939  19.788  0.00  0.00    +0.000 A 
ATOM      5  C   UNL     1      -0.053  12.717  19.604  0.00  0.00    +0.000 A 
ATOM      6  C   UNL     1       1.759  14.323  20.636  0.00  0.00    +0.000 A 
ATOM      7  O   UNL     1       2.302  13.567  21.432  0.00  0.00    +0.000 OA
ATOM      8  N   UNL     1       2.194  15.611  20.417  0.00  0.00    +0.000 N 
ATOM      9  C   UNL     1       1.769  16.493  19.443  0.00  0.00    +0.000 A 
ATOM     10  O   UNL     1       2.359  17.566  19.311  0.00  0.00    +0.000 OA
ATOM     11  N   UNL     1       0.689  16.097  18.645  0.00  0.00    +0.000 N 
ATOM     12  C   UNL     1       0.212  16.985  17.598  0.00  0.00    +0.000 C 
ATOM     13  H   UNL     1      -1.422  14.692  17.496  0.00  0.00    +0.000 HD
ATOM     14  H   UNL     1       2.994  15.906  20.953  0.00  0.00    +0.000 HD
ENDROOT
BRANCH   5  15
ATOM     15  C   UNL     1       0.194  11.487  20.314  0.00  0.00    +0.000 A 
ATOM     16  C   UNL     1      -0.246  11.174  21.568  0.00  0.00    +0.000 A 
ATOM     17  N   UNL     1       0.187   9.961  22.160  0.00  0.00    +0.000 N 
ATOM     18  C   UNL     1      -0.333   9.439  23.421  0.00  0.00    +0.000 C 
ATOM     19  C   UNL     1       1.101   9.102  21.548  0.00  0.00    +0.000 A 
ATOM     20  O   UNL     1       1.556   8.088  22.075  0.00  0.00    +0.000 OA
ATOM     21  N   UNL     1       1.483   9.424  20.294  0.00  0.00    +0.000 N 
ATOM     22  C   UNL     1       1.103  10.527  19.607  0.00  0.00    +0.000 A 
ATOM     23  O   UNL     1       1.562  10.746  18.488  0.00  0.00    +0.000 OA
ATOM     24  H   UNL     1       2.136   8.799  19.842  0.00  0.00    +0.000 HD
BRANCH  16  25
ATOM     25  N   UNL     1      -1.119  12.055  22.302  0.00  0.00    +0.000 N 
ATOM     26  C   UNL     1      -0.765  13.157  23.075  0.00  0.00    +0.000 A 
ATOM     27  C   UNL     1      -1.878  13.767  23.602  0.00  0.00    +0.000 A 
ATOM     28  C   UNL     1      -2.990  13.053  23.134  0.00  0.00    +0.000 A 
ATOM     29  C   UNL     1      -2.510  11.999  22.388  0.00  0.00    +0.000 A 
ENDBRANCH  16  25
ENDBRANCH   5  15
BRANCH   1  34
ATOM     30  C   UNL     1      -3.000  10.526  16.447  0.00  0.00    +0.000 A 
ATOM     31  C   UNL     1      -4.290  10.698  16.943  0.00  0.00    +0.000 A 
ATOM     32  C   UNL     1      -4.512  11.535  18.029  0.00  0.00    +0.000 A 
ATOM     33  C   UNL     1      -3.447  12.238  18.593  0.00  0.00    +0.000 A 
ATOM     34  C   UNL     1      -2.141  12.103  18.103  0.00  0.00    +0.000 A 
ATOM     35  C   UNL     1      -1.930  11.216  17.031  0.00  0.00    +0.000 A 
BRANCH  30  37
ATOM     36  C   UNL     1      -3.644  10.145  14.205  0.00  0.00    +0.000 C 
ATOM     37  O   UNL     1      -2.910   9.719  15.345  0.00  0.00    +0.000 OA
ENDBRANCH  30  37
ENDBRANCH   1  34
TORSDOF 4
ENDMDL
MODEL 5
REMARK VINA RESULT:      -7.3      2.185      5.867
REMARK  Name = 
REMARK  7 active torsions:
REMARK  status: ('A' for Active; 'I' for Inactive)
REMARK    1  A    between atoms: C_1  and  O_2
REMARK    2  A    between atoms: O_2  and  C_3
REMARK    3  A    between atoms: C_7  and  C_8
REMARK    4  A    between atoms: C_12  and  C_13
REMARK    5  A    between atoms: C_14  and  N_15
REMARK    6  A    between atoms: N_20  and  C_21
REMARK    7  A    between atoms: N_32  and  C_33
REMARK                            x       y       z     vdW  Elec       q    Type
REMARK                         _______ _______ _______ _____ _____    ______ ____
ROOT
ATOM      1  C   UNL     1      -1.325  12.896  19.682  0.00  0.00    +0.000 A 
ATOM      2  N   UNL     1      -0.136  13.346  19.118  0.00  0.00    +0.000 N 
ATOM      3  C   UNL     1       0.567  14.095  20.015  0.00  0.00    +0.000 A 
ATOM      4  C   UNL     1      -0.167  14.195  21.164  0.00  0.00    +0.000 A 
ATOM      5  C   UNL     1      -1.329  13.387  20.993  0.00  0.00    +0.000 A 
ATOM      6  C   UNL     1       0.360  14.944  22.278  0.00  0.00    +0.000 A 
ATOM      7  O   UNL     1      -0.190  15.020  23.370  0.00  0.00    +0.000 OA
ATOM      8  N   UNL     1       1.585  15.517  22.020  0.00  0.00    +0.000 N 
ATOM      9  C   UNL     1       2.369  15.367  20.893  0.00  0.00    +0.000 A 
ATOM     10  O   UNL     1       3.501  15.853  20.884  0.00  0.00    +0.000 OA
ATOM     11  N   UNL     1       1.825  14.646  19.824  0.00  0.00    +0.000 N 
ATOM     12  C   UNL     1       2.614  14.449  18.620  0.00  0.00    +0.000 C 
ATOM     13  H   UNL     1       0.149  13.161  18.168  0.00  0.00    +0.000 HD
ATOM     14  H   UNL     1       2.014  16.010  22.786  0.00  0.00    +0.000 HD
ENDROOT
BRANCH   5  15
ATOM     15  C   UNL     1      -2.336  13.141  21.996  0.00  0.00    +0.000 A 
ATOM     16  C   UNL     1      -3.348  13.985  22.351  0.00  0.00    +0.000 A 
ATOM     17  N   UNL     1      -4.183  13.630  23.439  0.00  0.00    +0.000 N 
ATOM     18  C   UNL     1      -5.389  14.363  23.815  0.00  0.00    +0.000 C 
ATOM     19  C   UNL     1      -3.975  12.488  24.214  0.00  0.00    +0.000 A 
ATOM     20  O   UNL     1      -4.631  12.201  25.213  0.00  0.00    +0.000 OA
ATOM     21  N   UNL     1      -2.989  11.658  23.809  0.00  0.00    +0.000 N 
ATOM     22  C   UNL     1      -2.159  11.864  22.761  0.00  0.00    +0.000 A 
ATOM     23  O   UNL     1      -1.258  11.064  22.520  0.00  0.00    +0.000 OA
ATOM     24  H   UNL     1      -2.843  10.824  24.359  0.00  0.00    +0.000 HD
BRANCH  16  25
ATOM     25  N   UNL     1      -3.570  15.229  21.657  0.00  0.00    +0.000 N 
ATOM     26  C   UNL     1      -4.404  15.460  20.567  0.00  0.00    +0.000 A 
ATOM     27  C   UNL     1      -4.373  16.782  20.194  0.00  0.00    +0.000 A 
ATOM     28  C   UNL     1      -3.511  17.433  21.088  0.00  0.00    +0.000 A 
ATOM     29  C   UNL     1      -3.004  16.473  21.934  0.00  0.00    +0.000 A 
ENDBRANCH  16  25
ENDBRANCH   5  15
BRANCH   1  34
ATOM     30  C   UNL     1      -2.810  10.709  16.957  0.00  0.00    +0.000 A 
ATOM     31  C   UNL     1      -4.171  10.827  17.224  0.00  0.00    +0.000 A 
ATOM     32  C   UNL     1      -4.604  11.552  18.327  0.00  0.00    +0.000 A 
ATOM     33  C   UNL     1      -3.673  12.200  19.140  0.00  0.00    +0.000 A 
ATOM     34  C   UNL     1      -2.298  12.119  18.886  0.00  0.00    +0.000 A 
ATOM     35  C   UNL     1      -1.878  11.343  17.789  0.00  0.00    +0.000 A 
BRANCH  30  37
ATOM     36  C   UNL     1      -3.325  10.287  14.690  0.00  0.00    +0.000 C 
ATOM     37  O   UNL     1      -2.505  10.015  15.818  0.00  0.00    +0.000 OA
ENDBRANCH  30  37
ENDBRANCH   1  34
TORSDOF 4
ENDMDL
MODEL 6
REMARK VINA RESULT:      -7.3      2.215      3.065
REMARK  Name = 
REMARK  7 active torsions:
REMARK  status: ('A' for Active; 'I' for Inactive)
REMARK    1  A    between atoms: C_1  and  O_2
REMARK    2  A    between atoms: O_2  and  C_3
REMARK    3  A    between atoms: C_7  and  C_8
REMARK    4  A    between atoms: C_12  and  C_13
REMARK    5  A    between atoms: C_14  and  N_15
REMARK    6  A    between atoms: N_20  and  C_21
REMARK    7  A    between atoms: N_32  and  C_33
REMARK                            x       y       z     vdW  Elec       q    Type
REMARK                         _______ _______ _______ _____ _____    ______ ____
ROOT
ATOM      1  C   UNL     1      -3.008  12.826  20.384  0.00  0.00    +0.000 A 
ATOM      2  N   UNL     1      -3.808  12.950  21.515  0.00  0.00    +0.000 N 
ATOM      3  C   UNL     1      -3.102  13.502  22.543  0.00  0.00    +0.000 A 
ATOM      4  C   UNL     1      -1.815  13.702  22.125  0.00  0.00    +0.000 A 
ATOM      5  C   UNL     1      -1.760  13.346  20.746  0.00  0.00    +0.000 A 
ATOM      6  C   UNL     1      -0.857  14.280  23.035  0.00  0.00    +0.000 A 
ATOM      7  O   UNL     1       0.292  14.568  22.723  0.00  0.00    +0.000 OA
ATOM      8  N   UNL     1      -1.378  14.543  24.282  0.00  0.00    +0.000 N 
ATOM      9  C   UNL     1      -2.690  14.413  24.696  0.00  0.00    +0.000 A 
ATOM     10  O   UNL     1      -3.005  14.817  25.816  0.00  0.00    +0.000 OA
ATOM     11  N   UNL     1      -3.592  13.837  23.795  0.00  0.00    +0.000 N 
ATOM     12  C   UNL     1      -4.986  13.688  24.179  0.00  0.00    +0.000 C 
ATOM     13  H   UNL     1      -4.769  12.649  21.569  0.00  0.00    +0.000 HD
ATOM     14  H   UNL     1      -0.758  14.992  24.936  0.00  0.00    +0.000 HD
ENDROOT
BRANCH   5  15
ATOM     15  C   UNL     1      -0.609  13.482  19.889  0.00  0.00    +0.000 A 
ATOM     16  C   UNL     1       0.361  12.545  19.681  0.00  0.00    +0.000 A 
ATOM     17  N   UNL     1       1.486  12.891  18.890  0.00  0.00    +0.000 N 
ATOM     18  C   UNL     1       2.507  11.937  18.464  0.00  0.00    +0.000 C 
ATOM     19  C   UNL     1       1.684  14.171  18.372  0.00  0.00    +0.000 A 
ATOM     20  O   UNL     1       2.690  14.519  17.756  0.00  0.00    +0.000 OA
ATOM     21  N   UNL     1       0.686  15.059  18.565  0.00  0.00    +0.000 N 
ATOM     22  C   UNL     1      -0.454  14.834  19.259  0.00  0.00    +0.000 A 
ATOM     23  O   UNL     1      -1.270  15.740  19.419  0.00  0.00    +0.000 OA
ATOM     24  H   UNL     1       0.819  15.984  18.182  0.00  0.00    +0.000 HD
BRANCH  16  25
ATOM     25  N   UNL     1       0.273  11.228  20.259  0.00  0.00    +0.000 N 
ATOM     26  C   UNL     1      -0.195  10.063  19.659  0.00  0.00    +0.000 A 
ATOM     27  C   UNL     1      -0.102   8.993  20.517  0.00  0.00    +0.000 A 
ATOM     28  C   UNL     1       0.468   9.478  21.703  0.00  0.00    +0.000 A 
ATOM     29  C   UNL     1       0.646  10.834  21.543  0.00  0.00    +0.000 A 
ENDBRANCH  16  25
ENDBRANCH   5  15
BRANCH   1  34
ATOM     30  C   UNL     1      -3.130  11.192  16.959  0.00  0.00    +0.000 A 
ATOM     31  C   UNL     1      -4.499  11.189  16.706  0.00  0.00    +0.000 A 
ATOM     32  C   UNL     1      -5.386  11.647  17.672  0.00  0.00    +0.000 A 
ATOM     33  C   UNL     1      -4.899  12.152  18.878  0.00  0.00    +0.000 A 
ATOM     34  C   UNL     1      -3.525  12.189  19.154  0.00  0.00    +0.000 A 
ATOM     35  C   UNL     1      -2.647  11.679  18.181  0.00  0.00    +0.000 A 
BRANCH  30  37
ATOM     36  C   UNL     1      -3.052  10.259  14.790  0.00  0.00    +0.000 C 
ATOM     37  O   UNL     1      -2.351  10.766  15.917  0.00  0.00    +0.000 OA
ENDBRANCH  30  37
ENDBRANCH   1  34
TORSDOF 4
ENDMDL
MODEL 7
REMARK VINA RESULT:      -7.3      2.475      4.566
REMARK  Name = 
REMARK  7 active torsions:
REMARK  status: ('A' for Active; 'I' for Inactive)
REMARK    1  A    between atoms: C_1  and  O_2
REMARK    2  A    between atoms: O_2  and  C_3
REMARK    3  A    between atoms: C_7  and  C_8
REMARK    4  A    between atoms: C_12  and  C_13
REMARK    5  A    between atoms: C_14  and  N_15
REMARK    6  A    between atoms: N_20  and  C_21
REMARK    7  A    between atoms: N_32  and  C_33
REMARK                            x       y       z     vdW  Elec       q    Type
REMARK                         _______ _______ _______ _____ _____    ______ ____
ROOT
ATOM      1  C   UNL     1      -2.053  11.597  20.195  0.00  0.00    +0.000 A 
ATOM      2  N   UNL     1      -2.817  11.215  19.099  0.00  0.00    +0.000 N 
ATOM      3  C   UNL     1      -3.890  12.043  18.950  0.00  0.00    +0.000 A 
ATOM      4  C   UNL     1      -3.880  12.951  19.973  0.00  0.00    +0.000 A 
ATOM      5  C   UNL     1      -2.690  12.725  20.725  0.00  0.00    +0.000 A 
ATOM      6  C   UNL     1      -4.920  13.947  20.045  0.00  0.00    +0.000 A 
ATOM      7  O   UNL     1      -4.946  14.847  20.877  0.00  0.00    +0.000 OA
ATOM      8  N   UNL     1      -5.855  13.835  19.040  0.00  0.00    +0.000 N 
ATOM      9  C   UNL     1      -5.839  12.971  17.963  0.00  0.00    +0.000 A 
ATOM     10  O   UNL     1      -6.696  13.095  17.087  0.00  0.00    +0.000 OA
ATOM     11  N   UNL     1      -4.826  12.007  17.928  0.00  0.00    +0.000 N 
ATOM     12  C   UNL     1      -4.759  11.082  16.810  0.00  0.00    +0.000 C 
ATOM     13  H   UNL     1      -2.615  10.418  18.513  0.00  0.00    +0.000 HD
ATOM     14  H   UNL     1      -6.574  14.540  19.023  0.00  0.00    +0.000 HD
ENDROOT
BRANCH   5  15
ATOM     15  C   UNL     1      -2.242  13.515  21.845  0.00  0.00    +0.000 A 
ATOM     16  C   UNL     1      -1.280  14.483  21.819  0.00  0.00    +0.000 A 
ATOM     17  N   UNL     1      -0.883  15.082  23.041  0.00  0.00    +0.000 N 
ATOM     18  C   UNL     1       0.014  16.231  23.131  0.00  0.00    +0.000 C 
ATOM     19  C   UNL     1      -1.379  14.679  24.281  0.00  0.00    +0.000 A 
ATOM     20  O   UNL     1      -0.989  15.123  25.359  0.00  0.00    +0.000 OA
ATOM     21  N   UNL     1      -2.356  13.747  24.263  0.00  0.00    +0.000 N 
ATOM     22  C   UNL     1      -2.851  13.137  23.161  0.00  0.00    +0.000 A 
ATOM     23  O   UNL     1      -3.704  12.259  23.272  0.00  0.00    +0.000 OA
ATOM     24  H   UNL     1      -2.727  13.460  25.158  0.00  0.00    +0.000 HD
BRANCH  16  25
ATOM     25  N   UNL     1      -0.653  14.890  20.587  0.00  0.00    +0.000 N 
ATOM     26  C   UNL     1      -1.047  15.912  19.728  0.00  0.00    +0.000 A 
ATOM     27  C   UNL     1      -0.185  16.020  18.662  0.00  0.00    +0.000 A 
ATOM     28  C   UNL     1       0.812  15.053  18.851  0.00  0.00    +0.000 A 
ATOM     29  C   UNL     1       0.488  14.354  19.993  0.00  0.00    +0.000 A 
ENDBRANCH  16  25
ENDBRANCH   5  15
BRANCH   1  34
ATOM     30  C   UNL     1       1.013   9.362  20.041  0.00  0.00    +0.000 A 
ATOM     31  C   UNL     1       1.243   9.121  21.393  0.00  0.00    +0.000 A 
ATOM     32  C   UNL     1       0.455   9.739  22.354  0.00  0.00    +0.000 A 
ATOM     33  C   UNL     1      -0.599  10.566  21.961  0.00  0.00    +0.000 A 
ATOM     34  C   UNL     1      -0.870  10.811  20.609  0.00  0.00    +0.000 A 
ATOM     35  C   UNL     1      -0.032  10.210  19.651  0.00  0.00    +0.000 A 
BRANCH  30  37
ATOM     36  C   UNL     1       1.831   9.112  17.838  0.00  0.00    +0.000 C 
ATOM     37  O   UNL     1       1.818   8.660  19.185  0.00  0.00    +0.000 OA
ENDBRANCH  30  37
ENDBRANCH   1  34
TORSDOF 4
ENDMDL
MODEL 8
REMARK VINA RESULT:      -7.2      2.128      5.774
REMARK  Name = 
REMARK  7 active torsions:
REMARK  status: ('A' for Active; 'I' for Inactive)
REMARK    1  A    between atoms: C_1  and  O_2
REMARK    2  A    between atoms: O_2  and  C_3
REMARK    3  A    between atoms: C_7  and  C_8
REMARK    4  A    between atoms: C_12  and  C_13
REMARK    5  A    between atoms: C_14  and  N_15
REMARK    6  A    between atoms: N_20  and  C_21
REMARK    7  A    between atoms: N_32  and  C_33
REMARK                            x       y       z     vdW  Elec       q    Type
REMARK                         _______ _______ _______ _____ _____    ______ ____
ROOT
ATOM      1  C   UNL     1      -1.738  13.221  19.611  0.00  0.00    +0.000 A 
ATOM      2  N   UNL     1      -0.738  14.004  19.046  0.00  0.00    +0.000 N 
ATOM      3  C   UNL     1      -0.395  15.022  19.885  0.00  0.00    +0.000 A 
ATOM      4  C   UNL     1      -1.196  14.959  20.992  0.00  0.00    +0.000 A 
ATOM      5  C   UNL     1      -1.999  13.788  20.864  0.00  0.00    +0.000 A 
ATOM      6  C   UNL     1      -1.033  15.934  22.041  0.00  0.00    +0.000 A 
ATOM      7  O   UNL     1      -1.649  15.907  23.100  0.00  0.00    +0.000 OA
ATOM      8  N   UNL     1      -0.061  16.872  21.769  0.00  0.00    +0.000 N 
ATOM      9  C   UNL     1       0.802  16.907  20.692  0.00  0.00    +0.000 A 
ATOM     10  O   UNL     1       1.699  17.751  20.674  0.00  0.00    +0.000 OA
ATOM     11  N   UNL     1       0.610  15.955  19.684  0.00  0.00    +0.000 N 
ATOM     12  C   UNL     1       1.500  15.943  18.535  0.00  0.00    +0.000 C 
ATOM     13  H   UNL     1      -0.342  13.851  18.130  0.00  0.00    +0.000 HD
ATOM     14  H   UNL     1       0.121  17.545  22.496  0.00  0.00    +0.000 HD
ENDROOT
BRANCH   5  15
ATOM     15  C   UNL     1      -2.928  13.294  21.850  0.00  0.00    +0.000 A 
ATOM     16  C   UNL     1      -4.200  13.742  22.059  0.00  0.00    +0.000 A 
ATOM     17  N   UNL     1      -4.937  13.219  23.150  0.00  0.00    +0.000 N 
ATOM     18  C   UNL     1      -6.352  13.495  23.386  0.00  0.00    +0.000 C 
ATOM     19  C   UNL     1      -4.396  12.317  24.068  0.00  0.00    +0.000 A 
ATOM     20  O   UNL     1      -4.985  11.913  25.069  0.00  0.00    +0.000 OA
ATOM     21  N   UNL     1      -3.150  11.868  23.807  0.00  0.00    +0.000 N 
ATOM     22  C   UNL     1      -2.367  12.255  22.773  0.00  0.00    +0.000 A 
ATOM     23  O   UNL     1      -1.223  11.819  22.668  0.00  0.00    +0.000 OA
ATOM     24  H   UNL     1      -2.759  11.205  24.462  0.00  0.00    +0.000 HD
BRANCH  16  25
ATOM     25  N   UNL     1      -4.797  14.741  21.208  0.00  0.00    +0.000 N 
ATOM     26  C   UNL     1      -4.681  16.124  21.307  0.00  0.00    +0.000 A 
ATOM     27  C   UNL     1      -5.373  16.751  20.299  0.00  0.00    +0.000 A 
ATOM     28  C   UNL     1      -5.934  15.740  19.507  0.00  0.00    +0.000 A 
ATOM     29  C   UNL     1      -5.612  14.537  20.096  0.00  0.00    +0.000 A 
ENDBRANCH  16  25
ENDBRANCH   5  15
BRANCH   1  34
ATOM     30  C   UNL     1      -4.296  10.926  17.996  0.00  0.00    +0.000 A 
ATOM     31  C   UNL     1      -3.504   9.834  17.650  0.00  0.00    +0.000 A 
ATOM     32  C   UNL     1      -2.133   9.871  17.872  0.00  0.00    +0.000 A 
ATOM     33  C   UNL     1      -1.559  10.986  18.484  0.00  0.00    +0.000 A 
ATOM     34  C   UNL     1      -2.332  12.091  18.864  0.00  0.00    +0.000 A 
ATOM     35  C   UNL     1      -3.711  12.052  18.590  0.00  0.00    +0.000 A 
BRANCH  30  37
ATOM     36  C   UNL     1      -6.453  10.727  18.941  0.00  0.00    +0.000 C 
ATOM     37  O   UNL     1      -5.636  10.757  17.778  0.00  0.00    +0.000 OA
ENDBRANCH  30  37
ENDBRANCH   1  34
TORSDOF 4
ENDMDL
MODEL 9
REMARK VINA RESULT:      -7.2      2.596      5.168
REMARK  Name = 
REMARK  7 active torsions:
REMARK  status: ('A' for Active; 'I' for Inactive)
REMARK    1  A    between atoms: C_1  and  O_2
REMARK    2  A    between atoms: O_2  and  C_3
REMARK    3  A    between atoms: C_7  and  C_8
REMARK    4  A    between atoms: C_12  and  C_13
REMARK    5  A    between atoms: C_14  and  N_15
REMARK    6  A    between atoms: N_20  and  C_21
REMARK    7  A    between atoms: N_32  and  C_33
REMARK                            x       y       z     vdW  Elec       q    Type
REMARK                         _______ _______ _______ _____ _____    ______ ____
ROOT
ATOM      1  C   UNL     1      -1.645  13.024  19.391  0.00  0.00    +0.000 A 
ATOM      2  N   UNL     1      -2.396  12.369  18.421  0.00  0.00    +0.000 N 
ATOM      3  C   UNL     1      -3.668  12.156  18.861  0.00  0.00    +0.000 A 
ATOM      4  C   UNL     1      -3.764  12.618  20.145  0.00  0.00    +0.000 A 
ATOM      5  C   UNL     1      -2.518  13.230  20.467  0.00  0.00    +0.000 A 
ATOM      6  C   UNL     1      -5.020  12.508  20.845  0.00  0.00    +0.000 A 
ATOM      7  O   UNL     1      -5.219  12.965  21.964  0.00  0.00    +0.000 OA
ATOM      8  N   UNL     1      -6.006  11.894  20.105  0.00  0.00    +0.000 N 
ATOM      9  C   UNL     1      -5.945  11.488  18.786  0.00  0.00    +0.000 A 
ATOM     10  O   UNL     1      -6.968  11.070  18.243  0.00  0.00    +0.000 OA
ATOM     11  N   UNL     1      -4.709  11.595  18.138  0.00  0.00    +0.000 N 
ATOM     12  C   UNL     1      -4.596  11.192  16.747  0.00  0.00    +0.000 C 
ATOM     13  H   UNL     1      -2.036  12.073  17.526  0.00  0.00    +0.000 HD
ATOM     14  H   UNL     1      -6.915  11.839  20.536  0.00  0.00    +0.000 HD
ENDROOT
BRANCH   5  15
ATOM     15  C   UNL     1      -2.213  13.921  21.695  0.00  0.00    +0.000 A 
ATOM     16  C   UNL     1      -2.401  15.249  21.945  0.00  0.00    +0.000 A 
ATOM     17  N   UNL     1      -1.939  15.785  23.173  0.00  0.00    +0.000 N 
ATOM     18  C   UNL     1      -2.217  17.145  23.626  0.00  0.00    +0.000 C 
ATOM     19  C   UNL     1      -1.234  15.030  24.112  0.00  0.00    +0.000 A 
ATOM     20  O   UNL     1      -0.749  15.490  25.145  0.00  0.00    +0.000 OA
ATOM     21  N   UNL     1      -1.102  13.713  23.848  0.00  0.00    +0.000 N 
ATOM     22  C   UNL     1      -1.540  13.078  22.737  0.00  0.00    +0.000 A 
ATOM     23  O   UNL     1      -1.312  11.881  22.578  0.00  0.00    +0.000 OA
ATOM     24  H   UNL     1      -0.602  13.160  24.531  0.00  0.00    +0.000 HD
BRANCH  16  25
ATOM     25  N   UNL     1      -3.040  16.114  20.985  0.00  0.00    +0.000 N 
ATOM     26  C   UNL     1      -4.403  16.281  20.762  0.00  0.00    +0.000 A 
ATOM     27  C   UNL     1      -4.632  17.213  19.778  0.00  0.00    +0.000 A 
ATOM     28  C   UNL     1      -3.376  17.682  19.369  0.00  0.00    +0.000 A 
ATOM     29  C   UNL     1      -2.429  16.977  20.077  0.00  0.00    +0.000 A 
ENDBRANCH  16  25
ENDBRANCH   5  15
BRANCH   1  34
ATOM     30  C   UNL     1       1.586  14.891  18.692  0.00  0.00    +0.000 A 
ATOM     31  C   UNL     1       2.483  13.837  18.541  0.00  0.00    +0.000 A 
ATOM     32  C   UNL     1       2.060  12.529  18.738  0.00  0.00    +0.000 A 
ATOM     33  C   UNL     1       0.722  12.271  19.042  0.00  0.00    +0.000 A 
ATOM     34  C   UNL     1      -0.210  13.308  19.179  0.00  0.00    +0.000 A 
ATOM     35  C   UNL     1       0.249  14.628  19.020  0.00  0.00    +0.000 A 
BRANCH  30  37
ATOM     36  C   UNL     1       3.466  16.156  18.022  0.00  0.00    +0.000 C 
ATOM     37  O   UNL     1       2.103  16.130  18.425  0.00  0.00    +0.000 OA
ENDBRANCH  30  37
ENDBRANCH   1  34
TORSDOF 4
ENDMDL
