MODEL 1
REMARK VINA RESULT:      -7.3      0.000      0.000
REMARK  Name = 
REMARK  3 active torsions:
REMARK  status: ('A' for Active; 'I' for Inactive)
REMARK    1  A    between atoms: C_1  and  C_2
REMARK    2  A    between atoms: C_7  and  C_8
REMARK    3  A    between atoms: N_10  and  C_11
REMARK                            x       y       z     vdW  Elec       q    Type
REMARK                         _______ _______ _______ _____ _____    ______ ____
ROOT
ATOM      1  C   UNL     1       1.819   8.299  19.198  0.00  0.00    +0.000 C 
ATOM      2  O   UNL     1       2.383   8.889  18.280  0.00  0.00    +0.000 OA
ATOM      3  N   UNL     1       1.991   6.949  19.433  0.00  0.00    +0.000 N 
ATOM      4  H   UNL     1       1.627   6.558  20.294  0.00  0.00    +0.000 HD
ENDROOT
BRANCH   1  11
ATOM      5  C   UNL     1      -1.301  11.722  22.701  0.00  0.00    +0.000 C 
ATOM      6  C   UNL     1      -0.571  10.770  21.804  0.00  0.00    +0.000 A 
ATOM      7  C   UNL     1      -0.658  10.868  20.415  0.00  0.00    +0.000 A 
ATOM      8  F   UNL     1      -1.464  11.790  19.866  0.00  0.00    +0.000 F 
ATOM      9  C   UNL     1       0.080  10.027  19.579  0.00  0.00    +0.000 A 
ATOM     10  F   UNL     1      -0.071  10.162  18.255  0.00  0.00    +0.000 F 
ATOM     11  C   UNL     1       0.937   9.060  20.110  0.00  0.00    +0.000 A 
ATOM     12  C   UNL     1       0.989   8.916  21.497  0.00  0.00    +0.000 A 
ATOM     13  F   UNL     1       1.769   7.981  22.059  0.00  0.00    +0.000 F 
ATOM     14  C   UNL     1       0.245   9.766  22.327  0.00  0.00    +0.000 A 
ATOM     15  F   UNL     1       0.333   9.622  23.659  0.00  0.00    +0.000 F 
ENDBRANCH   1  11
BRANCH   3  16
ATOM     16  C   UNL     1       2.939   6.127  18.653  0.00  0.00    +0.000 C 
ATOM     17  C   UNL     1       3.972   5.491  19.597  0.00  0.00    +0.000 C 
ATOM     18  C   UNL     1       5.030   4.588  18.954  0.00  0.00    +0.000 C 
ATOM     19  C   UNL     1       4.610   3.233  18.370  0.00  0.00    +0.000 C 
ATOM     20  C   UNL     1       3.503   2.488  19.115  0.00  0.00    +0.000 C 
ATOM     21  C   UNL     1       2.111   2.633  18.496  0.00  0.00    +0.000 C 
ATOM     22  C   UNL     1       1.462   4.015  18.567  0.00  0.00    +0.000 C 
ATOM     23  C   UNL     1       2.168   5.124  17.781  0.00  0.00    +0.000 C 
ENDBRANCH   3  16
TORSDOF 2
ENDMDL
MODEL 2
REMARK VINA RESULT:      -7.3      0.388      2.295
REMARK  Name = 
REMARK  3 active torsions:
REMARK  status: ('A' for Active; 'I' for Inactive)
REMARK    1  A    between atoms: C_1  and  C_2
REMARK    2  A    between atoms: C_7  and  C_8
REMARK    3  A    between atoms: N_10  and  C_11
REMARK                            x       y       z     vdW  Elec       q    Type
REMARK                         _______ _______ _______ _____ _____    ______ ____
ROOT
ATOM      1  C   UNL     1       1.815   8.284  19.254  0.00  0.00    +0.000 C 
ATOM      2  O   UNL     1       2.393   8.773  18.286  0.00  0.00    +0.000 OA
ATOM      3  N   UNL     1       1.866   6.936  19.547  0.00  0.00    +0.000 N 
ATOM      4  H   UNL     1       1.505   6.622  20.441  0.00  0.00    +0.000 HD
ENDROOT
BRANCH   1  11
ATOM      5  C   UNL     1      -1.523  11.333  22.898  0.00  0.00    +0.000 C 
ATOM      6  C   UNL     1      -0.595  10.623  21.961  0.00  0.00    +0.000 A 
ATOM      7  C   UNL     1       0.327   9.684  22.422  0.00  0.00    +0.000 A 
ATOM      8  F   UNL     1       0.436   9.457  23.741  0.00  0.00    +0.000 F 
ATOM      9  C   UNL     1       1.142   8.969  21.542  0.00  0.00    +0.000 A 
ATOM     10  F   UNL     1       2.021   8.101  22.057  0.00  0.00    +0.000 F 
ATOM     11  C   UNL     1       1.054   9.169  20.161  0.00  0.00    +0.000 A 
ATOM     12  C   UNL     1       0.174  10.145  19.692  0.00  0.00    +0.000 A 
ATOM     13  F   UNL     1       0.074  10.403  18.379  0.00  0.00    +0.000 F 
ATOM     14  C   UNL     1      -0.639  10.857  20.585  0.00  0.00    +0.000 A 
ATOM     15  F   UNL     1      -1.495  11.773  20.104  0.00  0.00    +0.000 F 
ENDBRANCH   1  11
BRANCH   3  16
ATOM     16  C   UNL     1       2.695   5.990  18.771  0.00  0.00    +0.000 C 
ATOM     17  C   UNL     1       3.895   5.536  19.619  0.00  0.00    +0.000 C 
ATOM     18  C   UNL     1       4.857   4.534  18.971  0.00  0.00    +0.000 C 
ATOM     19  C   UNL     1       4.389   3.096  18.716  0.00  0.00    +0.000 C 
ATOM     20  C   UNL     1       3.450   2.494  19.761  0.00  0.00    +0.000 C 
ATOM     21  C   UNL     1       1.970   2.522  19.378  0.00  0.00    +0.000 C 
ATOM     22  C   UNL     1       1.296   3.893  19.316  0.00  0.00    +0.000 C 
ATOM     23  C   UNL     1       1.821   4.845  18.237  0.00  0.00    +0.000 C 
ENDBRANCH   3  16
TORSDOF 2
ENDMDL
MODEL 3
REMARK VINA RESULT:      -7.3      2.206      3.778
REMARK  Name = 
REMARK  3 active torsions:
REMARK  status: ('A' for Active; 'I' for Inactive)
REMARK    1  A    between atoms: C_1  and  C_2
REMARK    2  A    between atoms: C_7  and  C_8
REMARK    3  A    between atoms: N_10  and  C_11
REMARK                            x       y       z     vdW  Elec       q    Type
REMARK                         _______ _______ _______ _____ _____    ______ ____
ROOT
ATOM      1  C   UNL     1       2.450   6.624  18.578  0.00  0.00    +0.000 C 
ATOM      2  O   UNL     1       1.779   5.597  18.624  0.00  0.00    +0.000 OA
ATOM      3  N   UNL     1       3.656   6.696  17.908  0.00  0.00    +0.000 N 
ATOM      4  H   UNL     1       4.080   7.607  17.773  0.00  0.00    +0.000 HD
ENDROOT
BRANCH   1  11
ATOM      5  C   UNL     1      -0.044  11.193  21.152  0.00  0.00    +0.000 C 
ATOM      6  C   UNL     1       0.689  10.055  20.511  0.00  0.00    +0.000 A 
ATOM      7  C   UNL     1       0.950   8.873  21.205  0.00  0.00    +0.000 A 
ATOM      8  F   UNL     1       0.596   8.774  22.496  0.00  0.00    +0.000 F 
ATOM      9  C   UNL     1       1.569   7.786  20.585  0.00  0.00    +0.000 A 
ATOM     10  F   UNL     1       1.809   6.693  21.320  0.00  0.00    +0.000 F 
ATOM     11  C   UNL     1       1.944   7.846  19.240  0.00  0.00    +0.000 A 
ATOM     12  C   UNL     1       1.739   9.042  18.552  0.00  0.00    +0.000 A 
ATOM     13  F   UNL     1       2.112   9.166  17.269  0.00  0.00    +0.000 F 
ATOM     14  C   UNL     1       1.117  10.128  19.184  0.00  0.00    +0.000 A 
ATOM     15  F   UNL     1       0.908  11.258  18.490  0.00  0.00    +0.000 F 
ENDBRANCH   1  11
BRANCH   3  16
ATOM     16  C   UNL     1       4.189   5.567  17.119  0.00  0.00    +0.000 C 
ATOM     17  C   UNL     1       4.986   6.104  15.919  0.00  0.00    +0.000 C 
ATOM     18  C   UNL     1       5.627   5.063  14.995  0.00  0.00    +0.000 C 
ATOM     19  C   UNL     1       6.805   4.224  15.507  0.00  0.00    +0.000 C 
ATOM     20  C   UNL     1       7.783   4.931  16.445  0.00  0.00    +0.000 C 
ATOM     21  C   UNL     1       7.564   4.636  17.930  0.00  0.00    +0.000 C 
ATOM     22  C   UNL     1       6.289   5.190  18.566  0.00  0.00    +0.000 C 
ATOM     23  C   UNL     1       4.974   4.614  18.032  0.00  0.00    +0.000 C 
ENDBRANCH   3  16
TORSDOF 2
ENDMDL
MODEL 4
REMARK VINA RESULT:      -7.1      0.963      2.144
REMARK  Name = 
REMARK  3 active torsions:
REMARK  status: ('A' for Active; 'I' for Inactive)
REMARK    1  A    between atoms: C_1  and  C_2
REMARK    2  A    between atoms: C_7  and  C_8
REMARK    3  A    between atoms: N_10  and  C_11
REMARK                            x       y       z     vdW  Elec       q    Type
REMARK                         _______ _______ _______ _____ _____    ______ ____
ROOT
ATOM      1  C   UNL     1       1.714   8.323  18.916  0.00  0.00    +0.000 C 
ATOM      2  O   UNL     1       1.637   8.612  17.725  0.00  0.00    +0.000 OA
ATOM      3  N   UNL     1       2.324   7.168  19.364  0.00  0.00    +0.000 N 
ATOM      4  H   UNL     1       2.495   7.065  20.358  0.00  0.00    +0.000 HD
ENDROOT
BRANCH   1  11
ATOM      5  C   UNL     1      -0.979  11.838  22.673  0.00  0.00    +0.000 C 
ATOM      6  C   UNL     1      -0.197  10.949  21.754  0.00  0.00    +0.000 A 
ATOM      7  C   UNL     1      -0.128   9.572  21.959  0.00  0.00    +0.000 A 
ATOM      8  F   UNL     1      -0.716   9.034  23.039  0.00  0.00    +0.000 F 
ATOM      9  C   UNL     1       0.539   8.735  21.063  0.00  0.00    +0.000 A 
ATOM     10  F   UNL     1       0.586   7.425  21.336  0.00  0.00    +0.000 F 
ATOM     11  C   UNL     1       1.157   9.253  19.921  0.00  0.00    +0.000 A 
ATOM     12  C   UNL     1       1.142  10.636  19.735  0.00  0.00    +0.000 A 
ATOM     13  F   UNL     1       1.748  11.191  18.675  0.00  0.00    +0.000 F 
ATOM     14  C   UNL     1       0.469  11.468  20.642  0.00  0.00    +0.000 A 
ATOM     15  F   UNL     1       0.447  12.792  20.425  0.00  0.00    +0.000 F 
ENDBRANCH   1  11
BRANCH   3  16
ATOM     16  C   UNL     1       3.013   6.234  18.449  0.00  0.00    +0.000 C 
ATOM     17  C   UNL     1       4.241   5.632  19.151  0.00  0.00    +0.000 C 
ATOM     18  C   UNL     1       5.070   4.623  18.348  0.00  0.00    +0.000 C 
ATOM     19  C   UNL     1       4.476   3.245  18.027  0.00  0.00    +0.000 C 
ATOM     20  C   UNL     1       3.584   2.625  19.103  0.00  0.00    +0.000 C 
ATOM     21  C   UNL     1       2.084   2.785  18.854  0.00  0.00    +0.000 C 
ATOM     22  C   UNL     1       1.511   4.199  18.955  0.00  0.00    +0.000 C 
ATOM     23  C   UNL     1       2.015   5.198  17.909  0.00  0.00    +0.000 C 
ENDBRANCH   3  16
TORSDOF 2
ENDMDL
MODEL 5
REMARK VINA RESULT:      -7.1      0.996      2.423
REMARK  Name = 
REMARK  3 active torsions:
REMARK  status: ('A' for Active; 'I' for Inactive)
REMARK    1  A    between atoms: C_1  and  C_2
REMARK    2  A    between atoms: C_7  and  C_8
REMARK    3  A    between atoms: N_10  and  C_11
REMARK                            x       y       z     vdW  Elec       q    Type
REMARK                         _______ _______ _______ _____ _____    ______ ____
ROOT
ATOM      1  C   UNL     1       2.274   7.782  18.628  0.00  0.00    +0.000 C 
ATOM      2  O   UNL     1       3.151   8.160  17.854  0.00  0.00    +0.000 OA
ATOM      3  N   UNL     1       1.895   6.459  18.733  0.00  0.00    +0.000 N 
ATOM      4  H   UNL     1       1.284   6.191  19.497  0.00  0.00    +0.000 HD
ENDROOT
BRANCH   1  11
ATOM      5  C   UNL     1      -0.798  11.378  21.996  0.00  0.00    +0.000 C 
ATOM      6  C   UNL     1       0.078  10.499  21.157  0.00  0.00    +0.000 A 
ATOM      7  C   UNL     1       0.530   9.265  21.623  0.00  0.00    +0.000 A 
ATOM      8  F   UNL     1       0.232   8.881  22.874  0.00  0.00    +0.000 F 
ATOM      9  C   UNL     1       1.286   8.414  20.814  0.00  0.00    +0.000 A 
ATOM     10  F   UNL     1       1.706   7.254  21.336  0.00  0.00    +0.000 F 
ATOM     11  C   UNL     1       1.611   8.772  19.503  0.00  0.00    +0.000 A 
ATOM     12  C   UNL     1       1.212  10.029  19.046  0.00  0.00    +0.000 A 
ATOM     13  F   UNL     1       1.526  10.438  17.807  0.00  0.00    +0.000 F 
ATOM     14  C   UNL     1       0.453  10.875  19.866  0.00  0.00    +0.000 A 
ATOM     15  F   UNL     1       0.060  12.068  19.392  0.00  0.00    +0.000 F 
ENDBRANCH   1  11
BRANCH   3  16
ATOM     16  C   UNL     1       2.576   5.380  17.989  0.00  0.00    +0.000 C 
ATOM     17  C   UNL     1       3.774   4.864  18.804  0.00  0.00    +0.000 C 
ATOM     18  C   UNL     1       4.591   3.725  18.185  0.00  0.00    +0.000 C 
ATOM     19  C   UNL     1       3.967   2.329  18.065  0.00  0.00    +0.000 C 
ATOM     20  C   UNL     1       3.037   1.902  19.200  0.00  0.00    +0.000 C 
ATOM     21  C   UNL     1       1.547   2.057  18.893  0.00  0.00    +0.000 C 
ATOM     22  C   UNL     1       1.011   3.483  18.764  0.00  0.00    +0.000 C 
ATOM     23  C   UNL     1       1.563   4.298  17.589  0.00  0.00    +0.000 C 
ENDBRANCH   3  16
TORSDOF 2
ENDMDL
MODEL 6
REMARK VINA RESULT:      -7.1      2.870      7.081
REMARK  Name = 
REMARK  3 active torsions:
REMARK  status: ('A' for Active; 'I' for Inactive)
REMARK    1  A    between atoms: C_1  and  C_2
REMARK    2  A    between atoms: C_7  and  C_8
REMARK    3  A    between atoms: N_10  and  C_11
REMARK                            x       y       z     vdW  Elec       q    Type
REMARK                         _______ _______ _______ _____ _____    ______ ____
ROOT
ATOM      1  C   UNL     1       2.152   6.542  19.840  0.00  0.00    +0.000 C 
ATOM      2  O   UNL     1       1.422   5.596  20.128  0.00  0.00    +0.000 OA
ATOM      3  N   UNL     1       1.920   7.825  20.292  0.00  0.00    +0.000 N 
ATOM      4  H   UNL     1       2.641   8.525  20.152  0.00  0.00    +0.000 HD
ENDROOT
BRANCH   1  11
ATOM      5  C   UNL     1       6.494   5.313  16.185  0.00  0.00    +0.000 C 
ATOM      6  C   UNL     1       5.437   5.693  17.176  0.00  0.00    +0.000 A 
ATOM      7  C   UNL     1       4.507   6.696  16.900  0.00  0.00    +0.000 A 
ATOM      8  F   UNL     1       4.599   7.384  15.751  0.00  0.00    +0.000 F 
ATOM      9  C   UNL     1       3.478   7.001  17.793  0.00  0.00    +0.000 A 
ATOM     10  F   UNL     1       2.636   7.991  17.473  0.00  0.00    +0.000 F 
ATOM     11  C   UNL     1       3.342   6.302  18.996  0.00  0.00    +0.000 A 
ATOM     12  C   UNL     1       4.299   5.335  19.307  0.00  0.00    +0.000 A 
ATOM     13  F   UNL     1       4.237   4.658  20.464  0.00  0.00    +0.000 F 
ATOM     14  C   UNL     1       5.329   5.037  18.403  0.00  0.00    +0.000 A 
ATOM     15  F   UNL     1       6.221   4.084  18.717  0.00  0.00    +0.000 F 
ENDBRANCH   1  11
BRANCH   3  16
ATOM     16  C   UNL     1       0.827   8.145  21.233  0.00  0.00    +0.000 C 
ATOM     17  C   UNL     1       1.355   9.060  22.350  0.00  0.00    +0.000 C 
ATOM     18  C   UNL     1       0.345   9.507  23.412  0.00  0.00    +0.000 C 
ATOM     19  C   UNL     1      -0.771  10.486  23.027  0.00  0.00    +0.000 C 
ATOM     20  C   UNL     1      -0.406  11.560  22.003  0.00  0.00    +0.000 C 
ATOM     21  C   UNL     1      -0.853  11.253  20.573  0.00  0.00    +0.000 C 
ATOM     22  C   UNL     1      -0.152  10.097  19.860  0.00  0.00    +0.000 C 
ATOM     23  C   UNL     1      -0.378   8.707  20.464  0.00  0.00    +0.000 C 
ENDBRANCH   3  16
TORSDOF 2
ENDMDL
MODEL 7
REMARK VINA RESULT:      -7.0      2.789      7.103
REMARK  Name = 
REMARK  3 active torsions:
REMARK  status: ('A' for Active; 'I' for Inactive)
REMARK    1  A    between atoms: C_1  and  C_2
REMARK    2  A    between atoms: C_7  and  C_8
REMARK    3  A    between atoms: N_10  and  C_11
REMARK                            x       y       z     vdW  Elec       q    Type
REMARK                         _______ _______ _______ _____ _____    ______ ____
ROOT
ATOM      1  C   UNL     1       1.819   7.909  20.024  0.00  0.00    +0.000 C 
ATOM      2  O   UNL     1       1.800   8.003  21.249  0.00  0.00    +0.000 OA
ATOM      3  N   UNL     1       1.382   8.921  19.193  0.00  0.00    +0.000 N 
ATOM      4  H   UNL     1       1.571   8.846  18.200  0.00  0.00    +0.000 HD
ENDROOT
BRANCH   1  11
ATOM      5  C   UNL     1       3.560   3.159  17.173  0.00  0.00    +0.000 C 
ATOM      6  C   UNL     1       3.188   4.370  17.972  0.00  0.00    +0.000 A 
ATOM      7  C   UNL     1       3.615   5.646  17.603  0.00  0.00    +0.000 A 
ATOM      8  F   UNL     1       4.432   5.789  16.547  0.00  0.00    +0.000 F 
ATOM      9  C   UNL     1       3.209   6.781  18.306  0.00  0.00    +0.000 A 
ATOM     10  F   UNL     1       3.678   7.971  17.909  0.00  0.00    +0.000 F 
ATOM     11  C   UNL     1       2.352   6.677  19.405  0.00  0.00    +0.000 A 
ATOM     12  C   UNL     1       1.964   5.402  19.817  0.00  0.00    +0.000 A 
ATOM     13  F   UNL     1       1.170   5.240  20.886  0.00  0.00    +0.000 F 
ATOM     14  C   UNL     1       2.377   4.267  19.104  0.00  0.00    +0.000 A 
ATOM     15  F   UNL     1       1.967   3.054  19.507  0.00  0.00    +0.000 F 
ENDBRANCH   1  11
BRANCH   3  16
ATOM     16  C   UNL     1       0.942  10.233  19.711  0.00  0.00    +0.000 C 
ATOM     17  C   UNL     1       1.504  11.356  18.824  0.00  0.00    +0.000 C 
ATOM     18  C   UNL     1       1.131  12.792  19.209  0.00  0.00    +0.000 C 
ATOM     19  C   UNL     1      -0.317  13.267  19.034  0.00  0.00    +0.000 C 
ATOM     20  C   UNL     1      -1.069  12.716  17.824  0.00  0.00    +0.000 C 
ATOM     21  C   UNL     1      -2.008  11.550  18.136  0.00  0.00    +0.000 C 
ATOM     22  C   UNL     1      -1.359  10.228  18.546  0.00  0.00    +0.000 C 
ATOM     23  C   UNL     1      -0.586  10.248  19.869  0.00  0.00    +0.000 C 
ENDBRANCH   3  16
TORSDOF 2
ENDMDL
MODEL 8
REMARK VINA RESULT:      -7.0      2.786      7.362
REMARK  Name = 
REMARK  3 active torsions:
REMARK  status: ('A' for Active; 'I' for Inactive)
REMARK    1  A    between atoms: C_1  and  C_2
REMARK    2  A    between atoms: C_7  and  C_8
REMARK    3  A    between atoms: N_10  and  C_11
REMARK                            x       y       z     vdW  Elec       q    Type
REMARK                         _______ _______ _______ _____ _____    ______ ____
ROOT
ATOM      1  C   UNL     1       1.869   7.862  19.859  0.00  0.00    +0.000 C 
ATOM      2  O   UNL     1       1.932   7.916  21.084  0.00  0.00    +0.000 OA
ATOM      3  N   UNL     1       1.400   8.908  19.090  0.00  0.00    +0.000 N 
ATOM      4  H   UNL     1       1.522   8.863  18.085  0.00  0.00    +0.000 HD
ENDROOT
BRANCH   1  11
ATOM      5  C   UNL     1       4.065   3.000  17.565  0.00  0.00    +0.000 C 
ATOM      6  C   UNL     1       3.426   4.251  18.085  0.00  0.00    +0.000 A 
ATOM      7  C   UNL     1       2.514   4.218  19.140  0.00  0.00    +0.000 A 
ATOM      8  F   UNL     1       2.146   3.036  19.658  0.00  0.00    +0.000 F 
ATOM      9  C   UNL     1       1.974   5.390  19.672  0.00  0.00    +0.000 A 
ATOM     10  F   UNL     1       1.085   5.281  20.668  0.00  0.00    +0.000 F 
ATOM     11  C   UNL     1       2.337   6.641  19.168  0.00  0.00    +0.000 A 
ATOM     12  C   UNL     1       3.206   6.684  18.077  0.00  0.00    +0.000 A 
ATOM     13  F   UNL     1       3.562   7.856  17.530  0.00  0.00    +0.000 F 
ATOM     14  C   UNL     1       3.743   5.500  17.549  0.00  0.00    +0.000 A 
ATOM     15  F   UNL     1       4.597   5.572  16.516  0.00  0.00    +0.000 F 
ENDBRANCH   1  11
BRANCH   3  16
ATOM     16  C   UNL     1       1.020  10.210  19.677  0.00  0.00    +0.000 C 
ATOM     17  C   UNL     1       1.565  11.352  18.802  0.00  0.00    +0.000 C 
ATOM     18  C   UNL     1       1.250  12.780  19.257  0.00  0.00    +0.000 C 
ATOM     19  C   UNL     1      -0.193  13.297  19.174  0.00  0.00    +0.000 C 
ATOM     20  C   UNL     1      -1.019  12.809  17.985  0.00  0.00    +0.000 C 
ATOM     21  C   UNL     1      -1.971  11.654  18.303  0.00  0.00    +0.000 C 
ATOM     22  C   UNL     1      -1.335  10.303  18.632  0.00  0.00    +0.000 C 
ATOM     23  C   UNL     1      -0.497  10.256  19.913  0.00  0.00    +0.000 C 
ENDBRANCH   3  16
TORSDOF 2
ENDMDL
MODEL 9
REMARK VINA RESULT:      -7.0      1.721      3.266
REMARK  Name = 
REMARK  3 active torsions:
REMARK  status: ('A' for Active; 'I' for Inactive)
REMARK    1  A    between atoms: C_1  and  C_2
REMARK    2  A    between atoms: C_7  and  C_8
REMARK    3  A    between atoms: N_10  and  C_11
REMARK                            x       y       z     vdW  Elec       q    Type
REMARK                         _______ _______ _______ _____ _____    ______ ____
ROOT
ATOM      1  C   UNL     1       1.933   7.321  20.036  0.00  0.00    +0.000 C 
ATOM      2  O   UNL     1       1.550   6.415  20.771  0.00  0.00    +0.000 OA
ATOM      3  N   UNL     1       2.946   7.153  19.113  0.00  0.00    +0.000 N 
ATOM      4  H   UNL     1       3.106   7.887  18.432  0.00  0.00    +0.000 HD
ENDROOT
BRANCH   1  11
ATOM      5  C   UNL     1      -1.126  12.236  20.500  0.00  0.00    +0.000 C 
ATOM      6  C   UNL     1      -0.253  11.025  20.370  0.00  0.00    +0.000 A 
ATOM      7  C   UNL     1       0.238  10.358  21.492  0.00  0.00    +0.000 A 
ATOM      8  F   UNL     1      -0.017  10.846  22.716  0.00  0.00    +0.000 F 
ATOM      9  C   UNL     1       0.991   9.188  21.372  0.00  0.00    +0.000 A 
ATOM     10  F   UNL     1       1.451   8.615  22.491  0.00  0.00    +0.000 F 
ATOM     11  C   UNL     1       1.272   8.642  20.117  0.00  0.00    +0.000 A 
ATOM     12  C   UNL     1       0.833   9.330  18.986  0.00  0.00    +0.000 A 
ATOM     13  F   UNL     1       1.104   8.870  17.755  0.00  0.00    +0.000 F 
ATOM     14  C   UNL     1       0.078  10.505  19.117  0.00  0.00    +0.000 A 
ATOM     15  F   UNL     1      -0.354  11.133  18.013  0.00  0.00    +0.000 F 
ENDBRANCH   1  11
BRANCH   3  16
ATOM     16  C   UNL     1       3.588   5.844  18.875  0.00  0.00    +0.000 C 
ATOM     17  C   UNL     1       2.834   5.091  17.767  0.00  0.00    +0.000 C 
ATOM     18  C   UNL     1       3.376   3.712  17.377  0.00  0.00    +0.000 C 
ATOM     19  C   UNL     1       4.720   3.610  16.645  0.00  0.00    +0.000 C 
ATOM     20  C   UNL     1       5.034   4.723  15.646  0.00  0.00    +0.000 C 
ATOM     21  C   UNL     1       5.966   5.812  16.180  0.00  0.00    +0.000 C 
ATOM     22  C   UNL     1       5.412   6.721  17.277  0.00  0.00    +0.000 C 
ATOM     23  C   UNL     1       5.088   6.036  18.609  0.00  0.00    +0.000 C 
ENDBRANCH   3  16
TORSDOF 2
ENDMDL
