MODEL 1
REMARK VINA RESULT:      -6.2      0.000      0.000
REMARK  Name = 
REMARK  10 active torsions:
REMARK  status: ('A' for Active; 'I' for Inactive)
REMARK    1  A    between atoms: C_1  and  C_2
REMARK    2  A    between atoms: C_2  and  N_3
REMARK    3  A    between atoms: N_3  and  C_4
REMARK    4  A    between atoms: N_3  and  C_6
REMARK    5  A    between atoms: C_4  and  C_5
REMARK    6  A    between atoms: C_13  and  N_14
REMARK    7  A    between atoms: N_16  and  C_17
REMARK    8  A    between atoms: N_16  and  C_18
REMARK    9  A    between atoms: C_19  and  C_20
REMARK   10  A    between atoms: C_22  and  C_23
REMARK                            x       y       z     vdW  Elec       q    Type
REMARK                         _______ _______ _______ _____ _____    ______ ____
ROOT
ATOM      1  C   UNL     1      -4.769  11.761  18.512  0.00  0.00    +0.000 A 
ATOM      2  C   UNL     1      -3.784  11.221  17.669  0.00  0.00    +0.000 A 
ATOM      3  C   UNL     1      -2.416  11.344  17.935  0.00  0.00    +0.000 A 
ATOM      4  C   UNL     1      -1.973  12.008  19.081  0.00  0.00    +0.000 A 
ATOM      5  C   UNL     1      -2.915  12.561  19.932  0.00  0.00    +0.000 A 
ATOM      6  C   UNL     1      -4.284  12.438  19.652  0.00  0.00    +0.000 A 
ATOM      7  O   UNL     1      -2.571  13.228  21.081  0.00  0.00    +0.000 OA
ATOM      8  C   UNL     1      -1.226  13.443  21.398  0.00  0.00    +0.000 C 
ATOM      9  C   UNL     1      -0.227  12.971  20.621  0.00  0.00    +0.000 C 
ATOM     10  C   UNL     1      -0.504  12.105  19.412  0.00  0.00    +0.000 C 
ENDROOT
BRANCH  10  11
ATOM     11  C   UNL     1       0.109  10.714  19.587  0.00  0.00    +0.000 A 
ATOM     12  C   UNL     1      -0.147   9.956  20.745  0.00  0.00    +0.000 A 
ATOM     13  C   UNL     1       0.513   8.749  20.959  0.00  0.00    +0.000 A 
ATOM     14  C   UNL     1       1.411   8.275  20.006  0.00  0.00    +0.000 A 
ATOM     15 CL   UNL     1       2.282   6.822  20.303  0.00  0.00    +0.000 Cl
ATOM     16  C   UNL     1       1.624   8.980  18.822  0.00  0.00    +0.000 A 
ATOM     17  C   UNL     1       0.975  10.196  18.611  0.00  0.00    +0.000 A 
ENDBRANCH  10  11
BRANCH   8  18
ATOM     18  N   UNL     1      -0.943  14.182  22.530  0.00  0.00    +0.000 NA
ATOM     19  C   UNL     1      -1.876  14.262  23.421  0.00  0.00    +0.000 C 
ATOM     20  N   UNL     1      -1.822  14.935  24.623  0.00  0.00    +0.000 N 
ATOM     21  C   UNL     1      -2.956  14.980  25.531  0.00  0.00    +0.000 C 
ATOM     22  C   UNL     1      -0.636  15.657  25.055  0.00  0.00    +0.000 C 
ENDBRANCH   8  18
BRANCH   9  23
ATOM     23  C   UNL     1       1.144  13.245  20.925  0.00  0.00    +0.000 C 
ATOM     24  N   UNL     1       2.254  13.530  21.104  0.00  0.00    +0.000 NA
ENDBRANCH   9  23
BRANCH   1  25
ATOM     25  N   UNL     1      -6.140  11.646  18.232  0.00  0.00    +0.000 N 
BRANCH  25  27
ATOM     26  C   UNL     1      -7.752  13.520  18.083  0.00  0.00    +0.000 C 
ATOM     27  C   UNL     1      -6.797  12.602  17.329  0.00  0.00    +0.000 C 
ENDBRANCH  25  27
BRANCH  25  28
ATOM     28  C   UNL     1      -6.845  10.446  18.718  0.00  0.00    +0.000 C 
ATOM     29  C   UNL     1      -7.305  10.452  20.166  0.00  0.00    +0.000 C 
ENDBRANCH  25  28
ENDBRANCH   1  25
TORSDOF 6
ENDMDL
MODEL 2
REMARK VINA RESULT:      -6.1      0.232      1.191
REMARK  Name = 
REMARK  10 active torsions:
REMARK  status: ('A' for Active; 'I' for Inactive)
REMARK    1  A    between atoms: C_1  and  C_2
REMARK    2  A    between atoms: C_2  and  N_3
REMARK    3  A    between atoms: N_3  and  C_4
REMARK    4  A    between atoms: N_3  and  C_6
REMARK    5  A    between atoms: C_4  and  C_5
REMARK    6  A    between atoms: C_13  and  N_14
REMARK    7  A    between atoms: N_16  and  C_17
REMARK    8  A    between atoms: N_16  and  C_18
REMARK    9  A    between atoms: C_19  and  C_20
REMARK   10  A    between atoms: C_22  and  C_23
REMARK                            x       y       z     vdW  Elec       q    Type
REMARK                         _______ _______ _______ _____ _____    ______ ____
ROOT
ATOM      1  C   UNL     1      -4.787  11.669  18.412  0.00  0.00    +0.000 A 
ATOM      2  C   UNL     1      -3.775  11.192  17.562  0.00  0.00    +0.000 A 
ATOM      3  C   UNL     1      -2.415  11.351  17.851  0.00  0.00    +0.000 A 
ATOM      4  C   UNL     1      -2.008  11.984  19.027  0.00  0.00    +0.000 A 
ATOM      5  C   UNL     1      -2.978  12.474  19.885  0.00  0.00    +0.000 A 
ATOM      6  C   UNL     1      -4.338  12.317  19.583  0.00  0.00    +0.000 A 
ATOM      7  O   UNL     1      -2.671  13.109  21.063  0.00  0.00    +0.000 OA
ATOM      8  C   UNL     1      -1.337  13.356  21.405  0.00  0.00    +0.000 C 
ATOM      9  C   UNL     1      -0.314  12.946  20.625  0.00  0.00    +0.000 C 
ATOM     10  C   UNL     1      -0.547  12.117  19.381  0.00  0.00    +0.000 C 
ENDROOT
BRANCH  10  11
ATOM     11  C   UNL     1       0.110  10.742  19.513  0.00  0.00    +0.000 A 
ATOM     12  C   UNL     1      -0.086   9.959  20.666  0.00  0.00    +0.000 A 
ATOM     13  C   UNL     1       0.614   8.767  20.838  0.00  0.00    +0.000 A 
ATOM     14  C   UNL     1       1.491   8.334  19.848  0.00  0.00    +0.000 A 
ATOM     15 CL   UNL     1       2.411   6.901  20.093  0.00  0.00    +0.000 Cl
ATOM     16  C   UNL     1       1.645   9.062  18.669  0.00  0.00    +0.000 A 
ATOM     17  C   UNL     1       0.956  10.263  18.500  0.00  0.00    +0.000 A 
ENDBRANCH  10  11
BRANCH   8  18
ATOM     18  N   UNL     1      -1.093  14.061  22.568  0.00  0.00    +0.000 NA
ATOM     19  C   UNL     1      -2.126  14.438  23.248  0.00  0.00    +0.000 C 
ATOM     20  N   UNL     1      -2.129  15.145  24.431  0.00  0.00    +0.000 N 
ATOM     21  C   UNL     1      -3.363  15.544  25.086  0.00  0.00    +0.000 C 
ATOM     22  C   UNL     1      -0.901  15.551  25.095  0.00  0.00    +0.000 C 
ENDBRANCH   8  18
BRANCH   9  23
ATOM     23  C   UNL     1       1.044  13.253  20.958  0.00  0.00    +0.000 C 
ATOM     24  N   UNL     1       2.126  13.589  21.203  0.00  0.00    +0.000 NA
ENDBRANCH   9  23
BRANCH   1  25
ATOM     25  N   UNL     1      -6.150  11.519  18.109  0.00  0.00    +0.000 N 
BRANCH  25  27
ATOM     26  C   UNL     1      -7.254  10.641  20.145  0.00  0.00    +0.000 C 
ATOM     27  C   UNL     1      -6.918  10.402  18.677  0.00  0.00    +0.000 C 
ENDBRANCH  25  27
BRANCH  25  28
ATOM     28  C   UNL     1      -6.815  12.603  17.365  0.00  0.00    +0.000 C 
ATOM     29  C   UNL     1      -7.710  13.539  18.158  0.00  0.00    +0.000 C 
ENDBRANCH  25  28
ENDBRANCH   1  25
TORSDOF 6
ENDMDL
MODEL 3
REMARK VINA RESULT:      -6.1      0.523      1.632
REMARK  Name = 
REMARK  10 active torsions:
REMARK  status: ('A' for Active; 'I' for Inactive)
REMARK    1  A    between atoms: C_1  and  C_2
REMARK    2  A    between atoms: C_2  and  N_3
REMARK    3  A    between atoms: N_3  and  C_4
REMARK    4  A    between atoms: N_3  and  C_6
REMARK    5  A    between atoms: C_4  and  C_5
REMARK    6  A    between atoms: C_13  and  N_14
REMARK    7  A    between atoms: N_16  and  C_17
REMARK    8  A    between atoms: N_16  and  C_18
REMARK    9  A    between atoms: C_19  and  C_20
REMARK   10  A    between atoms: C_22  and  C_23
REMARK                            x       y       z     vdW  Elec       q    Type
REMARK                         _______ _______ _______ _____ _____    ______ ____
ROOT
ATOM      1  C   UNL     1      -4.676  11.772  18.788  0.00  0.00    +0.000 A 
ATOM      2  C   UNL     1      -3.705  11.123  18.007  0.00  0.00    +0.000 A 
ATOM      3  C   UNL     1      -2.333  11.262  18.245  0.00  0.00    +0.000 A 
ATOM      4  C   UNL     1      -1.872  12.053  19.299  0.00  0.00    +0.000 A 
ATOM      5  C   UNL     1      -2.800  12.714  20.086  0.00  0.00    +0.000 A 
ATOM      6  C   UNL     1      -4.173  12.574  19.835  0.00  0.00    +0.000 A 
ATOM      7  O   UNL     1      -2.439  13.511  21.144  0.00  0.00    +0.000 OA
ATOM      8  C   UNL     1      -1.088  13.747  21.421  0.00  0.00    +0.000 C 
ATOM      9  C   UNL     1      -0.102  13.175  20.698  0.00  0.00    +0.000 C 
ATOM     10  C   UNL     1      -0.399  12.173  19.603  0.00  0.00    +0.000 C 
ENDROOT
BRANCH  10  11
ATOM     11  C   UNL     1       0.202  10.807  19.939  0.00  0.00    +0.000 A 
ATOM     12  C   UNL     1       1.130  10.197  19.074  0.00  0.00    +0.000 A 
ATOM     13  C   UNL     1       1.576   8.900  19.318  0.00  0.00    +0.000 A 
ATOM     14  C   UNL     1       1.123   8.215  20.441  0.00  0.00    +0.000 A 
ATOM     15 CL   UNL     1       1.616   6.588  20.703  0.00  0.00    +0.000 Cl
ATOM     16  C   UNL     1       0.258   8.830  21.345  0.00  0.00    +0.000 A 
ATOM     17  C   UNL     1      -0.202  10.123  21.097  0.00  0.00    +0.000 A 
ENDBRANCH  10  11
BRANCH   8  18
ATOM     18  N   UNL     1      -0.787  14.613  22.454  0.00  0.00    +0.000 NA
ATOM     19  C   UNL     1      -1.544  14.557  23.500  0.00  0.00    +0.000 C 
ATOM     20  N   UNL     1      -1.436  15.315  24.646  0.00  0.00    +0.000 N 
ATOM     21  C   UNL     1      -2.375  15.184  25.748  0.00  0.00    +0.000 C 
ATOM     22  C   UNL     1      -0.387  16.306  24.825  0.00  0.00    +0.000 C 
ENDBRANCH   8  18
BRANCH   9  23
ATOM     23  C   UNL     1       1.275  13.468  20.955  0.00  0.00    +0.000 C 
ATOM     24  N   UNL     1       2.388  13.642  21.231  0.00  0.00    +0.000 NA
ENDBRANCH   9  23
BRANCH   1  25
ATOM     25  N   UNL     1      -6.051  11.638  18.535  0.00  0.00    +0.000 N 
BRANCH  25  27
ATOM     26  C   UNL     1      -6.958   9.510  19.419  0.00  0.00    +0.000 C 
ATOM     27  C   UNL     1      -6.935  11.029  19.539  0.00  0.00    +0.000 C 
ENDBRANCH  25  27
BRANCH  25  28
ATOM     28  C   UNL     1      -6.596  12.285  17.329  0.00  0.00    +0.000 C 
ATOM     29  C   UNL     1      -7.078  13.719  17.470  0.00  0.00    +0.000 C 
ENDBRANCH  25  28
ENDBRANCH   1  25
TORSDOF 6
ENDMDL
MODEL 4
REMARK VINA RESULT:      -6.1      0.967      1.855
REMARK  Name = 
REMARK  10 active torsions:
REMARK  status: ('A' for Active; 'I' for Inactive)
REMARK    1  A    between atoms: C_1  and  C_2
REMARK    2  A    between atoms: C_2  and  N_3
REMARK    3  A    between atoms: N_3  and  C_4
REMARK    4  A    between atoms: N_3  and  C_6
REMARK    5  A    between atoms: C_4  and  C_5
REMARK    6  A    between atoms: C_13  and  N_14
REMARK    7  A    between atoms: N_16  and  C_17
REMARK    8  A    between atoms: N_16  and  C_18
REMARK    9  A    between atoms: C_19  and  C_20
REMARK   10  A    between atoms: C_22  and  C_23
REMARK                            x       y       z     vdW  Elec       q    Type
REMARK                         _______ _______ _______ _____ _____    ______ ____
ROOT
ATOM      1  C   UNL     1      -5.096  11.804  18.931  0.00  0.00    +0.000 A 
ATOM      2  C   UNL     1      -4.017  11.437  18.108  0.00  0.00    +0.000 A 
ATOM      3  C   UNL     1      -2.689  11.728  18.437  0.00  0.00    +0.000 A 
ATOM      4  C   UNL     1      -2.381  12.391  19.626  0.00  0.00    +0.000 A 
ATOM      5  C   UNL     1      -3.419  12.775  20.458  0.00  0.00    +0.000 A 
ATOM      6  C   UNL     1      -4.748  12.486  20.116  0.00  0.00    +0.000 A 
ATOM      7  O   UNL     1      -3.210  13.429  21.647  0.00  0.00    +0.000 OA
ATOM      8  C   UNL     1      -1.918  13.806  22.029  0.00  0.00    +0.000 C 
ATOM      9  C   UNL     1      -0.837  13.506  21.277  0.00  0.00    +0.000 C 
ATOM     10  C   UNL     1      -0.951  12.667  20.023  0.00  0.00    +0.000 C 
ENDROOT
BRANCH  10  11
ATOM     11  C   UNL     1      -0.164  11.362  20.168  0.00  0.00    +0.000 A 
ATOM     12  C   UNL     1       0.759  10.966  19.183  0.00  0.00    +0.000 A 
ATOM     13  C   UNL     1       1.377   9.720  19.255  0.00  0.00    +0.000 A 
ATOM     14  C   UNL     1       1.101   8.874  20.325  0.00  0.00    +0.000 A 
ATOM     15 CL   UNL     1       1.807   7.306  20.377  0.00  0.00    +0.000 Cl
ATOM     16  C   UNL     1       0.243   9.280  21.346  0.00  0.00    +0.000 A 
ATOM     17  C   UNL     1      -0.389  10.522  21.270  0.00  0.00    +0.000 A 
ENDBRANCH  10  11
BRANCH   8  18
ATOM     18  N   UNL     1      -1.779  14.523  23.201  0.00  0.00    +0.000 NA
ATOM     19  C   UNL     1      -2.806  15.202  23.594  0.00  0.00    +0.000 C 
ATOM     20  N   UNL     1      -2.902  15.984  24.725  0.00  0.00    +0.000 N 
ATOM     21  C   UNL     1      -4.108  16.730  25.044  0.00  0.00    +0.000 C 
ATOM     22  C   UNL     1      -1.803  16.127  25.665  0.00  0.00    +0.000 C 
ENDBRANCH   8  18
BRANCH   9  23
ATOM     23  C   UNL     1       0.473  13.944  21.650  0.00  0.00    +0.000 C 
ATOM     24  N   UNL     1       1.560  14.211  21.951  0.00  0.00    +0.000 NA
ENDBRANCH   9  23
BRANCH   1  25
ATOM     25  N   UNL     1      -6.428  11.520  18.588  0.00  0.00    +0.000 N 
BRANCH  25  27
ATOM     26  C   UNL     1      -7.481  10.081  20.306  0.00  0.00    +0.000 C 
ATOM     27  C   UNL     1      -7.000  10.195  18.864  0.00  0.00    +0.000 C 
ENDBRANCH  25  27
BRANCH  25  28
ATOM     28  C   UNL     1      -7.272  12.634  18.120  0.00  0.00    +0.000 C 
ATOM     29  C   UNL     1      -6.705  13.517  17.021  0.00  0.00    +0.000 C 
ENDBRANCH  25  28
ENDBRANCH   1  25
TORSDOF 6
ENDMDL
MODEL 5
REMARK VINA RESULT:      -6.0      1.227      1.975
REMARK  Name = 
REMARK  10 active torsions:
REMARK  status: ('A' for Active; 'I' for Inactive)
REMARK    1  A    between atoms: C_1  and  C_2
REMARK    2  A    between atoms: C_2  and  N_3
REMARK    3  A    between atoms: N_3  and  C_4
REMARK    4  A    between atoms: N_3  and  C_6
REMARK    5  A    between atoms: C_4  and  C_5
REMARK    6  A    between atoms: C_13  and  N_14
REMARK    7  A    between atoms: N_16  and  C_17
REMARK    8  A    between atoms: N_16  and  C_18
REMARK    9  A    between atoms: C_19  and  C_20
REMARK   10  A    between atoms: C_22  and  C_23
REMARK                            x       y       z     vdW  Elec       q    Type
REMARK                         _______ _______ _______ _____ _____    ______ ____
ROOT
ATOM      1  C   UNL     1      -4.332  11.731  19.005  0.00  0.00    +0.000 A 
ATOM      2  C   UNL     1      -3.576  10.982  18.088  0.00  0.00    +0.000 A 
ATOM      3  C   UNL     1      -2.187  11.111  17.976  0.00  0.00    +0.000 A 
ATOM      4  C   UNL     1      -1.487  11.994  18.801  0.00  0.00    +0.000 A 
ATOM      5  C   UNL     1      -2.200  12.755  19.712  0.00  0.00    +0.000 A 
ATOM      6  C   UNL     1      -3.593  12.624  19.811  0.00  0.00    +0.000 A 
ATOM      7  O   UNL     1      -1.596  13.646  20.563  0.00  0.00    +0.000 OA
ATOM      8  C   UNL     1      -0.219  13.876  20.484  0.00  0.00    +0.000 C 
ATOM      9  C   UNL     1       0.566  13.208  19.612  0.00  0.00    +0.000 C 
ATOM     10  C   UNL     1       0.016  12.108  18.731  0.00  0.00    +0.000 C 
ENDROOT
BRANCH  10  11
ATOM     11  C   UNL     1       0.680  10.768  19.056  0.00  0.00    +0.000 A 
ATOM     12  C   UNL     1       1.413  10.073  18.076  0.00  0.00    +0.000 A 
ATOM     13  C   UNL     1       1.907   8.797  18.338  0.00  0.00    +0.000 A 
ATOM     14  C   UNL     1       1.698   8.219  19.586  0.00  0.00    +0.000 A 
ATOM     15 CL   UNL     1       2.243   6.614  19.885  0.00  0.00    +0.000 Cl
ATOM     16  C   UNL     1       1.034   8.922  20.590  0.00  0.00    +0.000 A 
ATOM     17  C   UNL     1       0.526  10.194  20.328  0.00  0.00    +0.000 A 
ENDBRANCH  10  11
BRANCH   8  18
ATOM     18  N   UNL     1       0.321  14.836  21.319  0.00  0.00    +0.000 NA
ATOM     19  C   UNL     1      -0.353  15.127  22.383  0.00  0.00    +0.000 C 
ATOM     20  N   UNL     1      -0.015  16.043  23.356  0.00  0.00    +0.000 N 
ATOM     21  C   UNL     1      -0.877  16.309  24.495  0.00  0.00    +0.000 C 
ATOM     22  C   UNL     1       1.217  16.813  23.301  0.00  0.00    +0.000 C 
ENDBRANCH   8  18
BRANCH   9  23
ATOM     23  C   UNL     1       1.964  13.492  19.501  0.00  0.00    +0.000 C 
ATOM     24  N   UNL     1       3.100  13.661  19.343  0.00  0.00    +0.000 NA
ENDBRANCH   9  23
BRANCH   1  25
ATOM     25  N   UNL     1      -5.727  11.607  19.102  0.00  0.00    +0.000 N 
BRANCH  25  27
ATOM     26  C   UNL     1      -7.513  10.656  20.531  0.00  0.00    +0.000 C 
ATOM     27  C   UNL     1      -6.390  11.680  20.412  0.00  0.00    +0.000 C 
ENDBRANCH  25  27
BRANCH  25  28
ATOM     28  C   UNL     1      -6.507  11.587  17.852  0.00  0.00    +0.000 C 
ATOM     29  C   UNL     1      -6.690  12.911  17.129  0.00  0.00    +0.000 C 
ENDBRANCH  25  28
ENDBRANCH   1  25
TORSDOF 6
ENDMDL
MODEL 6
REMARK VINA RESULT:      -6.0      1.323      1.781
REMARK  Name = 
REMARK  10 active torsions:
REMARK  status: ('A' for Active; 'I' for Inactive)
REMARK    1  A    between atoms: C_1  and  C_2
REMARK    2  A    between atoms: C_2  and  N_3
REMARK    3  A    between atoms: N_3  and  C_4
REMARK    4  A    between atoms: N_3  and  C_6
REMARK    5  A    between atoms: C_4  and  C_5
REMARK    6  A    between atoms: C_13  and  N_14
REMARK    7  A    between atoms: N_16  and  C_17
REMARK    8  A    between atoms: N_16  and  C_18
REMARK    9  A    between atoms: C_19  and  C_20
REMARK   10  A    between atoms: C_22  and  C_23
REMARK                            x       y       z     vdW  Elec       q    Type
REMARK                         _______ _______ _______ _____ _____    ______ ____
ROOT
ATOM      1  C   UNL     1      -4.614  11.281  18.313  0.00  0.00    +0.000 A 
ATOM      2  C   UNL     1      -3.737  10.608  17.445  0.00  0.00    +0.000 A 
ATOM      3  C   UNL     1      -2.348  10.762  17.512  0.00  0.00    +0.000 A 
ATOM      4  C   UNL     1      -1.771  11.593  18.475  0.00  0.00    +0.000 A 
ATOM      5  C   UNL     1      -2.605  12.279  19.342  0.00  0.00    +0.000 A 
ATOM      6  C   UNL     1      -3.996  12.125  19.262  0.00  0.00    +0.000 A 
ATOM      7  O   UNL     1      -2.127  13.116  20.319  0.00  0.00    +0.000 OA
ATOM      8  C   UNL     1      -0.755  13.369  20.425  0.00  0.00    +0.000 C 
ATOM      9  C   UNL     1       0.143  12.774  19.610  0.00  0.00    +0.000 C 
ATOM     10  C   UNL     1      -0.274  11.731  18.596  0.00  0.00    +0.000 C 
ENDROOT
BRANCH  10  11
ATOM     11  C   UNL     1       0.375  10.380  18.907  0.00  0.00    +0.000 A 
ATOM     12  C   UNL     1       0.226   9.786  20.174  0.00  0.00    +0.000 A 
ATOM     13  C   UNL     1       0.921   8.622  20.494  0.00  0.00    +0.000 A 
ATOM     14  C   UNL     1       1.747   8.029  19.544  0.00  0.00    +0.000 A 
ATOM     15 CL   UNL     1       2.663   6.634  19.962  0.00  0.00    +0.000 Cl
ATOM     16  C   UNL     1       1.851   8.566  18.262  0.00  0.00    +0.000 A 
ATOM     17  C   UNL     1       1.167   9.739  17.942  0.00  0.00    +0.000 A 
ENDBRANCH  10  11
BRANCH   8  18
ATOM     18  N   UNL     1      -0.340  14.274  21.383  0.00  0.00    +0.000 NA
ATOM     19  C   UNL     1      -1.051  15.345  21.518  0.00  0.00    +0.000 C 
ATOM     20  N   UNL     1      -0.836  16.379  22.403  0.00  0.00    +0.000 N 
ATOM     21  C   UNL     1      -1.690  17.554  22.437  0.00  0.00    +0.000 C 
ATOM     22  C   UNL     1       0.267  16.372  23.350  0.00  0.00    +0.000 C 
ENDBRANCH   8  18
BRANCH   9  23
ATOM     23  C   UNL     1       1.538  13.082  19.691  0.00  0.00    +0.000 C 
ATOM     24  N   UNL     1       2.645  13.415  19.787  0.00  0.00    +0.000 NA
ENDBRANCH   9  23
BRANCH   1  25
ATOM     25  N   UNL     1      -6.008  11.133  18.231  0.00  0.00    +0.000 N 
BRANCH  25  27
ATOM     26  C   UNL     1      -7.220  10.682  20.343  0.00  0.00    +0.000 C 
ATOM     27  C   UNL     1      -6.694  10.109  19.032  0.00  0.00    +0.000 C 
ENDBRANCH  25  27
BRANCH  25  28
ATOM     28  C   UNL     1      -6.766  12.141  17.469  0.00  0.00    +0.000 C 
ATOM     29  C   UNL     1      -6.921  13.514  18.102  0.00  0.00    +0.000 C 
ENDBRANCH  25  28
ENDBRANCH   1  25
TORSDOF 6
ENDMDL
MODEL 7
REMARK VINA RESULT:      -5.8      1.398      1.675
REMARK  Name = 
REMARK  10 active torsions:
REMARK  status: ('A' for Active; 'I' for Inactive)
REMARK    1  A    between atoms: C_1  and  C_2
REMARK    2  A    between atoms: C_2  and  N_3
REMARK    3  A    between atoms: N_3  and  C_4
REMARK    4  A    between atoms: N_3  and  C_6
REMARK    5  A    between atoms: C_4  and  C_5
REMARK    6  A    between atoms: C_13  and  N_14
REMARK    7  A    between atoms: N_16  and  C_17
REMARK    8  A    between atoms: N_16  and  C_18
REMARK    9  A    between atoms: C_19  and  C_20
REMARK   10  A    between atoms: C_22  and  C_23
REMARK                            x       y       z     vdW  Elec       q    Type
REMARK                         _______ _______ _______ _____ _____    ______ ____
ROOT
ATOM      1  C   UNL     1      -4.779  11.341  18.749  0.00  0.00    +0.000 A 
ATOM      2  C   UNL     1      -3.922  10.622  17.899  0.00  0.00    +0.000 A 
ATOM      3  C   UNL     1      -2.543  10.853  17.852  0.00  0.00    +0.000 A 
ATOM      4  C   UNL     1      -1.955  11.813  18.677  0.00  0.00    +0.000 A 
ATOM      5  C   UNL     1      -2.770  12.548  19.522  0.00  0.00    +0.000 A 
ATOM      6  C   UNL     1      -4.152  12.315  19.557  0.00  0.00    +0.000 A 
ATOM      7  O   UNL     1      -2.279  13.510  20.369  0.00  0.00    +0.000 OA
ATOM      8  C   UNL     1      -0.920  13.842  20.350  0.00  0.00    +0.000 C 
ATOM      9  C   UNL     1      -0.043  13.207  19.543  0.00  0.00    +0.000 C 
ATOM     10  C   UNL     1      -0.463  12.039  18.678  0.00  0.00    +0.000 C 
ENDROOT
BRANCH  10  11
ATOM     11  C   UNL     1       0.281  10.766  19.086  0.00  0.00    +0.000 A 
ATOM     12  C   UNL     1       1.110  10.093  18.169  0.00  0.00    +0.000 A 
ATOM     13  C   UNL     1       1.683   8.868  18.502  0.00  0.00    +0.000 A 
ATOM     14  C   UNL     1       1.457   8.321  19.762  0.00  0.00    +0.000 A 
ATOM     15 CL   UNL     1       2.103   6.774  20.148  0.00  0.00    +0.000 Cl
ATOM     16  C   UNL     1       0.695   9.008  20.706  0.00  0.00    +0.000 A 
ATOM     17  C   UNL     1       0.109  10.228  20.371  0.00  0.00    +0.000 A 
ENDBRANCH  10  11
BRANCH   8  18
ATOM     18  N   UNL     1      -0.499  14.868  21.175  0.00  0.00    +0.000 NA
ATOM     19  C   UNL     1      -1.395  15.719  21.550  0.00  0.00    +0.000 C 
ATOM     20  N   UNL     1      -1.212  16.813  22.368  0.00  0.00    +0.000 N 
ATOM     21  C   UNL     1      -2.298  17.722  22.692  0.00  0.00    +0.000 C 
ATOM     22  C   UNL     1       0.081  17.140  22.948  0.00  0.00    +0.000 C 
ENDBRANCH   8  18
BRANCH   9  23
ATOM     23  C   UNL     1       1.334  13.593  19.492  0.00  0.00    +0.000 C 
ATOM     24  N   UNL     1       2.469  13.818  19.431  0.00  0.00    +0.000 NA
ENDBRANCH   9  23
BRANCH   1  25
ATOM     25  N   UNL     1      -6.164  11.114  18.781  0.00  0.00    +0.000 N 
BRANCH  25  27
ATOM     26  C   UNL     1      -6.750  12.818  17.081  0.00  0.00    +0.000 C 
ATOM     27  C   UNL     1      -7.102  12.189  18.425  0.00  0.00    +0.000 C 
ENDBRANCH  25  27
BRANCH  25  28
ATOM     28  C   UNL     1      -6.632   9.734  19.000  0.00  0.00    +0.000 C 
ATOM     29  C   UNL     1      -7.413   9.462  20.275  0.00  0.00    +0.000 C 
ENDBRANCH  25  28
ENDBRANCH   1  25
TORSDOF 6
ENDMDL
MODEL 8
REMARK VINA RESULT:      -5.8      3.707      6.796
REMARK  Name = 
REMARK  10 active torsions:
REMARK  status: ('A' for Active; 'I' for Inactive)
REMARK    1  A    between atoms: C_1  and  C_2
REMARK    2  A    between atoms: C_2  and  N_3
REMARK    3  A    between atoms: N_3  and  C_4
REMARK    4  A    between atoms: N_3  and  C_6
REMARK    5  A    between atoms: C_4  and  C_5
REMARK    6  A    between atoms: C_13  and  N_14
REMARK    7  A    between atoms: N_16  and  C_17
REMARK    8  A    between atoms: N_16  and  C_18
REMARK    9  A    between atoms: C_19  and  C_20
REMARK   10  A    between atoms: C_22  and  C_23
REMARK                            x       y       z     vdW  Elec       q    Type
REMARK                         _______ _______ _______ _____ _____    ______ ____
ROOT
ATOM      1  C   UNL     1       0.452   9.991  21.095  0.00  0.00    +0.000 A 
ATOM      2  C   UNL     1      -0.385   9.660  22.174  0.00  0.00    +0.000 A 
ATOM      3  C   UNL     1      -1.040  10.630  22.942  0.00  0.00    +0.000 A 
ATOM      4  C   UNL     1      -0.896  11.986  22.645  0.00  0.00    +0.000 A 
ATOM      5  C   UNL     1      -0.073  12.351  21.593  0.00  0.00    +0.000 A 
ATOM      6  C   UNL     1       0.586  11.372  20.835  0.00  0.00    +0.000 A 
ATOM      7  O   UNL     1       0.127  13.659  21.229  0.00  0.00    +0.000 OA
ATOM      8  C   UNL     1      -0.448  14.695  21.973  0.00  0.00    +0.000 C 
ATOM      9  C   UNL     1      -1.245  14.451  23.036  0.00  0.00    +0.000 C 
ATOM     10  C   UNL     1      -1.636  13.043  23.428  0.00  0.00    +0.000 C 
ENDROOT
BRANCH  10  11
ATOM     11  C   UNL     1      -3.149  12.847  23.314  0.00  0.00    +0.000 A 
ATOM     12  C   UNL     1      -3.798  12.967  22.071  0.00  0.00    +0.000 A 
ATOM     13  C   UNL     1      -5.188  12.915  21.992  0.00  0.00    +0.000 A 
ATOM     14  C   UNL     1      -5.937  12.714  23.148  0.00  0.00    +0.000 A 
ATOM     15 CL   UNL     1      -7.655  12.724  23.062  0.00  0.00    +0.000 Cl
ATOM     16  C   UNL     1      -5.307  12.524  24.376  0.00  0.00    +0.000 A 
ATOM     17  C   UNL     1      -3.916  12.590  24.462  0.00  0.00    +0.000 A 
ENDBRANCH  10  11
BRANCH   8  18
ATOM     18  N   UNL     1      -0.154  15.992  21.600  0.00  0.00    +0.000 NA
ATOM     19  C   UNL     1       0.343  16.161  20.419  0.00  0.00    +0.000 C 
ATOM     20  N   UNL     1       0.708  17.354  19.833  0.00  0.00    +0.000 N 
ATOM     21  C   UNL     1       1.292  17.411  18.504  0.00  0.00    +0.000 C 
ATOM     22  C   UNL     1       0.548  18.631  20.510  0.00  0.00    +0.000 C 
ENDBRANCH   8  18
BRANCH   9  23
ATOM     23  C   UNL     1      -1.782  15.519  23.823  0.00  0.00    +0.000 C 
ATOM     24  N   UNL     1      -2.248  16.320  24.519  0.00  0.00    +0.000 NA
ENDBRANCH   9  23
BRANCH   1  25
ATOM     25  N   UNL     1       1.117   9.013  20.338  0.00  0.00    +0.000 N 
BRANCH  25  27
ATOM     26  C   UNL     1       2.244   6.839  19.969  0.00  0.00    +0.000 C 
ATOM     27  C   UNL     1       1.449   7.711  20.934  0.00  0.00    +0.000 C 
ENDBRANCH  25  27
BRANCH  25  28
ATOM     28  C   UNL     1       1.303   9.264  18.898  0.00  0.00    +0.000 C 
ATOM     29  C   UNL     1       0.114   9.823  18.134  0.00  0.00    +0.000 C 
ENDBRANCH  25  28
ENDBRANCH   1  25
TORSDOF 6
ENDMDL
MODEL 9
REMARK VINA RESULT:      -5.7      1.693      2.389
REMARK  Name = 
REMARK  10 active torsions:
REMARK  status: ('A' for Active; 'I' for Inactive)
REMARK    1  A    between atoms: C_1  and  C_2
REMARK    2  A    between atoms: C_2  and  N_3
REMARK    3  A    between atoms: N_3  and  C_4
REMARK    4  A    between atoms: N_3  and  C_6
REMARK    5  A    between atoms: C_4  and  C_5
REMARK    6  A    between atoms: C_13  and  N_14
REMARK    7  A    between atoms: N_16  and  C_17
REMARK    8  A    between atoms: N_16  and  C_18
REMARK    9  A    between atoms: C_19  and  C_20
REMARK   10  A    between atoms: C_22  and  C_23
REMARK                            x       y       z     vdW  Elec       q    Type
REMARK                         _______ _______ _______ _____ _____    ______ ____
ROOT
ATOM      1  C   UNL     1      -4.444  11.393  18.615  0.00  0.00    +0.000 A 
ATOM      2  C   UNL     1      -3.606  10.638  17.778  0.00  0.00    +0.000 A 
ATOM      3  C   UNL     1      -2.217  10.804  17.759  0.00  0.00    +0.000 A 
ATOM      4  C   UNL     1      -1.601  11.733  18.600  0.00  0.00    +0.000 A 
ATOM      5  C   UNL     1      -2.397  12.501  19.433  0.00  0.00    +0.000 A 
ATOM      6  C   UNL     1      -3.789  12.333  19.440  0.00  0.00    +0.000 A 
ATOM      7  O   UNL     1      -1.879  13.437  20.294  0.00  0.00    +0.000 OA
ATOM      8  C   UNL     1      -0.506  13.704  20.304  0.00  0.00    +0.000 C 
ATOM      9  C   UNL     1       0.356  13.033  19.511  0.00  0.00    +0.000 C 
ATOM     10  C   UNL     1      -0.100  11.889  18.632  0.00  0.00    +0.000 C 
ENDROOT
BRANCH  10  11
ATOM     11  C   UNL     1       0.576  10.581  19.047  0.00  0.00    +0.000 A 
ATOM     12  C   UNL     1       1.404   9.882  18.149  0.00  0.00    +0.000 A 
ATOM     13  C   UNL     1       1.913   8.630  18.485  0.00  0.00    +0.000 A 
ATOM     14  C   UNL     1       1.624   8.080  19.731  0.00  0.00    +0.000 A 
ATOM     15 CL   UNL     1       2.191   6.503  20.119  0.00  0.00    +0.000 Cl
ATOM     16  C   UNL     1       0.862   8.790  20.659  0.00  0.00    +0.000 A 
ATOM     17  C   UNL     1       0.339  10.037  20.320  0.00  0.00    +0.000 A 
ENDBRANCH  10  11
BRANCH   8  18
ATOM     18  N   UNL     1      -0.053  14.706  21.141  0.00  0.00    +0.000 NA
ATOM     19  C   UNL     1      -0.395  15.915  20.841  0.00  0.00    +0.000 C 
ATOM     20  N   UNL     1      -0.068  17.066  21.525  0.00  0.00    +0.000 N 
ATOM     21  C   UNL     1      -0.486  18.380  21.066  0.00  0.00    +0.000 C 
ATOM     22  C   UNL     1       0.729  17.045  22.740  0.00  0.00    +0.000 C 
ENDBRANCH   8  18
BRANCH   9  23
ATOM     23  C   UNL     1       1.751  13.354  19.488  0.00  0.00    +0.000 C 
ATOM     24  N   UNL     1       2.882  13.585  19.383  0.00  0.00    +0.000 NA
ENDBRANCH   9  23
BRANCH   1  25
ATOM     25  N   UNL     1      -5.839  11.231  18.619  0.00  0.00    +0.000 N 
BRANCH  25  27
ATOM     26  C   UNL     1      -7.049   9.236  19.450  0.00  0.00    +0.000 C 
ATOM     27  C   UNL     1      -6.513  10.625  19.777  0.00  0.00    +0.000 C 
ENDBRANCH  25  27
BRANCH  25  28
ATOM     28  C   UNL     1      -6.609  11.846  17.523  0.00  0.00    +0.000 C 
ATOM     29  C   UNL     1      -7.143  13.249  17.755  0.00  0.00    +0.000 C 
ENDBRANCH  25  28
ENDBRANCH   1  25
TORSDOF 6
ENDMDL
