MODEL 1
REMARK VINA RESULT:      -8.5      0.000      0.000
REMARK  Name = 
REMARK  7 active torsions:
REMARK  status: ('A' for Active; 'I' for Inactive)
REMARK    1  A    between atoms: C_1  and  C_2
REMARK    2  A    between atoms: C_2  and  C_3
REMARK    3  A    between atoms: C_3  and  C_4
REMARK    4  A    between atoms: C_4  and  N_5
REMARK    5  A    between atoms: N_5  and  S_6
REMARK    6  A    between atoms: S_6  and  C_9
REMARK    7  A    between atoms: C_17  and  C_18
REMARK                            x       y       z     vdW  Elec       q    Type
REMARK                         _______ _______ _______ _____ _____    ______ ____
ROOT
ATOM      1  C   UNL     1       4.966   5.100  16.956  0.00  0.00    +0.000 A 
ATOM      2  C   UNL     1       4.262   6.111  17.623  0.00  0.00    +0.000 A 
ATOM      3  C   UNL     1       3.052   5.815  18.249  0.00  0.00    +0.000 A 
ATOM      4  C   UNL     1       2.574   4.504  18.232  0.00  0.00    +0.000 A 
ATOM      5  C   UNL     1       3.282   3.484  17.567  0.00  0.00    +0.000 A 
ATOM      6  C   UNL     1       4.481   3.788  16.917  0.00  0.00    +0.000 A 
ATOM      7  C   UNL     1       2.680   2.100  17.551  0.00  0.00    +0.000 C 
ATOM      8  N   UNL     1       2.110   1.668  18.831  0.00  0.00    +0.000 NA
ATOM      9  C   UNL     1       1.625   2.766  19.719  0.00  0.00    +0.000 C 
ATOM     10  C   UNL     1       1.332   4.086  18.976  0.00  0.00    +0.000 C 
ATOM     11  H   UNL     1       2.788   1.100  19.344  0.00  0.00    +0.000 HD
ENDROOT
BRANCH   1  12
ATOM     12  S   UNL     1       6.551   5.489  16.246  0.00  0.00    +0.000 S 
ATOM     13  O   UNL     1       7.503   4.498  16.693  0.00  0.00    +0.000 OA
ATOM     14  O   UNL     1       6.751   6.907  16.459  0.00  0.00    +0.000 OA
BRANCH  12  15
ATOM     15  N   UNL     1       6.277   5.266  14.590  0.00  0.00    +0.000 NA
ATOM     16  H   UNL     1       5.483   5.816  14.261  0.00  0.00    +0.000 HD
BRANCH  15  17
ATOM     17  C   UNL     1       6.288   3.878  14.098  0.00  0.00    +0.000 C 
BRANCH  17  18
ATOM     18  C   UNL     1       6.571   3.853  12.594  0.00  0.00    +0.000 C 
BRANCH  18  20
ATOM     19  C   UNL     1       4.341   3.306  11.550  0.00  0.00    +0.000 C 
ATOM     20  C   UNL     1       5.746   2.803  11.845  0.00  0.00    +0.000 C 
ENDBRANCH  18  20
ENDBRANCH  17  18
ENDBRANCH  15  17
ENDBRANCH  12  15
ENDBRANCH   1  12
BRANCH   9  21
ATOM     21  C   UNL     1       2.584   3.034  20.905  0.00  0.00    +0.000 C 
ATOM     22  F   UNL     1       2.030   2.599  22.066  0.00  0.00    +0.000 F 
ATOM     23  F   UNL     1       3.727   2.316  20.733  0.00  0.00    +0.000 F 
ENDBRANCH   9  21
TORSDOF 6
ENDMDL
MODEL 2
REMARK VINA RESULT:      -8.5      2.872      4.340
REMARK  Name = 
REMARK  7 active torsions:
REMARK  status: ('A' for Active; 'I' for Inactive)
REMARK    1  A    between atoms: C_1  and  C_2
REMARK    2  A    between atoms: C_2  and  C_3
REMARK    3  A    between atoms: C_3  and  C_4
REMARK    4  A    between atoms: C_4  and  N_5
REMARK    5  A    between atoms: N_5  and  S_6
REMARK    6  A    between atoms: S_6  and  C_9
REMARK    7  A    between atoms: C_17  and  C_18
REMARK                            x       y       z     vdW  Elec       q    Type
REMARK                         _______ _______ _______ _____ _____    ______ ____
ROOT
ATOM      1  C   UNL     1       5.551   4.925  17.947  0.00  0.00    +0.000 A 
ATOM      2  C   UNL     1       4.652   5.999  17.928  0.00  0.00    +0.000 A 
ATOM      3  C   UNL     1       3.281   5.752  17.886  0.00  0.00    +0.000 A 
ATOM      4  C   UNL     1       2.820   4.435  17.898  0.00  0.00    +0.000 A 
ATOM      5  C   UNL     1       3.721   3.353  17.924  0.00  0.00    +0.000 A 
ATOM      6  C   UNL     1       5.097   3.602  17.939  0.00  0.00    +0.000 A 
ATOM      7  C   UNL     1       3.151   1.956  17.889  0.00  0.00    +0.000 C 
ATOM      8  N   UNL     1       1.981   1.754  18.748  0.00  0.00    +0.000 NA
ATOM      9  C   UNL     1       1.158   2.972  19.007  0.00  0.00    +0.000 C 
ATOM     10  C   UNL     1       1.354   4.091  17.963  0.00  0.00    +0.000 C 
ATOM     11  H   UNL     1       2.268   1.349  19.642  0.00  0.00    +0.000 HD
ENDROOT
BRANCH   1  12
ATOM     12  S   UNL     1       7.291   5.272  18.093  0.00  0.00    +0.000 S 
ATOM     13  O   UNL     1       8.005   4.395  17.192  0.00  0.00    +0.000 OA
ATOM     14  O   UNL     1       7.575   5.322  19.511  0.00  0.00    +0.000 OA
BRANCH  12  15
ATOM     15  N   UNL     1       7.402   6.856  17.504  0.00  0.00    +0.000 NA
ATOM     16  H   UNL     1       7.572   6.873  16.499  0.00  0.00    +0.000 HD
BRANCH  15  17
ATOM     17  C   UNL     1       8.243   7.790  18.271  0.00  0.00    +0.000 C 
BRANCH  17  18
ATOM     18  C   UNL     1       7.944   9.233  17.855  0.00  0.00    +0.000 C 
BRANCH  18  20
ATOM     19  C   UNL     1       9.295  10.351  19.668  0.00  0.00    +0.000 C 
ATOM     20  C   UNL     1       9.091  10.197  18.168  0.00  0.00    +0.000 C 
ENDBRANCH  18  20
ENDBRANCH  17  18
ENDBRANCH  15  17
ENDBRANCH  12  15
ENDBRANCH   1  12
BRANCH   9  21
ATOM     21  C   UNL     1       1.375   3.540  20.432  0.00  0.00    +0.000 C 
ATOM     22  F   UNL     1       0.732   4.728  20.567  0.00  0.00    +0.000 F 
ATOM     23  F   UNL     1       0.818   2.696  21.343  0.00  0.00    +0.000 F 
ENDBRANCH   9  21
TORSDOF 6
ENDMDL
MODEL 3
REMARK VINA RESULT:      -8.5      0.929      1.149
REMARK  Name = 
REMARK  7 active torsions:
REMARK  status: ('A' for Active; 'I' for Inactive)
REMARK    1  A    between atoms: C_1  and  C_2
REMARK    2  A    between atoms: C_2  and  C_3
REMARK    3  A    between atoms: C_3  and  C_4
REMARK    4  A    between atoms: C_4  and  N_5
REMARK    5  A    between atoms: N_5  and  S_6
REMARK    6  A    between atoms: S_6  and  C_9
REMARK    7  A    between atoms: C_17  and  C_18
REMARK                            x       y       z     vdW  Elec       q    Type
REMARK                         _______ _______ _______ _____ _____    ______ ____
ROOT
ATOM      1  C   UNL     1       5.302   4.985  17.591  0.00  0.00    +0.000 A 
ATOM      2  C   UNL     1       4.477   6.035  18.013  0.00  0.00    +0.000 A 
ATOM      3  C   UNL     1       3.145   5.781  18.336  0.00  0.00    +0.000 A 
ATOM      4  C   UNL     1       2.659   4.475  18.268  0.00  0.00    +0.000 A 
ATOM      5  C   UNL     1       3.488   3.416  17.850  0.00  0.00    +0.000 A 
ATOM      6  C   UNL     1       4.816   3.676  17.500  0.00  0.00    +0.000 A 
ATOM      7  C   UNL     1       2.882   2.037  17.756  0.00  0.00    +0.000 C 
ATOM      8  N   UNL     1       2.007   1.679  18.877  0.00  0.00    +0.000 NA
ATOM      9  C   UNL     1       1.341   2.826  19.562  0.00  0.00    +0.000 C 
ATOM     10  C   UNL     1       1.265   4.106  18.704  0.00  0.00    +0.000 C 
ATOM     11  H   UNL     1       2.527   1.134  19.568  0.00  0.00    +0.000 HD
ENDROOT
BRANCH   1  12
ATOM     12  S   UNL     1       7.021   5.325  17.273  0.00  0.00    +0.000 S 
ATOM     13  O   UNL     1       7.792   4.855  18.401  0.00  0.00    +0.000 OA
ATOM     14  O   UNL     1       7.082   6.695  16.811  0.00  0.00    +0.000 OA
BRANCH  12  15
ATOM     15  N   UNL     1       7.352   4.333  15.942  0.00  0.00    +0.000 NA
ATOM     16  H   UNL     1       8.286   3.926  15.998  0.00  0.00    +0.000 HD
BRANCH  15  17
ATOM     17  C   UNL     1       7.012   4.870  14.613  0.00  0.00    +0.000 C 
BRANCH  17  18
ATOM     18  C   UNL     1       5.875   4.056  13.990  0.00  0.00    +0.000 C 
BRANCH  18  20
ATOM     19  C   UNL     1       4.938   3.217  11.804  0.00  0.00    +0.000 C 
ATOM     20  C   UNL     1       6.202   3.550  12.582  0.00  0.00    +0.000 C 
ENDBRANCH  18  20
ENDBRANCH  17  18
ENDBRANCH  15  17
ENDBRANCH  12  15
ENDBRANCH   1  12
BRANCH   9  21
ATOM     21  C   UNL     1       1.986   3.150  20.932  0.00  0.00    +0.000 C 
ATOM     22  F   UNL     1       3.305   2.831  20.920  0.00  0.00    +0.000 F 
ATOM     23  F   UNL     1       1.917   4.491  21.157  0.00  0.00    +0.000 F 
ENDBRANCH   9  21
TORSDOF 6
ENDMDL
MODEL 4
REMARK VINA RESULT:      -8.1      2.563      4.074
REMARK  Name = 
REMARK  7 active torsions:
REMARK  status: ('A' for Active; 'I' for Inactive)
REMARK    1  A    between atoms: C_1  and  C_2
REMARK    2  A    between atoms: C_2  and  C_3
REMARK    3  A    between atoms: C_3  and  C_4
REMARK    4  A    between atoms: C_4  and  N_5
REMARK    5  A    between atoms: N_5  and  S_6
REMARK    6  A    between atoms: S_6  and  C_9
REMARK    7  A    between atoms: C_17  and  C_18
REMARK                            x       y       z     vdW  Elec       q    Type
REMARK                         _______ _______ _______ _____ _____    ______ ____
ROOT
ATOM      1  C   UNL     1       5.021   4.949  17.427  0.00  0.00    +0.000 A 
ATOM      2  C   UNL     1       4.381   5.965  18.150  0.00  0.00    +0.000 A 
ATOM      3  C   UNL     1       3.140   5.722  18.734  0.00  0.00    +0.000 A 
ATOM      4  C   UNL     1       2.564   4.456  18.619  0.00  0.00    +0.000 A 
ATOM      5  C   UNL     1       3.207   3.431  17.898  0.00  0.00    +0.000 A 
ATOM      6  C   UNL     1       4.439   3.684  17.290  0.00  0.00    +0.000 A 
ATOM      7  C   UNL     1       2.503   2.101  17.778  0.00  0.00    +0.000 C 
ATOM      8  N   UNL     1       1.874   1.630  19.016  0.00  0.00    +0.000 NA
ATOM      9  C   UNL     1       1.455   2.700  19.969  0.00  0.00    +0.000 C 
ATOM     10  C   UNL     1       1.278   4.086  19.313  0.00  0.00    +0.000 C 
ATOM     11  H   UNL     1       2.495   0.979  19.499  0.00  0.00    +0.000 HD
ENDROOT
BRANCH   1  12
ATOM     12  S   UNL     1       6.646   5.263  16.771  0.00  0.00    +0.000 S 
ATOM     13  O   UNL     1       6.637   4.934  15.363  0.00  0.00    +0.000 OA
ATOM     14  O   UNL     1       7.579   4.662  17.699  0.00  0.00    +0.000 OA
BRANCH  12  15
ATOM     15  N   UNL     1       6.791   6.942  16.932  0.00  0.00    +0.000 NA
ATOM     16  H   UNL     1       6.827   7.406  16.024  0.00  0.00    +0.000 HD
BRANCH  15  17
ATOM     17  C   UNL     1       7.791   7.431  17.896  0.00  0.00    +0.000 C 
BRANCH  17  18
ATOM     18  C   UNL     1       8.022   8.932  17.701  0.00  0.00    +0.000 C 
BRANCH  18  20
ATOM     19  C   UNL     1       9.331  10.961  18.429  0.00  0.00    +0.000 C 
ATOM     20  C   UNL     1       8.891   9.552  18.798  0.00  0.00    +0.000 C 
ENDBRANCH  18  20
ENDBRANCH  17  18
ENDBRANCH  15  17
ENDBRANCH  12  15
ENDBRANCH   1  12
BRANCH   9  21
ATOM     21  C   UNL     1       2.405   2.814  21.186  0.00  0.00    +0.000 C 
ATOM     22  F   UNL     1       3.684   2.553  20.811  0.00  0.00    +0.000 F 
ATOM     23  F   UNL     1       2.395   4.093  21.649  0.00  0.00    +0.000 F 
ENDBRANCH   9  21
TORSDOF 6
ENDMDL
MODEL 5
REMARK VINA RESULT:      -7.9      1.570      1.969
REMARK  Name = 
REMARK  7 active torsions:
REMARK  status: ('A' for Active; 'I' for Inactive)
REMARK    1  A    between atoms: C_1  and  C_2
REMARK    2  A    between atoms: C_2  and  C_3
REMARK    3  A    between atoms: C_3  and  C_4
REMARK    4  A    between atoms: C_4  and  N_5
REMARK    5  A    between atoms: N_5  and  S_6
REMARK    6  A    between atoms: S_6  and  C_9
REMARK    7  A    between atoms: C_17  and  C_18
REMARK                            x       y       z     vdW  Elec       q    Type
REMARK                         _______ _______ _______ _____ _____    ______ ____
ROOT
ATOM      1  C   UNL     1       5.242   4.358  17.610  0.00  0.00    +0.000 A 
ATOM      2  C   UNL     1       4.114   4.229  16.788  0.00  0.00    +0.000 A 
ATOM      3  C   UNL     1       3.016   3.494  17.230  0.00  0.00    +0.000 A 
ATOM      4  C   UNL     1       3.041   2.921  18.503  0.00  0.00    +0.000 A 
ATOM      5  C   UNL     1       4.170   3.053  19.333  0.00  0.00    +0.000 A 
ATOM      6  C   UNL     1       5.282   3.769  18.878  0.00  0.00    +0.000 A 
ATOM      7  C   UNL     1       4.144   2.368  20.678  0.00  0.00    +0.000 C 
ATOM      8  N   UNL     1       2.875   2.497  21.402  0.00  0.00    +0.000 NA
ATOM      9  C   UNL     1       1.665   2.679  20.547  0.00  0.00    +0.000 C 
ATOM     10  C   UNL     1       1.853   2.205  19.091  0.00  0.00    +0.000 C 
ATOM     11  H   UNL     1       2.930   3.267  22.071  0.00  0.00    +0.000 HD
ENDROOT
BRANCH   1  12
ATOM     12  S   UNL     1       6.591   5.379  17.055  0.00  0.00    +0.000 S 
ATOM     13  O   UNL     1       7.803   4.593  17.102  0.00  0.00    +0.000 OA
ATOM     14  O   UNL     1       6.458   6.638  17.755  0.00  0.00    +0.000 OA
BRANCH  12  15
ATOM     15  N   UNL     1       6.195   5.662  15.433  0.00  0.00    +0.000 NA
ATOM     16  H   UNL     1       5.185   5.673  15.288  0.00  0.00    +0.000 HD
BRANCH  15  17
ATOM     17  C   UNL     1       6.937   4.887  14.425  0.00  0.00    +0.000 C 
BRANCH  17  18
ATOM     18  C   UNL     1       6.054   3.769  13.864  0.00  0.00    +0.000 C 
BRANCH  18  20
ATOM     19  C   UNL     1       4.912   3.126  11.709  0.00  0.00    +0.000 C 
ATOM     20  C   UNL     1       6.213   3.579  12.353  0.00  0.00    +0.000 C 
ENDBRANCH  18  20
ENDBRANCH  17  18
ENDBRANCH  15  17
ENDBRANCH  12  15
ENDBRANCH   1  12
BRANCH   9  21
ATOM     21  C   UNL     1       1.146   4.138  20.561  0.00  0.00    +0.000 C 
ATOM     22  F   UNL     1       2.113   4.977  21.012  0.00  0.00    +0.000 F 
ATOM     23  F   UNL     1       0.862   4.528  19.288  0.00  0.00    +0.000 F 
ENDBRANCH   9  21
TORSDOF 6
ENDMDL
MODEL 6
REMARK VINA RESULT:      -7.9      2.363      3.837
REMARK  Name = 
REMARK  7 active torsions:
REMARK  status: ('A' for Active; 'I' for Inactive)
REMARK    1  A    between atoms: C_1  and  C_2
REMARK    2  A    between atoms: C_2  and  C_3
REMARK    3  A    between atoms: C_3  and  C_4
REMARK    4  A    between atoms: C_4  and  N_5
REMARK    5  A    between atoms: N_5  and  S_6
REMARK    6  A    between atoms: S_6  and  C_9
REMARK    7  A    between atoms: C_17  and  C_18
REMARK                            x       y       z     vdW  Elec       q    Type
REMARK                         _______ _______ _______ _____ _____    ______ ____
ROOT
ATOM      1  C   UNL     1       4.345   5.385  16.987  0.00  0.00    +0.000 A 
ATOM      2  C   UNL     1       3.570   6.259  17.761  0.00  0.00    +0.000 A 
ATOM      3  C   UNL     1       2.478   5.769  18.473  0.00  0.00    +0.000 A 
ATOM      4  C   UNL     1       2.189   4.404  18.433  0.00  0.00    +0.000 A 
ATOM      5  C   UNL     1       2.970   3.522  17.662  0.00  0.00    +0.000 A 
ATOM      6  C   UNL     1       4.049   4.019  16.926  0.00  0.00    +0.000 A 
ATOM      7  C   UNL     1       2.570   2.067  17.630  0.00  0.00    +0.000 C 
ATOM      8  N   UNL     1       2.188   1.512  18.932  0.00  0.00    +0.000 NA
ATOM      9  C   UNL     1       1.637   2.495  19.911  0.00  0.00    +0.000 C 
ATOM     10  C   UNL     1       1.093   3.785  19.261  0.00  0.00    +0.000 C 
ATOM     11  H   UNL     1       2.983   1.030  19.356  0.00  0.00    +0.000 HD
ENDROOT
BRANCH   1  12
ATOM     12  S   UNL     1       5.787   6.026  16.162  0.00  0.00    +0.000 S 
ATOM     13  O   UNL     1       5.350   6.808  15.028  0.00  0.00    +0.000 OA
ATOM     14  O   UNL     1       6.703   4.913  16.028  0.00  0.00    +0.000 OA
BRANCH  12  15
ATOM     15  N   UNL     1       6.439   7.074  17.321  0.00  0.00    +0.000 NA
ATOM     16  H   UNL     1       6.612   8.002  16.935  0.00  0.00    +0.000 HD
BRANCH  15  17
ATOM     17  C   UNL     1       7.546   6.550  18.140  0.00  0.00    +0.000 C 
BRANCH  17  18
ATOM     18  C   UNL     1       8.422   7.701  18.641  0.00  0.00    +0.000 C 
BRANCH  18  20
ATOM     19  C   UNL     1       8.936  10.168  18.534  0.00  0.00    +0.000 C 
ATOM     20  C   UNL     1       8.154   9.020  17.912  0.00  0.00    +0.000 C 
ENDBRANCH  18  20
ENDBRANCH  17  18
ENDBRANCH  15  17
ENDBRANCH  12  15
ENDBRANCH   1  12
BRANCH   9  21
ATOM     21  C   UNL     1       2.654   2.856  21.021  0.00  0.00    +0.000 C 
ATOM     22  F   UNL     1       2.234   2.374  22.219  0.00  0.00    +0.000 F 
ATOM     23  F   UNL     1       3.843   2.249  20.759  0.00  0.00    +0.000 F 
ENDBRANCH   9  21
TORSDOF 6
ENDMDL
MODEL 7
REMARK VINA RESULT:      -7.9      1.227      1.421
REMARK  Name = 
REMARK  7 active torsions:
REMARK  status: ('A' for Active; 'I' for Inactive)
REMARK    1  A    between atoms: C_1  and  C_2
REMARK    2  A    between atoms: C_2  and  C_3
REMARK    3  A    between atoms: C_3  and  C_4
REMARK    4  A    between atoms: C_4  and  N_5
REMARK    5  A    between atoms: N_5  and  S_6
REMARK    6  A    between atoms: S_6  and  C_9
REMARK    7  A    between atoms: C_17  and  C_18
REMARK                            x       y       z     vdW  Elec       q    Type
REMARK                         _______ _______ _______ _____ _____    ______ ____
ROOT
ATOM      1  C   UNL     1       5.560   4.968  17.282  0.00  0.00    +0.000 A 
ATOM      2  C   UNL     1       5.791   5.587  18.517  0.00  0.00    +0.000 A 
ATOM      3  C   UNL     1       4.743   5.736  19.423  0.00  0.00    +0.000 A 
ATOM      4  C   UNL     1       3.481   5.236  19.101  0.00  0.00    +0.000 A 
ATOM      5  C   UNL     1       3.246   4.607  17.863  0.00  0.00    +0.000 A 
ATOM      6  C   UNL     1       4.292   4.482  16.944  0.00  0.00    +0.000 A 
ATOM      7  C   UNL     1       1.845   4.131  17.565  0.00  0.00    +0.000 C 
ATOM      8  N   UNL     1       1.177   3.465  18.687  0.00  0.00    +0.000 NA
ATOM      9  C   UNL     1       1.631   3.886  20.045  0.00  0.00    +0.000 C 
ATOM     10  C   UNL     1       2.328   5.263  20.071  0.00  0.00    +0.000 C 
ATOM     11  H   UNL     1       1.274   2.451  18.603  0.00  0.00    +0.000 HD
ENDROOT
BRANCH   1  12
ATOM     12  S   UNL     1       6.938   4.710  16.185  0.00  0.00    +0.000 S 
ATOM     13  O   UNL     1       8.003   4.085  16.935  0.00  0.00    +0.000 OA
ATOM     14  O   UNL     1       7.122   5.954  15.469  0.00  0.00    +0.000 OA
BRANCH  12  15
ATOM     15  N   UNL     1       6.324   3.583  15.080  0.00  0.00    +0.000 NA
ATOM     16  H   UNL     1       6.969   2.807  14.935  0.00  0.00    +0.000 HD
BRANCH  15  17
ATOM     17  C   UNL     1       5.745   4.122  13.837  0.00  0.00    +0.000 C 
BRANCH  17  18
ATOM     18  C   UNL     1       6.431   3.494  12.621  0.00  0.00    +0.000 C 
BRANCH  18  20
ATOM     19  C   UNL     1       6.228   1.426  11.191  0.00  0.00    +0.000 C 
ATOM     20  C   UNL     1       5.492   2.616  11.790  0.00  0.00    +0.000 C 
ENDBRANCH  18  20
ENDBRANCH  17  18
ENDBRANCH  15  17
ENDBRANCH  12  15
ENDBRANCH   1  12
BRANCH   9  21
ATOM     21  C   UNL     1       2.537   2.827  20.720  0.00  0.00    +0.000 C 
ATOM     22  F   UNL     1       1.844   2.153  21.673  0.00  0.00    +0.000 F 
ATOM     23  F   UNL     1       2.916   1.903  19.795  0.00  0.00    +0.000 F 
ENDBRANCH   9  21
TORSDOF 6
ENDMDL
MODEL 8
REMARK VINA RESULT:      -7.8      1.239      1.439
REMARK  Name = 
REMARK  7 active torsions:
REMARK  status: ('A' for Active; 'I' for Inactive)
REMARK    1  A    between atoms: C_1  and  C_2
REMARK    2  A    between atoms: C_2  and  C_3
REMARK    3  A    between atoms: C_3  and  C_4
REMARK    4  A    between atoms: C_4  and  N_5
REMARK    5  A    between atoms: N_5  and  S_6
REMARK    6  A    between atoms: S_6  and  C_9
REMARK    7  A    between atoms: C_17  and  C_18
REMARK                            x       y       z     vdW  Elec       q    Type
REMARK                         _______ _______ _______ _____ _____    ______ ____
ROOT
ATOM      1  C   UNL     1       5.335   4.939  17.607  0.00  0.00    +0.000 A 
ATOM      2  C   UNL     1       4.397   5.979  17.644  0.00  0.00    +0.000 A 
ATOM      3  C   UNL     1       3.041   5.683  17.762  0.00  0.00    +0.000 A 
ATOM      4  C   UNL     1       2.636   4.352  17.876  0.00  0.00    +0.000 A 
ATOM      5  C   UNL     1       3.577   3.305  17.846  0.00  0.00    +0.000 A 
ATOM      6  C   UNL     1       4.934   3.601  17.700  0.00  0.00    +0.000 A 
ATOM      7  C   UNL     1       3.062   1.888  17.928  0.00  0.00    +0.000 C 
ATOM      8  N   UNL     1       2.000   1.683  18.918  0.00  0.00    +0.000 NA
ATOM      9  C   UNL     1       1.162   2.882  19.217  0.00  0.00    +0.000 C 
ATOM     10  C   UNL     1       1.200   3.961  18.115  0.00  0.00    +0.000 C 
ATOM     11  H   UNL     1       2.396   1.328  19.790  0.00  0.00    +0.000 HD
ENDROOT
BRANCH   1  12
ATOM     12  S   UNL     1       7.066   5.352  17.548  0.00  0.00    +0.000 S 
ATOM     13  O   UNL     1       7.828   4.130  17.669  0.00  0.00    +0.000 OA
ATOM     14  O   UNL     1       7.245   6.468  18.452  0.00  0.00    +0.000 OA
BRANCH  12  15
ATOM     15  N   UNL     1       7.249   5.948  15.974  0.00  0.00    +0.000 NA
ATOM     16  H   UNL     1       7.266   6.968  15.956  0.00  0.00    +0.000 HD
BRANCH  15  17
ATOM     17  C   UNL     1       6.396   5.345  14.935  0.00  0.00    +0.000 C 
BRANCH  17  18
ATOM     18  C   UNL     1       7.173   4.267  14.175  0.00  0.00    +0.000 C 
BRANCH  18  20
ATOM     19  C   UNL     1       5.009   3.710  13.005  0.00  0.00    +0.000 C 
ATOM     20  C   UNL     1       6.513   3.874  12.850  0.00  0.00    +0.000 C 
ENDBRANCH  18  20
ENDBRANCH  17  18
ENDBRANCH  15  17
ENDBRANCH  12  15
ENDBRANCH   1  12
BRANCH   9  21
ATOM     21  C   UNL     1       1.508   3.518  20.586  0.00  0.00    +0.000 C 
ATOM     22  F   UNL     1       0.922   4.737  20.700  0.00  0.00    +0.000 F 
ATOM     23  F   UNL     1       0.993   2.749  21.584  0.00  0.00    +0.000 F 
ENDBRANCH   9  21
TORSDOF 6
ENDMDL
MODEL 9
REMARK VINA RESULT:      -7.7      1.356      1.725
REMARK  Name = 
REMARK  7 active torsions:
REMARK  status: ('A' for Active; 'I' for Inactive)
REMARK    1  A    between atoms: C_1  and  C_2
REMARK    2  A    between atoms: C_2  and  C_3
REMARK    3  A    between atoms: C_3  and  C_4
REMARK    4  A    between atoms: C_4  and  N_5
REMARK    5  A    between atoms: N_5  and  S_6
REMARK    6  A    between atoms: S_6  and  C_9
REMARK    7  A    between atoms: C_17  and  C_18
REMARK                            x       y       z     vdW  Elec       q    Type
REMARK                         _______ _______ _______ _____ _____    ______ ____
ROOT
ATOM      1  C   UNL     1       5.629   5.225  17.466  0.00  0.00    +0.000 A 
ATOM      2  C   UNL     1       5.913   4.931  18.806  0.00  0.00    +0.000 A 
ATOM      3  C   UNL     1       4.874   4.627  19.683  0.00  0.00    +0.000 A 
ATOM      4  C   UNL     1       3.563   4.586  19.205  0.00  0.00    +0.000 A 
ATOM      5  C   UNL     1       3.275   4.875  17.858  0.00  0.00    +0.000 A 
ATOM      6  C   UNL     1       4.315   5.206  16.986  0.00  0.00    +0.000 A 
ATOM      7  C   UNL     1       1.829   4.856  17.424  0.00  0.00    +0.000 C 
ATOM      8  N   UNL     1       1.048   3.735  17.954  0.00  0.00    +0.000 NA
ATOM      9  C   UNL     1       1.523   3.183  19.257  0.00  0.00    +0.000 C 
ATOM     10  C   UNL     1       2.402   4.161  20.066  0.00  0.00    +0.000 C 
ATOM     11  H   UNL     1       1.008   2.979  17.267  0.00  0.00    +0.000 HD
ENDROOT
BRANCH   1  12
ATOM     12  S   UNL     1       6.985   5.520  16.351  0.00  0.00    +0.000 S 
ATOM     13  O   UNL     1       7.971   4.482  16.552  0.00  0.00    +0.000 OA
ATOM     14  O   UNL     1       7.307   6.925  16.469  0.00  0.00    +0.000 OA
BRANCH  12  15
ATOM     15  N   UNL     1       6.269   5.296  14.833  0.00  0.00    +0.000 NA
ATOM     16  H   UNL     1       5.338   5.711  14.790  0.00  0.00    +0.000 HD
BRANCH  15  17
ATOM     17  C   UNL     1       6.349   3.943  14.255  0.00  0.00    +0.000 C 
BRANCH  17  18
ATOM     18  C   UNL     1       6.385   4.023  12.727  0.00  0.00    +0.000 C 
BRANCH  18  20
ATOM     19  C   UNL     1       4.330   3.315  11.448  0.00  0.00    +0.000 C 
ATOM     20  C   UNL     1       5.652   2.862  12.049  0.00  0.00    +0.000 C 
ENDBRANCH  18  20
ENDBRANCH  17  18
ENDBRANCH  15  17
ENDBRANCH  12  15
ENDBRANCH   1  12
BRANCH   9  21
ATOM     21  C   UNL     1       2.259   1.830  19.094  0.00  0.00    +0.000 C 
ATOM     22  F   UNL     1       2.694   1.682  17.816  0.00  0.00    +0.000 F 
ATOM     23  F   UNL     1       3.369   1.823  19.880  0.00  0.00    +0.000 F 
ENDBRANCH   9  21
TORSDOF 6
ENDMDL
