MODEL 1
REMARK VINA RESULT:      -8.6      0.000      0.000
REMARK  Name = 
REMARK  10 active torsions:
REMARK  status: ('A' for Active; 'I' for Inactive)
REMARK    1  A    between atoms: C_1  and  C_2
REMARK    2  A    between atoms: C_4  and  C_5
REMARK    3  A    between atoms: N_11  and  C_12
REMARK    4  A    between atoms: C_13  and  C_14
REMARK    5  A    between atoms: C_14  and  C_15
REMARK    6  A    between atoms: C_15  and  O_16
REMARK    7  A    between atoms: O_16  and  C_17
REMARK    8  A    between atoms: C_25  and  C_26
REMARK    9  A    between atoms: C_26  and  C_27
REMARK   10  A    between atoms: C_27  and  O_29
REMARK                            x       y       z     vdW  Elec       q    Type
REMARK                         _______ _______ _______ _____ _____    ______ ____
ROOT
ATOM      1  C   UNL     1       7.519   8.781  17.697  0.00  0.00    +0.000 C 
ENDROOT
BRANCH   1   2
ATOM      2  C   UNL     1       7.780   7.334  17.299  0.00  0.00    +0.000 C 
BRANCH   2   9
ATOM      3  C   UNL     1       8.323   5.599  20.092  0.00  0.00    +0.000 C 
ATOM      4  C   UNL     1       7.137   5.633  19.204  0.00  0.00    +0.000 A 
ATOM      5  N   UNL     1       6.038   4.857  19.487  0.00  0.00    +0.000 NA
ATOM      6  C   UNL     1       5.154   5.063  18.524  0.00  0.00    +0.000 A 
ATOM      7  N   UNL     1       5.639   6.030  17.661  0.00  0.00    +0.000 N 
ATOM      8  C   UNL     1       4.947   6.652  16.555  0.00  0.00    +0.000 C 
ATOM      9  C   UNL     1       6.924   6.360  18.046  0.00  0.00    +0.000 A 
BRANCH   6  10
ATOM     10  C   UNL     1       3.845   4.392  18.428  0.00  0.00    +0.000 A 
ATOM     11  C   UNL     1       3.715   3.193  17.713  0.00  0.00    +0.000 A 
ATOM     12  C   UNL     1       2.491   2.514  17.675  0.00  0.00    +0.000 A 
ATOM     13  C   UNL     1       1.386   3.019  18.359  0.00  0.00    +0.000 A 
ATOM     14  C   UNL     1       1.489   4.229  19.036  0.00  0.00    +0.000 A 
ATOM     15  C   UNL     1       2.700   4.925  19.039  0.00  0.00    +0.000 A 
ENDBRANCH   6  10
ENDBRANCH   2   9
ENDBRANCH   1   2
BRANCH   1  16
ATOM     16  O   UNL     1       8.499   9.161  18.673  0.00  0.00    +0.000 OA
BRANCH  16  17
ATOM     17  C   UNL     1       9.090  10.382  18.468  0.00  0.00    +0.000 A 
ATOM     18  C   UNL     1       8.306  11.324  17.772  0.00  0.00    +0.000 A 
ATOM     19  C   UNL     1       8.729  12.648  17.612  0.00  0.00    +0.000 A 
ATOM     20  C   UNL     1       9.928  13.011  18.193  0.00  0.00    +0.000 A 
ATOM     21  C   UNL     1      10.712  12.063  18.874  0.00  0.00    +0.000 A 
ATOM     22  C   UNL     1      10.340  10.740  18.970  0.00  0.00    +0.000 A 
ATOM     23  C   UNL     1      11.790  12.753  19.664  0.00  0.00    +0.000 C 
ATOM     24  C   UNL     1      11.043  14.095  19.877  0.00  0.00    +0.000 C 
ATOM     25  C   UNL     1      10.539  14.368  18.442  0.00  0.00    +0.000 C 
BRANCH  25  26
ATOM     26  C   UNL     1       9.763  15.610  18.046  0.00  0.00    +0.000 C 
BRANCH  26  27
ATOM     27  C   UNL     1      10.346  16.526  17.002  0.00  0.00    +0.000 C 
ATOM     28  O   UNL     1      10.465  17.721  17.119  0.00  0.00    +0.000 OA
BRANCH  27  29
ATOM     29  O   UNL     1      10.824  15.840  15.934  0.00  0.00    +0.000 OA
ATOM     30  H   UNL     1      11.652  15.364  16.083  0.00  0.00    +0.000 HD
ENDBRANCH  27  29
ENDBRANCH  26  27
ENDBRANCH  25  26
ENDBRANCH  16  17
ENDBRANCH   1  16
TORSDOF 8
ENDMDL
MODEL 2
REMARK VINA RESULT:      -8.2      0.682      1.125
REMARK  Name = 
REMARK  10 active torsions:
REMARK  status: ('A' for Active; 'I' for Inactive)
REMARK    1  A    between atoms: C_1  and  C_2
REMARK    2  A    between atoms: C_4  and  C_5
REMARK    3  A    between atoms: N_11  and  C_12
REMARK    4  A    between atoms: C_13  and  C_14
REMARK    5  A    between atoms: C_14  and  C_15
REMARK    6  A    between atoms: C_15  and  O_16
REMARK    7  A    between atoms: O_16  and  C_17
REMARK    8  A    between atoms: C_25  and  C_26
REMARK    9  A    between atoms: C_26  and  C_27
REMARK   10  A    between atoms: C_27  and  O_29
REMARK                            x       y       z     vdW  Elec       q    Type
REMARK                         _______ _______ _______ _____ _____    ______ ____
ROOT
ATOM      1  C   UNL     1       8.275   8.480  18.281  0.00  0.00    +0.000 C 
ENDROOT
BRANCH   1   2
ATOM      2  C   UNL     1       7.665   7.420  17.375  0.00  0.00    +0.000 C 
BRANCH   2   9
ATOM      3  C   UNL     1       8.390   5.551  20.037  0.00  0.00    +0.000 C 
ATOM      4  C   UNL     1       7.150   5.621  19.227  0.00  0.00    +0.000 A 
ATOM      5  N   UNL     1       6.074   4.823  19.539  0.00  0.00    +0.000 NA
ATOM      6  C   UNL     1       5.131   5.070  18.645  0.00  0.00    +0.000 A 
ATOM      7  N   UNL     1       5.556   6.083  17.803  0.00  0.00    +0.000 N 
ATOM      8  C   UNL     1       4.794   6.754  16.775  0.00  0.00    +0.000 C 
ATOM      9  C   UNL     1       6.862   6.403  18.123  0.00  0.00    +0.000 A 
BRANCH   6  10
ATOM     10  C   UNL     1       3.822   4.395  18.598  0.00  0.00    +0.000 A 
ATOM     11  C   UNL     1       2.760   4.855  19.389  0.00  0.00    +0.000 A 
ATOM     12  C   UNL     1       1.493   4.263  19.299  0.00  0.00    +0.000 A 
ATOM     13  C   UNL     1       1.272   3.211  18.411  0.00  0.00    +0.000 A 
ATOM     14  C   UNL     1       2.326   2.717  17.651  0.00  0.00    +0.000 A 
ATOM     15  C   UNL     1       3.597   3.283  17.773  0.00  0.00    +0.000 A 
ENDBRANCH   6  10
ENDBRANCH   2   9
ENDBRANCH   1   2
BRANCH   1  16
ATOM     16  O   UNL     1       7.765   9.760  17.882  0.00  0.00    +0.000 OA
BRANCH  16  17
ATOM     17  C   UNL     1       8.678  10.782  17.879  0.00  0.00    +0.000 A 
ATOM     18  C   UNL     1       8.199  12.020  17.403  0.00  0.00    +0.000 A 
ATOM     19  C   UNL     1       8.981  13.178  17.471  0.00  0.00    +0.000 A 
ATOM     20  C   UNL     1      10.229  13.076  18.055  0.00  0.00    +0.000 A 
ATOM     21  C   UNL     1      10.705  11.835  18.515  0.00  0.00    +0.000 A 
ATOM     22  C   UNL     1       9.974  10.675  18.383  0.00  0.00    +0.000 A 
ATOM     23  C   UNL     1      11.926  12.034  19.370  0.00  0.00    +0.000 C 
ATOM     24  C   UNL     1      11.588  13.466  19.858  0.00  0.00    +0.000 C 
ATOM     25  C   UNL     1      11.195  14.135  18.522  0.00  0.00    +0.000 C 
BRANCH  25  26
ATOM     26  C   UNL     1      10.807  15.595  18.396  0.00  0.00    +0.000 C 
BRANCH  26  27
ATOM     27  C   UNL     1      11.297  16.375  17.204  0.00  0.00    +0.000 C 
ATOM     28  O   UNL     1      12.331  16.994  17.160  0.00  0.00    +0.000 OA
BRANCH  27  29
ATOM     29  O   UNL     1      10.484  16.224  16.129  0.00  0.00    +0.000 OA
ATOM     30  H   UNL     1      10.039  17.029  15.829  0.00  0.00    +0.000 HD
ENDBRANCH  27  29
ENDBRANCH  26  27
ENDBRANCH  25  26
ENDBRANCH  16  17
ENDBRANCH   1  16
TORSDOF 8
ENDMDL
MODEL 3
REMARK VINA RESULT:      -8.2      6.257      8.945
REMARK  Name = 
REMARK  10 active torsions:
REMARK  status: ('A' for Active; 'I' for Inactive)
REMARK    1  A    between atoms: C_1  and  C_2
REMARK    2  A    between atoms: C_4  and  C_5
REMARK    3  A    between atoms: N_11  and  C_12
REMARK    4  A    between atoms: C_13  and  C_14
REMARK    5  A    between atoms: C_14  and  C_15
REMARK    6  A    between atoms: C_15  and  O_16
REMARK    7  A    between atoms: O_16  and  C_17
REMARK    8  A    between atoms: C_25  and  C_26
REMARK    9  A    between atoms: C_26  and  C_27
REMARK   10  A    between atoms: C_27  and  O_29
REMARK                            x       y       z     vdW  Elec       q    Type
REMARK                         _______ _______ _______ _____ _____    ______ ____
ROOT
ATOM      1  C   UNL     1       1.937   5.263  19.779  0.00  0.00    +0.000 C 
ENDROOT
BRANCH   1   2
ATOM      2  C   UNL     1       2.233   6.587  20.470  0.00  0.00    +0.000 C 
BRANCH   2   9
ATOM      3  C   UNL     1       3.486   7.296  17.464  0.00  0.00    +0.000 C 
ATOM      4  C   UNL     1       2.564   8.076  18.323  0.00  0.00    +0.000 A 
ATOM      5  N   UNL     1       2.100   9.301  17.906  0.00  0.00    +0.000 NA
ATOM      6  C   UNL     1       1.330   9.778  18.871  0.00  0.00    +0.000 A 
ATOM      7  N   UNL     1       1.224   8.833  19.876  0.00  0.00    +0.000 N 
ATOM      8  C   UNL     1       0.378   8.883  21.047  0.00  0.00    +0.000 C 
ATOM      9  C   UNL     1       2.050   7.769  19.571  0.00  0.00    +0.000 A 
BRANCH   6  10
ATOM     10  C   UNL     1       0.661  11.091  18.840  0.00  0.00    +0.000 A 
ATOM     11  C   UNL     1       1.373  12.255  19.161  0.00  0.00    +0.000 A 
ATOM     12  C   UNL     1       0.765  13.513  19.068  0.00  0.00    +0.000 A 
ATOM     13  C   UNL     1      -0.558  13.622  18.643  0.00  0.00    +0.000 A 
ATOM     14  C   UNL     1      -1.290  12.474  18.362  0.00  0.00    +0.000 A 
ATOM     15  C   UNL     1      -0.693  11.219  18.495  0.00  0.00    +0.000 A 
ENDBRANCH   6  10
ENDBRANCH   2   9
ENDBRANCH   1   2
BRANCH   1  16
ATOM     16  O   UNL     1       3.002   4.350  20.084  0.00  0.00    +0.000 OA
BRANCH  16  17
ATOM     17  C   UNL     1       3.958   4.217  19.110  0.00  0.00    +0.000 A 
ATOM     18  C   UNL     1       3.499   3.708  17.877  0.00  0.00    +0.000 A 
ATOM     19  C   UNL     1       4.336   3.648  16.758  0.00  0.00    +0.000 A 
ATOM     20  C   UNL     1       5.620   4.137  16.891  0.00  0.00    +0.000 A 
ATOM     21  C   UNL     1       6.076   4.630  18.127  0.00  0.00    +0.000 A 
ATOM     22  C   UNL     1       5.284   4.623  19.254  0.00  0.00    +0.000 A 
ATOM     23  C   UNL     1       7.370   5.374  17.943  0.00  0.00    +0.000 C 
ATOM     24  C   UNL     1       7.138   5.803  16.472  0.00  0.00    +0.000 C 
ATOM     25  C   UNL     1       6.669   4.466  15.857  0.00  0.00    +0.000 C 
BRANCH  25  26
ATOM     26  C   UNL     1       6.338   4.286  14.388  0.00  0.00    +0.000 C 
BRANCH  26  27
ATOM     27  C   UNL     1       7.303   4.812  13.358  0.00  0.00    +0.000 C 
ATOM     28  O   UNL     1       8.176   5.616  13.574  0.00  0.00    +0.000 OA
BRANCH  27  29
ATOM     29  O   UNL     1       7.148   4.200  12.158  0.00  0.00    +0.000 OA
ATOM     30  H   UNL     1       7.419   4.721  11.389  0.00  0.00    +0.000 HD
ENDBRANCH  27  29
ENDBRANCH  26  27
ENDBRANCH  25  26
ENDBRANCH  16  17
ENDBRANCH   1  16
TORSDOF 8
ENDMDL
MODEL 4
REMARK VINA RESULT:      -8.0      7.033     10.842
REMARK  Name = 
REMARK  10 active torsions:
REMARK  status: ('A' for Active; 'I' for Inactive)
REMARK    1  A    between atoms: C_1  and  C_2
REMARK    2  A    between atoms: C_4  and  C_5
REMARK    3  A    between atoms: N_11  and  C_12
REMARK    4  A    between atoms: C_13  and  C_14
REMARK    5  A    between atoms: C_14  and  C_15
REMARK    6  A    between atoms: C_15  and  O_16
REMARK    7  A    between atoms: O_16  and  C_17
REMARK    8  A    between atoms: C_25  and  C_26
REMARK    9  A    between atoms: C_26  and  C_27
REMARK   10  A    between atoms: C_27  and  O_29
REMARK                            x       y       z     vdW  Elec       q    Type
REMARK                         _______ _______ _______ _____ _____    ______ ____
ROOT
ATOM      1  C   UNL     1       1.124   9.338  18.801  0.00  0.00    +0.000 C 
ENDROOT
BRANCH   1   2
ATOM      2  C   UNL     1       1.157  10.764  19.333  0.00  0.00    +0.000 C 
BRANCH   2   9
ATOM      3  C   UNL     1       1.324   8.841  22.050  0.00  0.00    +0.000 C 
ATOM      4  C   UNL     1       0.591  10.108  21.820  0.00  0.00    +0.000 A 
ATOM      5  N   UNL     1      -0.176  10.655  22.822  0.00  0.00    +0.000 NA
ATOM      6  C   UNL     1      -0.732  11.753  22.335  0.00  0.00    +0.000 A 
ATOM      7  N   UNL     1      -0.266  11.967  21.050  0.00  0.00    +0.000 N 
ATOM      8  C   UNL     1      -0.507  13.113  20.204  0.00  0.00    +0.000 C 
ATOM      9  C   UNL     1       0.530  10.897  20.686  0.00  0.00    +0.000 A 
BRANCH   6  10
ATOM     10  C   UNL     1      -1.662  12.622  23.077  0.00  0.00    +0.000 A 
ATOM     11  C   UNL     1      -2.945  12.165  23.410  0.00  0.00    +0.000 A 
ATOM     12  C   UNL     1      -3.810  12.959  24.174  0.00  0.00    +0.000 A 
ATOM     13  C   UNL     1      -3.399  14.214  24.621  0.00  0.00    +0.000 A 
ATOM     14  C   UNL     1      -2.147  14.698  24.263  0.00  0.00    +0.000 A 
ATOM     15  C   UNL     1      -1.302  13.921  23.467  0.00  0.00    +0.000 A 
ENDBRANCH   6  10
ENDBRANCH   2   9
ENDBRANCH   1   2
BRANCH   1  16
ATOM     16  O   UNL     1       2.232   9.168  17.906  0.00  0.00    +0.000 OA
BRANCH  16  17
ATOM     17  C   UNL     1       2.881   7.963  17.996  0.00  0.00    +0.000 A 
ATOM     18  C   UNL     1       2.279   7.014  18.846  0.00  0.00    +0.000 A 
ATOM     19  C   UNL     1       2.757   5.702  18.927  0.00  0.00    +0.000 A 
ATOM     20  C   UNL     1       3.821   5.356  18.116  0.00  0.00    +0.000 A 
ATOM     21  C   UNL     1       4.425   6.312  17.280  0.00  0.00    +0.000 A 
ATOM     22  C   UNL     1       4.011   7.625  17.251  0.00  0.00    +0.000 A 
ATOM     23  C   UNL     1       5.335   5.636  16.292  0.00  0.00    +0.000 C 
ATOM     24  C   UNL     1       4.593   4.275  16.248  0.00  0.00    +0.000 C 
ATOM     25  C   UNL     1       4.399   4.010  17.757  0.00  0.00    +0.000 C 
BRANCH  25  26
ATOM     26  C   UNL     1       3.751   2.757  18.314  0.00  0.00    +0.000 C 
BRANCH  26  27
ATOM     27  C   UNL     1       3.977   2.407  19.762  0.00  0.00    +0.000 C 
ATOM     28  O   UNL     1       3.138   2.464  20.627  0.00  0.00    +0.000 OA
BRANCH  27  29
ATOM     29  O   UNL     1       5.223   1.915  19.977  0.00  0.00    +0.000 OA
ATOM     30  H   UNL     1       5.388   1.581  20.870  0.00  0.00    +0.000 HD
ENDBRANCH  27  29
ENDBRANCH  26  27
ENDBRANCH  25  26
ENDBRANCH  16  17
ENDBRANCH   1  16
TORSDOF 8
ENDMDL
MODEL 5
REMARK VINA RESULT:      -7.9      1.268      1.702
REMARK  Name = 
REMARK  10 active torsions:
REMARK  status: ('A' for Active; 'I' for Inactive)
REMARK    1  A    between atoms: C_1  and  C_2
REMARK    2  A    between atoms: C_4  and  C_5
REMARK    3  A    between atoms: N_11  and  C_12
REMARK    4  A    between atoms: C_13  and  C_14
REMARK    5  A    between atoms: C_14  and  C_15
REMARK    6  A    between atoms: C_15  and  O_16
REMARK    7  A    between atoms: O_16  and  C_17
REMARK    8  A    between atoms: C_25  and  C_26
REMARK    9  A    between atoms: C_26  and  C_27
REMARK   10  A    between atoms: C_27  and  O_29
REMARK                            x       y       z     vdW  Elec       q    Type
REMARK                         _______ _______ _______ _____ _____    ______ ____
ROOT
ATOM      1  C   UNL     1       7.599   8.699  17.705  0.00  0.00    +0.000 C 
ENDROOT
BRANCH   1   2
ATOM      2  C   UNL     1       7.531   7.267  17.192  0.00  0.00    +0.000 C 
BRANCH   2   9
ATOM      3  C   UNL     1       8.398   5.586  19.936  0.00  0.00    +0.000 C 
ATOM      4  C   UNL     1       7.097   5.658  19.230  0.00  0.00    +0.000 A 
ATOM      5  N   UNL     1       6.016   4.949  19.699  0.00  0.00    +0.000 NA
ATOM      6  C   UNL     1       5.010   5.173  18.869  0.00  0.00    +0.000 A 
ATOM      7  N   UNL     1       5.408   6.088  17.910  0.00  0.00    +0.000 N 
ATOM      8  C   UNL     1       4.590   6.713  16.896  0.00  0.00    +0.000 C 
ATOM      9  C   UNL     1       6.750   6.361  18.090  0.00  0.00    +0.000 A 
BRANCH   6  10
ATOM     10  C   UNL     1       3.672   4.570  18.991  0.00  0.00    +0.000 A 
ATOM     11  C   UNL     1       2.806   4.969  20.019  0.00  0.00    +0.000 A 
ATOM     12  C   UNL     1       1.507   4.452  20.100  0.00  0.00    +0.000 A 
ATOM     13  C   UNL     1       1.056   3.536  19.151  0.00  0.00    +0.000 A 
ATOM     14  C   UNL     1       1.917   3.098  18.151  0.00  0.00    +0.000 A 
ATOM     15  C   UNL     1       3.224   3.586  18.096  0.00  0.00    +0.000 A 
ENDBRANCH   6  10
ENDBRANCH   2   9
ENDBRANCH   1   2
BRANCH   1  16
ATOM     16  O   UNL     1       8.713   8.801  18.603  0.00  0.00    +0.000 OA
BRANCH  16  17
ATOM     17  C   UNL     1       9.077  10.078  18.945  0.00  0.00    +0.000 A 
ATOM     18  C   UNL     1       8.977  11.033  17.912  0.00  0.00    +0.000 A 
ATOM     19  C   UNL     1       9.187  12.394  18.155  0.00  0.00    +0.000 A 
ATOM     20  C   UNL     1       9.460  12.778  19.454  0.00  0.00    +0.000 A 
ATOM     21  C   UNL     1       9.571  11.819  20.477  0.00  0.00    +0.000 A 
ATOM     22  C   UNL     1       9.443  10.470  20.232  0.00  0.00    +0.000 A 
ATOM     23  C   UNL     1       9.564  12.493  21.821  0.00  0.00    +0.000 C 
ATOM     24  C   UNL     1       8.743  13.741  21.407  0.00  0.00    +0.000 C 
ATOM     25  C   UNL     1       9.473  14.139  20.104  0.00  0.00    +0.000 C 
BRANCH  25  26
ATOM     26  C   UNL     1       9.109  15.356  19.275  0.00  0.00    +0.000 C 
BRANCH  26  27
ATOM     27  C   UNL     1      10.202  16.313  18.876  0.00  0.00    +0.000 C 
ATOM     28  O   UNL     1      11.013  16.114  18.006  0.00  0.00    +0.000 OA
BRANCH  27  29
ATOM     29  O   UNL     1      10.115  17.490  19.545  0.00  0.00    +0.000 OA
ATOM     30  H   UNL     1       9.300  17.990  19.402  0.00  0.00    +0.000 HD
ENDBRANCH  27  29
ENDBRANCH  26  27
ENDBRANCH  25  26
ENDBRANCH  16  17
ENDBRANCH   1  16
TORSDOF 8
ENDMDL
MODEL 6
REMARK VINA RESULT:      -7.9      1.204      1.910
REMARK  Name = 
REMARK  10 active torsions:
REMARK  status: ('A' for Active; 'I' for Inactive)
REMARK    1  A    between atoms: C_1  and  C_2
REMARK    2  A    between atoms: C_4  and  C_5
REMARK    3  A    between atoms: N_11  and  C_12
REMARK    4  A    between atoms: C_13  and  C_14
REMARK    5  A    between atoms: C_14  and  C_15
REMARK    6  A    between atoms: C_15  and  O_16
REMARK    7  A    between atoms: O_16  and  C_17
REMARK    8  A    between atoms: C_25  and  C_26
REMARK    9  A    between atoms: C_26  and  C_27
REMARK   10  A    between atoms: C_27  and  O_29
REMARK                            x       y       z     vdW  Elec       q    Type
REMARK                         _______ _______ _______ _____ _____    ______ ____
ROOT
ATOM      1  C   UNL     1       7.564   7.991  17.459  0.00  0.00    +0.000 C 
ENDROOT
BRANCH   1   2
ATOM      2  C   UNL     1       7.885   6.504  17.516  0.00  0.00    +0.000 C 
BRANCH   2   9
ATOM      3  C   UNL     1       7.096   5.277  14.519  0.00  0.00    +0.000 C 
ATOM      4  C   UNL     1       6.409   5.128  15.824  0.00  0.00    +0.000 A 
ATOM      5  N   UNL     1       5.251   4.392  15.915  0.00  0.00    +0.000 NA
ATOM      6  C   UNL     1       4.846   4.454  17.174  0.00  0.00    +0.000 A 
ATOM      7  N   UNL     1       5.778   5.156  17.917  0.00  0.00    +0.000 N 
ATOM      8  C   UNL     1       5.802   5.346  19.350  0.00  0.00    +0.000 C 
ATOM      9  C   UNL     1       6.748   5.643  17.062  0.00  0.00    +0.000 A 
BRANCH   6  10
ATOM     10  C   UNL     1       3.618   3.827  17.691  0.00  0.00    +0.000 A 
ATOM     11  C   UNL     1       2.418   4.552  17.738  0.00  0.00    +0.000 A 
ATOM     12  C   UNL     1       1.231   3.942  18.164  0.00  0.00    +0.000 A 
ATOM     13  C   UNL     1       1.227   2.600  18.539  0.00  0.00    +0.000 A 
ATOM     14  C   UNL     1       2.417   1.880  18.539  0.00  0.00    +0.000 A 
ATOM     15  C   UNL     1       3.606   2.501  18.152  0.00  0.00    +0.000 A 
ENDBRANCH   6  10
ENDBRANCH   2   9
ENDBRANCH   1   2
BRANCH   1  16
ATOM     16  O   UNL     1       8.016   8.595  18.680  0.00  0.00    +0.000 OA
BRANCH  16  17
ATOM     17  C   UNL     1       8.694   9.778  18.535  0.00  0.00    +0.000 A 
ATOM     18  C   UNL     1       8.102  10.711  17.660  0.00  0.00    +0.000 A 
ATOM     19  C   UNL     1       8.612  12.006  17.523  0.00  0.00    +0.000 A 
ATOM     20  C   UNL     1       9.698  12.353  18.304  0.00  0.00    +0.000 A 
ATOM     21  C   UNL     1      10.292  11.412  19.164  0.00  0.00    +0.000 A 
ATOM     22  C   UNL     1       9.844  10.113  19.248  0.00  0.00    +0.000 A 
ATOM     23  C   UNL     1      11.236  12.100  20.111  0.00  0.00    +0.000 C 
ATOM     24  C   UNL     1      10.530  13.481  20.117  0.00  0.00    +0.000 C 
ATOM     25  C   UNL     1      10.317  13.696  18.602  0.00  0.00    +0.000 C 
BRANCH  25  26
ATOM     26  C   UNL     1       9.692  14.944  18.010  0.00  0.00    +0.000 C 
BRANCH  26  27
ATOM     27  C   UNL     1      10.563  15.887  17.222  0.00  0.00    +0.000 C 
ATOM     28  O   UNL     1      10.966  16.953  17.620  0.00  0.00    +0.000 OA
BRANCH  27  29
ATOM     29  O   UNL     1      10.937  15.358  16.031  0.00  0.00    +0.000 OA
ATOM     30  H   UNL     1      10.498  15.734  15.255  0.00  0.00    +0.000 HD
ENDBRANCH  27  29
ENDBRANCH  26  27
ENDBRANCH  25  26
ENDBRANCH  16  17
ENDBRANCH   1  16
TORSDOF 8
ENDMDL
MODEL 7
REMARK VINA RESULT:      -7.8      7.334     11.258
REMARK  Name = 
REMARK  10 active torsions:
REMARK  status: ('A' for Active; 'I' for Inactive)
REMARK    1  A    between atoms: C_1  and  C_2
REMARK    2  A    between atoms: C_4  and  C_5
REMARK    3  A    between atoms: N_11  and  C_12
REMARK    4  A    between atoms: C_13  and  C_14
REMARK    5  A    between atoms: C_14  and  C_15
REMARK    6  A    between atoms: C_15  and  O_16
REMARK    7  A    between atoms: O_16  and  C_17
REMARK    8  A    between atoms: C_25  and  C_26
REMARK    9  A    between atoms: C_26  and  C_27
REMARK   10  A    between atoms: C_27  and  O_29
REMARK                            x       y       z     vdW  Elec       q    Type
REMARK                         _______ _______ _______ _____ _____    ______ ____
ROOT
ATOM      1  C   UNL     1       0.886   9.684  18.773  0.00  0.00    +0.000 C 
ENDROOT
BRANCH   1   2
ATOM      2  C   UNL     1       1.226  10.966  19.520  0.00  0.00    +0.000 C 
BRANCH   2   9
ATOM      3  C   UNL     1       1.349   9.048  22.243  0.00  0.00    +0.000 C 
ATOM      4  C   UNL     1       0.576  10.285  21.979  0.00  0.00    +0.000 A 
ATOM      5  N   UNL     1      -0.256  10.799  22.945  0.00  0.00    +0.000 NA
ATOM      6  C   UNL     1      -0.833  11.874  22.434  0.00  0.00    +0.000 A 
ATOM      7  N   UNL     1      -0.319  12.109  21.171  0.00  0.00    +0.000 N 
ATOM      8  C   UNL     1      -0.568  13.246  20.314  0.00  0.00    +0.000 C 
ATOM      9  C   UNL     1       0.535  11.073  20.843  0.00  0.00    +0.000 A 
BRANCH   6  10
ATOM     10  C   UNL     1      -1.830  12.705  23.132  0.00  0.00    +0.000 A 
ATOM     11  C   UNL     1      -1.461  13.943  23.678  0.00  0.00    +0.000 A 
ATOM     12  C   UNL     1      -2.417  14.769  24.283  0.00  0.00    +0.000 A 
ATOM     13  C   UNL     1      -3.752  14.372  24.341  0.00  0.00    +0.000 A 
ATOM     14  C   UNL     1      -4.124  13.129  23.842  0.00  0.00    +0.000 A 
ATOM     15  C   UNL     1      -3.162  12.290  23.276  0.00  0.00    +0.000 A 
ENDBRANCH   6  10
ENDBRANCH   2   9
ENDBRANCH   1   2
BRANCH   1  16
ATOM     16  O   UNL     1       2.036   9.290  18.010  0.00  0.00    +0.000 OA
BRANCH  16  17
ATOM     17  C   UNL     1       2.540   8.050  18.306  0.00  0.00    +0.000 A 
ATOM     18  C   UNL     1       1.992   7.430  19.447  0.00  0.00    +0.000 A 
ATOM     19  C   UNL     1       2.315   6.112  19.786  0.00  0.00    +0.000 A 
ATOM     20  C   UNL     1       3.163   5.423  18.941  0.00  0.00    +0.000 A 
ATOM     21  C   UNL     1       3.717   6.052  17.812  0.00  0.00    +0.000 A 
ATOM     22  C   UNL     1       3.466   7.373  17.513  0.00  0.00    +0.000 A 
ATOM     23  C   UNL     1       4.343   5.029  16.905  0.00  0.00    +0.000 C 
ATOM     24  C   UNL     1       3.447   3.833  17.315  0.00  0.00    +0.000 C 
ATOM     25  C   UNL     1       3.500   3.955  18.854  0.00  0.00    +0.000 C 
BRANCH  25  26
ATOM     26  C   UNL     1       2.817   2.985  19.799  0.00  0.00    +0.000 C 
BRANCH  26  27
ATOM     27  C   UNL     1       1.337   2.748  19.650  0.00  0.00    +0.000 C 
ATOM     28  O   UNL     1       0.808   2.257  18.683  0.00  0.00    +0.000 OA
BRANCH  27  29
ATOM     29  O   UNL     1       0.656   3.063  20.780  0.00  0.00    +0.000 OA
ATOM     30  H   UNL     1      -0.126   2.521  20.958  0.00  0.00    +0.000 HD
ENDBRANCH  27  29
ENDBRANCH  26  27
ENDBRANCH  25  26
ENDBRANCH  16  17
ENDBRANCH   1  16
TORSDOF 8
ENDMDL
MODEL 8
REMARK VINA RESULT:      -7.8      7.121     10.881
REMARK  Name = 
REMARK  10 active torsions:
REMARK  status: ('A' for Active; 'I' for Inactive)
REMARK    1  A    between atoms: C_1  and  C_2
REMARK    2  A    between atoms: C_4  and  C_5
REMARK    3  A    between atoms: N_11  and  C_12
REMARK    4  A    between atoms: C_13  and  C_14
REMARK    5  A    between atoms: C_14  and  C_15
REMARK    6  A    between atoms: C_15  and  O_16
REMARK    7  A    between atoms: O_16  and  C_17
REMARK    8  A    between atoms: C_25  and  C_26
REMARK    9  A    between atoms: C_26  and  C_27
REMARK   10  A    between atoms: C_27  and  O_29
REMARK                            x       y       z     vdW  Elec       q    Type
REMARK                         _______ _______ _______ _____ _____    ______ ____
ROOT
ATOM      1  C   UNL     1       1.433  10.126  18.669  0.00  0.00    +0.000 C 
ENDROOT
BRANCH   1   2
ATOM      2  C   UNL     1       0.020   9.888  19.185  0.00  0.00    +0.000 C 
BRANCH   2   9
ATOM      3  C   UNL     1       1.362   8.872  22.062  0.00  0.00    +0.000 C 
ATOM      4  C   UNL     1       0.375   9.945  21.793  0.00  0.00    +0.000 A 
ATOM      5  N   UNL     1      -0.133  10.692  22.830  0.00  0.00    +0.000 NA
ATOM      6  C   UNL     1      -1.002  11.544  22.311  0.00  0.00    +0.000 A 
ATOM      7  N   UNL     1      -1.000  11.411  20.933  0.00  0.00    +0.000 N 
ATOM      8  C   UNL     1      -1.695  12.232  19.967  0.00  0.00    +0.000 C 
ATOM      9  C   UNL     1      -0.174  10.357  20.593  0.00  0.00    +0.000 A 
BRANCH   6  10
ATOM     10  C   UNL     1      -1.801  12.507  23.089  0.00  0.00    +0.000 A 
ATOM     11  C   UNL     1      -1.260  13.750  23.445  0.00  0.00    +0.000 A 
ATOM     12  C   UNL     1      -2.036  14.698  24.125  0.00  0.00    +0.000 A 
ATOM     13  C   UNL     1      -3.363  14.418  24.447  0.00  0.00    +0.000 A 
ATOM     14  C   UNL     1      -3.900  13.173  24.137  0.00  0.00    +0.000 A 
ATOM     15  C   UNL     1      -3.112  12.215  23.496  0.00  0.00    +0.000 A 
ENDBRANCH   6  10
ENDBRANCH   2   9
ENDBRANCH   1   2
BRANCH   1  16
ATOM     16  O   UNL     1       1.675   9.212  17.589  0.00  0.00    +0.000 OA
BRANCH  16  17
ATOM     17  C   UNL     1       2.526   8.176  17.876  0.00  0.00    +0.000 A 
ATOM     18  C   UNL     1       2.209   7.435  19.033  0.00  0.00    +0.000 A 
ATOM     19  C   UNL     1       2.910   6.272  19.368  0.00  0.00    +0.000 A 
ATOM     20  C   UNL     1       3.904   5.852  18.506  0.00  0.00    +0.000 A 
ATOM     21  C   UNL     1       4.224   6.603  17.360  0.00  0.00    +0.000 A 
ATOM     22  C   UNL     1       3.591   7.790  17.064  0.00  0.00    +0.000 A 
ATOM     23  C   UNL     1       5.101   5.798  16.442  0.00  0.00    +0.000 C 
ATOM     24  C   UNL     1       4.602   4.397  16.878  0.00  0.00    +0.000 C 
ATOM     25  C   UNL     1       4.652   4.545  18.415  0.00  0.00    +0.000 C 
BRANCH  25  26
ATOM     26  C   UNL     1       4.304   3.428  19.380  0.00  0.00    +0.000 C 
BRANCH  26  27
ATOM     27  C   UNL     1       3.279   2.405  18.964  0.00  0.00    +0.000 C 
ATOM     28  O   UNL     1       3.528   1.357  18.421  0.00  0.00    +0.000 OA
BRANCH  27  29
ATOM     29  O   UNL     1       2.029   2.748  19.361  0.00  0.00    +0.000 OA
ATOM     30  H   UNL     1       1.958   3.083  20.265  0.00  0.00    +0.000 HD
ENDBRANCH  27  29
ENDBRANCH  26  27
ENDBRANCH  25  26
ENDBRANCH  16  17
ENDBRANCH   1  16
TORSDOF 8
ENDMDL
MODEL 9
REMARK VINA RESULT:      -7.8      6.043      7.941
REMARK  Name = 
REMARK  10 active torsions:
REMARK  status: ('A' for Active; 'I' for Inactive)
REMARK    1  A    between atoms: C_1  and  C_2
REMARK    2  A    between atoms: C_4  and  C_5
REMARK    3  A    between atoms: N_11  and  C_12
REMARK    4  A    between atoms: C_13  and  C_14
REMARK    5  A    between atoms: C_14  and  C_15
REMARK    6  A    between atoms: C_15  and  O_16
REMARK    7  A    between atoms: O_16  and  C_17
REMARK    8  A    between atoms: C_25  and  C_26
REMARK    9  A    between atoms: C_26  and  C_27
REMARK   10  A    between atoms: C_27  and  O_29
REMARK                            x       y       z     vdW  Elec       q    Type
REMARK                         _______ _______ _______ _____ _____    ______ ____
ROOT
ATOM      1  C   UNL     1       4.122   5.437  19.714  0.00  0.00    +0.000 C 
ENDROOT
BRANCH   1   2
ATOM      2  C   UNL     1       4.826   4.201  19.169  0.00  0.00    +0.000 C 
BRANCH   2   9
ATOM      3  C   UNL     1       7.810   5.685  19.199  0.00  0.00    +0.000 C 
ATOM      4  C   UNL     1       7.029   5.130  18.068  0.00  0.00    +0.000 A 
ATOM      5  N   UNL     1       7.527   5.195  16.787  0.00  0.00    +0.000 NA
ATOM      6  C   UNL     1       6.620   4.658  15.987  0.00  0.00    +0.000 A 
ATOM      7  N   UNL     1       5.573   4.170  16.749  0.00  0.00    +0.000 N 
ATOM      8  C   UNL     1       4.442   3.392  16.298  0.00  0.00    +0.000 C 
ATOM      9  C   UNL     1       5.790   4.515  18.069  0.00  0.00    +0.000 A 
BRANCH   6  10
ATOM     10  C   UNL     1       6.745   4.562  14.522  0.00  0.00    +0.000 A 
ATOM     11  C   UNL     1       7.642   5.391  13.833  0.00  0.00    +0.000 A 
ATOM     12  C   UNL     1       7.817   5.258  12.449  0.00  0.00    +0.000 A 
ATOM     13  C   UNL     1       7.105   4.291  11.741  0.00  0.00    +0.000 A 
ATOM     14  C   UNL     1       6.181   3.491  12.404  0.00  0.00    +0.000 A 
ATOM     15  C   UNL     1       5.979   3.652  13.777  0.00  0.00    +0.000 A 
ENDBRANCH   6  10
ENDBRANCH   2   9
ENDBRANCH   1   2
BRANCH   1  16
ATOM     16  O   UNL     1       3.183   5.889  18.728  0.00  0.00    +0.000 OA
BRANCH  16  17
ATOM     17  C   UNL     1       2.579   7.090  18.999  0.00  0.00    +0.000 A 
ATOM     18  C   UNL     1       2.371   7.928  17.885  0.00  0.00    +0.000 A 
ATOM     19  C   UNL     1       1.646   9.119  17.994  0.00  0.00    +0.000 A 
ATOM     20  C   UNL     1       1.107   9.430  19.228  0.00  0.00    +0.000 A 
ATOM     21  C   UNL     1       1.330   8.596  20.338  0.00  0.00    +0.000 A 
ATOM     22  C   UNL     1       2.107   7.462  20.257  0.00  0.00    +0.000 A 
ATOM     23  C   UNL     1       0.406   8.974  21.463  0.00  0.00    +0.000 C 
ATOM     24  C   UNL     1      -0.732   9.559  20.589  0.00  0.00    +0.000 C 
ATOM     25  C   UNL     1       0.080  10.459  19.631  0.00  0.00    +0.000 C 
BRANCH  25  26
ATOM     26  C   UNL     1      -0.548  11.332  18.563  0.00  0.00    +0.000 C 
BRANCH  26  27
ATOM     27  C   UNL     1      -0.360  12.825  18.643  0.00  0.00    +0.000 C 
ATOM     28  O   UNL     1      -1.025  13.570  19.319  0.00  0.00    +0.000 OA
BRANCH  27  29
ATOM     29  O   UNL     1       0.721  13.239  17.937  0.00  0.00    +0.000 OA
ATOM     30  H   UNL     1       0.839  12.819  17.074  0.00  0.00    +0.000 HD
ENDBRANCH  27  29
ENDBRANCH  26  27
ENDBRANCH  25  26
ENDBRANCH  16  17
ENDBRANCH   1  16
TORSDOF 8
ENDMDL
