MODEL 1
REMARK VINA RESULT:      -7.3      0.000      0.000
REMARK  Name = 
REMARK  4 active torsions:
REMARK  status: ('A' for Active; 'I' for Inactive)
REMARK    1  A    between atoms: C_1  and  C_2
REMARK    2  A    between atoms: C_2  and  N_3
REMARK    3  A    between atoms: C_2  and  C_4
REMARK    4  A    between atoms: C_11  and  C_12
REMARK                            x       y       z     vdW  Elec       q    Type
REMARK                         _______ _______ _______ _____ _____    ______ ____
ROOT
ATOM      1  C   UNL     1       3.130   4.798  19.845  0.00  0.00    +0.000 A 
ATOM      2  N   UNL     1       2.353   4.462  20.912  0.00  0.00    +0.000 NA
ATOM      3  C   UNL     1       2.340   3.200  21.315  0.00  0.00    +0.000 A 
ATOM      4  N   UNL     1       1.466   2.861  22.330  0.00  0.00    +0.000 N 
ATOM      5  N   UNL     1       3.053   2.230  20.764  0.00  0.00    +0.000 NA
ATOM      6  C   UNL     1       3.864   2.577  19.749  0.00  0.00    +0.000 A 
ATOM      7  N   UNL     1       4.586   1.481  19.264  0.00  0.00    +0.000 N 
ATOM      8  C   UNL     1       3.962   3.869  19.196  0.00  0.00    +0.000 A 
ATOM      9  H   UNL     1       0.716   3.539  22.354  0.00  0.00    +0.000 HD
ATOM     10  H   UNL     1       1.203   1.893  22.227  0.00  0.00    +0.000 HD
ATOM     11  H   UNL     1       4.366   0.693  19.870  0.00  0.00    +0.000 HD
ATOM     12  H   UNL     1       5.582   1.680  19.248  0.00  0.00    +0.000 HD
ENDROOT
BRANCH   8  13
ATOM     13  C   UNL     1       4.847   4.166  18.022  0.00  0.00    +0.000 A 
ATOM     14  C   UNL     1       4.399   3.985  16.695  0.00  0.00    +0.000 A 
ATOM     15  C   UNL     1       5.219   4.226  15.583  0.00  0.00    +0.000 A 
ATOM     16  C   UNL     1       6.504   4.716  15.770  0.00  0.00    +0.000 A 
ATOM     17 CL   UNL     1       7.499   5.066  14.414  0.00  0.00    +0.000 Cl
ATOM     18  C   UNL     1       6.982   4.920  17.056  0.00  0.00    +0.000 A 
ATOM     19  C   UNL     1       6.175   4.611  18.162  0.00  0.00    +0.000 A 
ENDBRANCH   8  13
BRANCH   1  21
ATOM     20  C   UNL     1       2.239   6.453  18.126  0.00  0.00    +0.000 C 
ATOM     21  C   UNL     1       3.001   6.270  19.452  0.00  0.00    +0.000 C 
BRANCH  21  22
ATOM     22  N   UNL     1       2.293   7.049  20.484  0.00  0.00    +0.000 NA
ATOM     23  H   UNL     1       2.993   7.556  21.030  0.00  0.00    +0.000 HD
ATOM     24  H   UNL     1       1.847   6.406  21.136  0.00  0.00    +0.000 HD
ENDBRANCH  21  22
ENDBRANCH   1  21
TORSDOF 3
ENDMDL
MODEL 2
REMARK VINA RESULT:      -7.2      0.030      1.129
REMARK  Name = 
REMARK  4 active torsions:
REMARK  status: ('A' for Active; 'I' for Inactive)
REMARK    1  A    between atoms: C_1  and  C_2
REMARK    2  A    between atoms: C_2  and  N_3
REMARK    3  A    between atoms: C_2  and  C_4
REMARK    4  A    between atoms: C_11  and  C_12
REMARK                            x       y       z     vdW  Elec       q    Type
REMARK                         _______ _______ _______ _____ _____    ______ ____
ROOT
ATOM      1  C   UNL     1       3.137   4.785  19.837  0.00  0.00    +0.000 A 
ATOM      2  N   UNL     1       2.370   4.450  20.912  0.00  0.00    +0.000 NA
ATOM      3  C   UNL     1       2.351   3.186  21.308  0.00  0.00    +0.000 A 
ATOM      4  N   UNL     1       1.486   2.849  22.332  0.00  0.00    +0.000 N 
ATOM      5  N   UNL     1       3.049   2.212  20.744  0.00  0.00    +0.000 NA
ATOM      6  C   UNL     1       3.850   2.557  19.721  0.00  0.00    +0.000 A 
ATOM      7  N   UNL     1       4.557   1.458  19.221  0.00  0.00    +0.000 N 
ATOM      8  C   UNL     1       3.953   3.852  19.172  0.00  0.00    +0.000 A 
ATOM      9  H   UNL     1       0.743   3.534  22.368  0.00  0.00    +0.000 HD
ATOM     10  H   UNL     1       1.214   1.884  22.228  0.00  0.00    +0.000 HD
ATOM     11  H   UNL     1       4.338   0.669  19.826  0.00  0.00    +0.000 HD
ATOM     12  H   UNL     1       5.554   1.648  19.195  0.00  0.00    +0.000 HD
ENDROOT
BRANCH   8  13
ATOM     13  C   UNL     1       4.826   4.147  17.989  0.00  0.00    +0.000 A 
ATOM     14  C   UNL     1       6.146   4.624  18.147  0.00  0.00    +0.000 A 
ATOM     15  C   UNL     1       6.970   4.936  17.056  0.00  0.00    +0.000 A 
ATOM     16  C   UNL     1       6.511   4.720  15.765  0.00  0.00    +0.000 A 
ATOM     17 CL   UNL     1       7.531   5.048  14.421  0.00  0.00    +0.000 Cl
ATOM     18  C   UNL     1       5.225   4.241  15.562  0.00  0.00    +0.000 A 
ATOM     19  C   UNL     1       4.387   3.997  16.661  0.00  0.00    +0.000 A 
ENDBRANCH   8  13
BRANCH   1  21
ATOM     20  C   UNL     1       2.258   6.454  18.125  0.00  0.00    +0.000 C 
ATOM     21  C   UNL     1       3.016   6.259  19.453  0.00  0.00    +0.000 C 
BRANCH  21  22
ATOM     22  N   UNL     1       2.309   7.036  20.487  0.00  0.00    +0.000 NA
ATOM     23  H   UNL     1       2.398   8.027  20.252  0.00  0.00    +0.000 HD
ATOM     24  H   UNL     1       2.792   6.918  21.376  0.00  0.00    +0.000 HD
ENDBRANCH  21  22
ENDBRANCH   1  21
TORSDOF 3
ENDMDL
MODEL 3
REMARK VINA RESULT:      -7.0      3.098      4.679
REMARK  Name = 
REMARK  4 active torsions:
REMARK  status: ('A' for Active; 'I' for Inactive)
REMARK    1  A    between atoms: C_1  and  C_2
REMARK    2  A    between atoms: C_2  and  N_3
REMARK    3  A    between atoms: C_2  and  C_4
REMARK    4  A    between atoms: C_11  and  C_12
REMARK                            x       y       z     vdW  Elec       q    Type
REMARK                         _______ _______ _______ _____ _____    ______ ____
ROOT
ATOM      1  C   UNL     1       2.675   3.722  19.824  0.00  0.00    +0.000 A 
ATOM      2  N   UNL     1       3.294   2.526  20.032  0.00  0.00    +0.000 NA
ATOM      3  C   UNL     1       4.606   2.454  19.871  0.00  0.00    +0.000 A 
ATOM      4  N   UNL     1       5.199   1.211  19.984  0.00  0.00    +0.000 N 
ATOM      5  N   UNL     1       5.378   3.479  19.541  0.00  0.00    +0.000 NA
ATOM      6  C   UNL     1       4.773   4.670  19.395  0.00  0.00    +0.000 A 
ATOM      7  N   UNL     1       5.685   5.680  19.073  0.00  0.00    +0.000 N 
ATOM      8  C   UNL     1       3.385   4.893  19.505  0.00  0.00    +0.000 A 
ATOM      9  H   UNL     1       4.500   0.502  19.804  0.00  0.00    +0.000 HD
ATOM     10  H   UNL     1       6.029   1.190  19.412  0.00  0.00    +0.000 HD
ATOM     11  H   UNL     1       6.612   5.261  19.109  0.00  0.00    +0.000 HD
ATOM     12  H   UNL     1       5.600   6.464  19.713  0.00  0.00    +0.000 HD
ENDROOT
BRANCH   8  13
ATOM     13  C   UNL     1       2.776   6.243  19.269  0.00  0.00    +0.000 A 
ATOM     14  C   UNL     1       2.186   6.980  20.319  0.00  0.00    +0.000 A 
ATOM     15  C   UNL     1       1.582   8.229  20.115  0.00  0.00    +0.000 A 
ATOM     16  C   UNL     1       1.607   8.807  18.854  0.00  0.00    +0.000 A 
ATOM     17 CL   UNL     1       0.918  10.362  18.604  0.00  0.00    +0.000 Cl
ATOM     18  C   UNL     1       2.187   8.124  17.795  0.00  0.00    +0.000 A 
ATOM     19  C   UNL     1       2.727   6.845  17.998  0.00  0.00    +0.000 A 
ENDBRANCH   8  13
BRANCH   1  21
ATOM     20  C   UNL     1       0.487   2.895  18.815  0.00  0.00    +0.000 C 
ATOM     21  C   UNL     1       1.156   3.644  19.983  0.00  0.00    +0.000 C 
BRANCH  21  22
ATOM     22  N   UNL     1       0.773   2.958  21.230  0.00  0.00    +0.000 NA
ATOM     23  H   UNL     1       1.604   2.897  21.823  0.00  0.00    +0.000 HD
ATOM     24  H   UNL     1       0.517   1.996  21.013  0.00  0.00    +0.000 HD
ENDBRANCH  21  22
ENDBRANCH   1  21
TORSDOF 3
ENDMDL
MODEL 4
REMARK VINA RESULT:      -7.0      3.088      4.590
REMARK  Name = 
REMARK  4 active torsions:
REMARK  status: ('A' for Active; 'I' for Inactive)
REMARK    1  A    between atoms: C_1  and  C_2
REMARK    2  A    between atoms: C_2  and  N_3
REMARK    3  A    between atoms: C_2  and  C_4
REMARK    4  A    between atoms: C_11  and  C_12
REMARK                            x       y       z     vdW  Elec       q    Type
REMARK                         _______ _______ _______ _____ _____    ______ ____
ROOT
ATOM      1  C   UNL     1       2.682   3.711  19.799  0.00  0.00    +0.000 A 
ATOM      2  N   UNL     1       3.295   2.512  20.008  0.00  0.00    +0.000 NA
ATOM      3  C   UNL     1       4.610   2.438  19.869  0.00  0.00    +0.000 A 
ATOM      4  N   UNL     1       5.197   1.193  19.982  0.00  0.00    +0.000 N 
ATOM      5  N   UNL     1       5.390   3.463  19.559  0.00  0.00    +0.000 NA
ATOM      6  C   UNL     1       4.789   4.657  19.411  0.00  0.00    +0.000 A 
ATOM      7  N   UNL     1       5.709   5.667  19.112  0.00  0.00    +0.000 N 
ATOM      8  C   UNL     1       3.401   4.882  19.500  0.00  0.00    +0.000 A 
ATOM      9  H   UNL     1       4.501   0.486  19.785  0.00  0.00    +0.000 HD
ATOM     10  H   UNL     1       6.037   1.174  19.424  0.00  0.00    +0.000 HD
ATOM     11  H   UNL     1       6.635   5.245  19.160  0.00  0.00    +0.000 HD
ATOM     12  H   UNL     1       5.615   6.447  19.756  0.00  0.00    +0.000 HD
ENDROOT
BRANCH   8  13
ATOM     13  C   UNL     1       2.798   6.235  19.263  0.00  0.00    +0.000 A 
ATOM     14  C   UNL     1       2.837   6.848  17.991  0.00  0.00    +0.000 A 
ATOM     15  C   UNL     1       2.309   8.125  17.754  0.00  0.00    +0.000 A 
ATOM     16  C   UNL     1       1.667   8.805  18.780  0.00  0.00    +0.000 A 
ATOM     17 CL   UNL     1       0.969  10.348  18.487  0.00  0.00    +0.000 Cl
ATOM     18  C   UNL     1       1.595   8.236  20.043  0.00  0.00    +0.000 A 
ATOM     19  C   UNL     1       2.188   6.987  20.284  0.00  0.00    +0.000 A 
ENDBRANCH   8  13
BRANCH   1  21
ATOM     20  C   UNL     1       0.514   2.855  18.772  0.00  0.00    +0.000 C 
ATOM     21  C   UNL     1       1.161   3.636  19.931  0.00  0.00    +0.000 C 
BRANCH  21  22
ATOM     22  N   UNL     1       0.756   2.983  21.189  0.00  0.00    +0.000 NA
ATOM     23  H   UNL     1       0.128   3.620  21.686  0.00  0.00    +0.000 HD
ATOM     24  H   UNL     1       1.574   2.880  21.787  0.00  0.00    +0.000 HD
ENDBRANCH  21  22
ENDBRANCH   1  21
TORSDOF 3
ENDMDL
MODEL 5
REMARK VINA RESULT:      -6.8      2.986      4.869
REMARK  Name = 
REMARK  4 active torsions:
REMARK  status: ('A' for Active; 'I' for Inactive)
REMARK    1  A    between atoms: C_1  and  C_2
REMARK    2  A    between atoms: C_2  and  N_3
REMARK    3  A    between atoms: C_2  and  C_4
REMARK    4  A    between atoms: C_11  and  C_12
REMARK                            x       y       z     vdW  Elec       q    Type
REMARK                         _______ _______ _______ _____ _____    ______ ____
ROOT
ATOM      1  C   UNL     1       4.693   4.891  19.134  0.00  0.00    +0.000 A 
ATOM      2  N   UNL     1       5.218   3.645  19.305  0.00  0.00    +0.000 NA
ATOM      3  C   UNL     1       4.442   2.691  19.797  0.00  0.00    +0.000 A 
ATOM      4  N   UNL     1       5.023   1.465  20.059  0.00  0.00    +0.000 N 
ATOM      5  N   UNL     1       3.168   2.853  20.120  0.00  0.00    +0.000 NA
ATOM      6  C   UNL     1       2.637   4.068  19.895  0.00  0.00    +0.000 A 
ATOM      7  N   UNL     1       1.284   4.116  20.248  0.00  0.00    +0.000 N 
ATOM      8  C   UNL     1       3.345   5.184  19.405  0.00  0.00    +0.000 A 
ATOM      9  H   UNL     1       6.018   1.597  20.184  0.00  0.00    +0.000 HD
ATOM     10  H   UNL     1       4.524   1.021  20.814  0.00  0.00    +0.000 HD
ATOM     11  H   UNL     1       1.018   3.171  20.519  0.00  0.00    +0.000 HD
ATOM     12  H   UNL     1       0.720   4.460  19.477  0.00  0.00    +0.000 HD
ENDROOT
BRANCH   8  13
ATOM     13  C   UNL     1       2.695   6.525  19.237  0.00  0.00    +0.000 A 
ATOM     14  C   UNL     1       2.130   7.214  20.333  0.00  0.00    +0.000 A 
ATOM     15  C   UNL     1       1.489   8.454  20.194  0.00  0.00    +0.000 A 
ATOM     16  C   UNL     1       1.451   9.073  18.952  0.00  0.00    +0.000 A 
ATOM     17 CL   UNL     1       0.718  10.617  18.781  0.00  0.00    +0.000 Cl
ATOM     18  C   UNL     1       2.005   8.438  17.850  0.00  0.00    +0.000 A 
ATOM     19  C   UNL     1       2.582   7.167  17.989  0.00  0.00    +0.000 A 
ENDBRANCH   8  13
BRANCH   1  21
ATOM     20  C   UNL     1       7.124   5.648  19.185  0.00  0.00    +0.000 C 
ATOM     21  C   UNL     1       5.715   5.905  18.619  0.00  0.00    +0.000 C 
BRANCH  21  22
ATOM     22  N   UNL     1       5.813   5.881  17.149  0.00  0.00    +0.000 NA
ATOM     23  H   UNL     1       6.463   5.135  16.890  0.00  0.00    +0.000 HD
ATOM     24  H   UNL     1       6.247   6.747  16.833  0.00  0.00    +0.000 HD
ENDBRANCH  21  22
ENDBRANCH   1  21
TORSDOF 3
ENDMDL
MODEL 6
REMARK VINA RESULT:      -6.8      2.982      4.803
REMARK  Name = 
REMARK  4 active torsions:
REMARK  status: ('A' for Active; 'I' for Inactive)
REMARK    1  A    between atoms: C_1  and  C_2
REMARK    2  A    between atoms: C_2  and  N_3
REMARK    3  A    between atoms: C_2  and  C_4
REMARK    4  A    between atoms: C_11  and  C_12
REMARK                            x       y       z     vdW  Elec       q    Type
REMARK                         _______ _______ _______ _____ _____    ______ ____
ROOT
ATOM      1  C   UNL     1       4.682   4.895  19.152  0.00  0.00    +0.000 A 
ATOM      2  N   UNL     1       5.210   3.649  19.311  0.00  0.00    +0.000 NA
ATOM      3  C   UNL     1       4.434   2.686  19.784  0.00  0.00    +0.000 A 
ATOM      4  N   UNL     1       5.016   1.459  20.035  0.00  0.00    +0.000 N 
ATOM      5  N   UNL     1       3.156   2.840  20.099  0.00  0.00    +0.000 NA
ATOM      6  C   UNL     1       2.623   4.055  19.886  0.00  0.00    +0.000 A 
ATOM      7  N   UNL     1       1.267   4.094  20.229  0.00  0.00    +0.000 N 
ATOM      8  C   UNL     1       3.330   5.180  19.417  0.00  0.00    +0.000 A 
ATOM      9  H   UNL     1       6.010   1.593  20.169  0.00  0.00    +0.000 HD
ATOM     10  H   UNL     1       4.512   1.003  20.779  0.00  0.00    +0.000 HD
ATOM     11  H   UNL     1       1.002   3.145  20.486  0.00  0.00    +0.000 HD
ATOM     12  H   UNL     1       0.707   4.447  19.459  0.00  0.00    +0.000 HD
ENDROOT
BRANCH   8  13
ATOM     13  C   UNL     1       2.678   6.522  19.262  0.00  0.00    +0.000 A 
ATOM     14  C   UNL     1       2.602   7.164  18.006  0.00  0.00    +0.000 A 
ATOM     15  C   UNL     1       2.025   8.432  17.843  0.00  0.00    +0.000 A 
ATOM     16  C   UNL     1       1.448   9.071  18.932  0.00  0.00    +0.000 A 
ATOM     17 CL   UNL     1       0.691  10.600  18.733  0.00  0.00    +0.000 Cl
ATOM     18  C   UNL     1       1.489   8.471  20.182  0.00  0.00    +0.000 A 
ATOM     19  C   UNL     1       2.130   7.233  20.345  0.00  0.00    +0.000 A 
ENDBRANCH   8  13
BRANCH   1  21
ATOM     20  C   UNL     1       7.114   5.649  19.219  0.00  0.00    +0.000 C 
ATOM     21  C   UNL     1       5.704   5.919  18.659  0.00  0.00    +0.000 C 
BRANCH  21  22
ATOM     22  N   UNL     1       5.802   5.927  17.189  0.00  0.00    +0.000 NA
ATOM     23  H   UNL     1       6.770   5.714  16.937  0.00  0.00    +0.000 HD
ATOM     24  H   UNL     1       5.630   6.872  16.851  0.00  0.00    +0.000 HD
ENDBRANCH  21  22
ENDBRANCH   1  21
TORSDOF 3
ENDMDL
MODEL 7
REMARK VINA RESULT:      -6.5      3.041      4.940
REMARK  Name = 
REMARK  4 active torsions:
REMARK  status: ('A' for Active; 'I' for Inactive)
REMARK    1  A    between atoms: C_1  and  C_2
REMARK    2  A    between atoms: C_2  and  N_3
REMARK    3  A    between atoms: C_2  and  C_4
REMARK    4  A    between atoms: C_11  and  C_12
REMARK                            x       y       z     vdW  Elec       q    Type
REMARK                         _______ _______ _______ _____ _____    ______ ____
ROOT
ATOM      1  C   UNL     1       4.058   4.293  18.477  0.00  0.00    +0.000 A 
ATOM      2  N   UNL     1       4.407   2.993  18.265  0.00  0.00    +0.000 NA
ATOM      3  C   UNL     1       3.554   2.042  18.611  0.00  0.00    +0.000 A 
ATOM      4  N   UNL     1       3.970   0.731  18.485  0.00  0.00    +0.000 N 
ATOM      5  N   UNL     1       2.358   2.263  19.136  0.00  0.00    +0.000 NA
ATOM      6  C   UNL     1       1.992   3.547  19.289  0.00  0.00    +0.000 A 
ATOM      7  N   UNL     1       0.705   3.660  19.826  0.00  0.00    +0.000 N 
ATOM      8  C   UNL     1       2.803   4.661  18.994  0.00  0.00    +0.000 A 
ATOM      9  H   UNL     1       4.981   0.709  18.500  0.00  0.00    +0.000 HD
ATOM     10  H   UNL     1       3.491   0.167  19.170  0.00  0.00    +0.000 HD
ATOM     11  H   UNL     1       0.331   2.715  19.893  0.00  0.00    +0.000 HD
ATOM     12  H   UNL     1       0.121   4.257  19.247  0.00  0.00    +0.000 HD
ENDROOT
BRANCH   8  13
ATOM     13  C   UNL     1       2.346   6.067  19.248  0.00  0.00    +0.000 A 
ATOM     14  C   UNL     1       2.293   7.026  18.212  0.00  0.00    +0.000 A 
ATOM     15  C   UNL     1       1.900   8.353  18.433  0.00  0.00    +0.000 A 
ATOM     16  C   UNL     1       1.485   8.746  19.698  0.00  0.00    +0.000 A 
ATOM     17 CL   UNL     1       0.949  10.356  19.968  0.00  0.00    +0.000 Cl
ATOM     18  C   UNL     1       1.509   7.834  20.743  0.00  0.00    +0.000 A 
ATOM     19  C   UNL     1       1.970   6.527  20.524  0.00  0.00    +0.000 A 
ENDBRANCH   8  13
BRANCH   1  21
ATOM     20  C   UNL     1       6.220   5.431  19.196  0.00  0.00    +0.000 C 
ATOM     21  C   UNL     1       5.160   5.279  18.089  0.00  0.00    +0.000 C 
BRANCH  21  22
ATOM     22  N   UNL     1       5.856   4.862  16.859  0.00  0.00    +0.000 NA
ATOM     23  H   UNL     1       6.785   5.290  16.863  0.00  0.00    +0.000 HD
ATOM     24  H   UNL     1       5.373   5.258  16.055  0.00  0.00    +0.000 HD
ENDBRANCH  21  22
ENDBRANCH   1  21
TORSDOF 3
ENDMDL
MODEL 8
REMARK VINA RESULT:      -6.4      3.049      5.010
REMARK  Name = 
REMARK  4 active torsions:
REMARK  status: ('A' for Active; 'I' for Inactive)
REMARK    1  A    between atoms: C_1  and  C_2
REMARK    2  A    between atoms: C_2  and  N_3
REMARK    3  A    between atoms: C_2  and  C_4
REMARK    4  A    between atoms: C_11  and  C_12
REMARK                            x       y       z     vdW  Elec       q    Type
REMARK                         _______ _______ _______ _____ _____    ______ ____
ROOT
ATOM      1  C   UNL     1       4.039   4.302  18.450  0.00  0.00    +0.000 A 
ATOM      2  N   UNL     1       4.379   2.999  18.238  0.00  0.00    +0.000 NA
ATOM      3  C   UNL     1       3.522   2.054  18.590  0.00  0.00    +0.000 A 
ATOM      4  N   UNL     1       3.929   0.740  18.463  0.00  0.00    +0.000 N 
ATOM      5  N   UNL     1       2.330   2.282  19.120  0.00  0.00    +0.000 NA
ATOM      6  C   UNL     1       1.972   3.569  19.273  0.00  0.00    +0.000 A 
ATOM      7  N   UNL     1       0.688   3.690  19.816  0.00  0.00    +0.000 N 
ATOM      8  C   UNL     1       2.789   4.678  18.973  0.00  0.00    +0.000 A 
ATOM      9  H   UNL     1       4.940   0.711  18.473  0.00  0.00    +0.000 HD
ATOM     10  H   UNL     1       3.450   0.179  19.150  0.00  0.00    +0.000 HD
ATOM     11  H   UNL     1       0.309   2.748  19.885  0.00  0.00    +0.000 HD
ATOM     12  H   UNL     1       0.106   4.290  19.240  0.00  0.00    +0.000 HD
ENDROOT
BRANCH   8  13
ATOM     13  C   UNL     1       2.341   6.086  19.228  0.00  0.00    +0.000 A 
ATOM     14  C   UNL     1       1.936   6.511  20.513  0.00  0.00    +0.000 A 
ATOM     15  C   UNL     1       1.484   7.813  20.768  0.00  0.00    +0.000 A 
ATOM     16  C   UNL     1       1.483   8.753  19.747  0.00  0.00    +0.000 A 
ATOM     17 CL   UNL     1       0.983  10.367  20.061  0.00  0.00    +0.000 Cl
ATOM     18  C   UNL     1       1.884   8.384  18.472  0.00  0.00    +0.000 A 
ATOM     19  C   UNL     1       2.269   7.059  18.214  0.00  0.00    +0.000 A 
ENDBRANCH   8  13
BRANCH   1  21
ATOM     20  C   UNL     1       6.208   5.431  19.161  0.00  0.00    +0.000 C 
ATOM     21  C   UNL     1       5.145   5.280  18.056  0.00  0.00    +0.000 C 
BRANCH  21  22
ATOM     22  N   UNL     1       5.837   4.854  16.827  0.00  0.00    +0.000 NA
ATOM     23  H   UNL     1       5.860   3.832  16.817  0.00  0.00    +0.000 HD
ATOM     24  H   UNL     1       6.811   5.151  16.876  0.00  0.00    +0.000 HD
ENDBRANCH  21  22
ENDBRANCH   1  21
TORSDOF 3
ENDMDL
MODEL 9
REMARK VINA RESULT:      -6.3      2.244      2.723
REMARK  Name = 
REMARK  4 active torsions:
REMARK  status: ('A' for Active; 'I' for Inactive)
REMARK    1  A    between atoms: C_1  and  C_2
REMARK    2  A    between atoms: C_2  and  N_3
REMARK    3  A    between atoms: C_2  and  C_4
REMARK    4  A    between atoms: C_11  and  C_12
REMARK                            x       y       z     vdW  Elec       q    Type
REMARK                         _______ _______ _______ _____ _____    ______ ____
ROOT
ATOM      1  C   UNL     1       3.212   4.537  19.150  0.00  0.00    +0.000 A 
ATOM      2  N   UNL     1       2.269   3.556  19.229  0.00  0.00    +0.000 NA
ATOM      3  C   UNL     1       2.355   2.525  18.402  0.00  0.00    +0.000 A 
ATOM      4  N   UNL     1       1.332   1.597  18.427  0.00  0.00    +0.000 N 
ATOM      5  N   UNL     1       3.316   2.361  17.505  0.00  0.00    +0.000 NA
ATOM      6  C   UNL     1       4.277   3.301  17.469  0.00  0.00    +0.000 A 
ATOM      7  N   UNL     1       5.250   3.013  16.506  0.00  0.00    +0.000 N 
ATOM      8  C   UNL     1       4.303   4.464  18.265  0.00  0.00    +0.000 A 
ATOM      9  H   UNL     1       0.504   2.037  18.804  0.00  0.00    +0.000 HD
ATOM     10  H   UNL     1       1.251   1.173  17.516  0.00  0.00    +0.000 HD
ATOM     11  H   UNL     1       5.018   2.100  16.119  0.00  0.00    +0.000 HD
ATOM     12  H   UNL     1       6.180   3.026  16.913  0.00  0.00    +0.000 HD
ENDROOT
BRANCH   8  13
ATOM     13  C   UNL     1       5.380   5.498  18.126  0.00  0.00    +0.000 A 
ATOM     14  C   UNL     1       5.220   6.623  17.286  0.00  0.00    +0.000 A 
ATOM     15  C   UNL     1       6.225   7.585  17.116  0.00  0.00    +0.000 A 
ATOM     16  C   UNL     1       7.407   7.480  17.836  0.00  0.00    +0.000 A 
ATOM     17 CL   UNL     1       8.624   8.682  17.677  0.00  0.00    +0.000 Cl
ATOM     18  C   UNL     1       7.602   6.398  18.683  0.00  0.00    +0.000 A 
ATOM     19  C   UNL     1       6.616   5.406  18.792  0.00  0.00    +0.000 A 
ENDBRANCH   8  13
BRANCH   1  21
ATOM     20  C   UNL     1       2.335   6.913  19.412  0.00  0.00    +0.000 C 
ATOM     21  C   UNL     1       2.955   5.692  20.117  0.00  0.00    +0.000 C 
BRANCH  21  22
ATOM     22  N   UNL     1       2.044   5.297  21.207  0.00  0.00    +0.000 NA
ATOM     23  H   UNL     1       2.070   4.278  21.285  0.00  0.00    +0.000 HD
ATOM     24  H   UNL     1       1.089   5.530  20.940  0.00  0.00    +0.000 HD
ENDBRANCH  21  22
ENDBRANCH   1  21
TORSDOF 3
ENDMDL
