MODEL 1
REMARK VINA RESULT:      -6.4      0.000      0.000
REMARK  Name = 
REMARK  13 active torsions:
REMARK  status: ('A' for Active; 'I' for Inactive)
REMARK    1  A    between atoms: C_1  and  O_2
REMARK    2  A    between atoms: O_2  and  C_3
REMARK    3  A    between atoms: C_5  and  C_6
REMARK    4  A    between atoms: C_11  and  C_12
REMARK    5  A    between atoms: C_16  and  O_17
REMARK    6  A    between atoms: O_17  and  C_18
REMARK    7  A    between atoms: C_19  and  O_20
REMARK    8  A    between atoms: O_20  and  C_21
REMARK    9  A    between atoms: C_23  and  O_24
REMARK   10  A    between atoms: C_31  and  O_32
REMARK   11  A    between atoms: O_32  and  C_33
REMARK   12  A    between atoms: C_34  and  O_35
REMARK   13  A    between atoms: O_35  and  C_36
REMARK                            x       y       z     vdW  Elec       q    Type
REMARK                         _______ _______ _______ _____ _____    ______ ____
ROOT
ATOM      1  C   UNL     1       1.401   9.776  19.137  0.00  0.00    +0.000 A 
ATOM      2  N   UNL     1       0.198   9.913  19.798  0.00  0.00    +0.000 NA
ATOM      3  C   UNL     1      -0.027  11.213  19.816  0.00  0.00    +0.000 A 
ATOM      4  N   UNL     1       1.003  11.829  19.153  0.00  0.00    +0.000 N 
ATOM      5  N   UNL     1       1.907  10.942  18.694  0.00  0.00    +0.000 NA
ATOM      6  C   UNL     1       1.097  13.272  18.926  0.00  0.00    +0.000 C 
ATOM      7  C   UNL     1      -0.180  13.980  19.388  0.00  0.00    +0.000 C 
ATOM      8  C   UNL     1      -0.404  15.291  19.209  0.00  0.00    +0.000 C 
ATOM      9  C   UNL     1      -1.432  16.110  19.926  0.00  0.00    +0.000 C 
ATOM     10  C   UNL     1      -2.335  15.387  20.911  0.00  0.00    +0.000 C 
ATOM     11  C   UNL     1      -2.239  13.873  20.977  0.00  0.00    +0.000 C 
ATOM     12  C   UNL     1      -1.109  13.179  20.229  0.00  0.00    +0.000 C 
ATOM     13  N   UNL     1      -1.038  11.896  20.405  0.00  0.00    +0.000 NA
ENDROOT
BRANCH   1  16
ATOM     14  C   UNL     1       3.576   7.018  17.669  0.00  0.00    +0.000 A 
ATOM     15  C   UNL     1       2.883   8.240  17.815  0.00  0.00    +0.000 A 
ATOM     16  C   UNL     1       2.051   8.479  18.914  0.00  0.00    +0.000 A 
ATOM     17  C   UNL     1       1.864   7.435  19.825  0.00  0.00    +0.000 A 
ATOM     18  C   UNL     1       2.485   6.183  19.668  0.00  0.00    +0.000 A 
ATOM     19  C   UNL     1       3.359   5.961  18.582  0.00  0.00    +0.000 A 
BRANCH  14  21
ATOM     20  C   UNL     1       5.821   6.929  16.910  0.00  0.00    +0.000 C 
ATOM     21  O   UNL     1       4.432   6.812  16.613  0.00  0.00    +0.000 OA
ENDBRANCH  14  21
BRANCH  18  22
ATOM     22  O   UNL     1       2.122   5.319  20.671  0.00  0.00    +0.000 OA
ATOM     23  C   UNL     1       1.082   4.381  20.454  0.00  0.00    +0.000 C 
ENDBRANCH  18  22
BRANCH  19  24
ATOM     24  O   UNL     1       3.879   4.698  18.479  0.00  0.00    +0.000 OA
ATOM     25  C   UNL     1       3.351   3.761  17.555  0.00  0.00    +0.000 C 
ENDBRANCH  19  24
ENDBRANCH   1  16
BRANCH   6  26
ATOM     26  C   UNL     1       2.326  13.846  19.666  0.00  0.00    +0.000 A 
ATOM     27  C   UNL     1       2.356  13.768  21.076  0.00  0.00    +0.000 A 
ATOM     28  C   UNL     1       3.380  14.347  21.807  0.00  0.00    +0.000 A 
ATOM     29  C   UNL     1       4.445  14.933  21.141  0.00  0.00    +0.000 A 
ATOM     30  C   UNL     1       4.488  14.975  19.737  0.00  0.00    +0.000 A 
ATOM     31  C   UNL     1       3.385  14.491  18.994  0.00  0.00    +0.000 A 
BRANCH  30  32
ATOM     32  O   UNL     1       5.570  15.507  19.080  0.00  0.00    +0.000 OA
ATOM     33  C   UNL     1       5.935  16.843  19.411  0.00  0.00    +0.000 C 
ENDBRANCH  30  32
BRANCH  31  34
ATOM     34  O   UNL     1       3.242  14.571  17.626  0.00  0.00    +0.000 OA
ATOM     35  C   UNL     1       3.355  15.855  17.007  0.00  0.00    +0.000 C 
ENDBRANCH  31  34
ENDBRANCH   6  26
BRANCH   8  36
ATOM     36  O   UNL     1       0.435  16.013  18.375  0.00  0.00    +0.000 OA
ATOM     37  H   UNL     1       1.291  15.558  18.295  0.00  0.00    +0.000 HD
ENDBRANCH   8  36
TORSDOF 8
ENDMDL
MODEL 2
REMARK VINA RESULT:      -6.4      4.929      7.483
REMARK  Name = 
REMARK  13 active torsions:
REMARK  status: ('A' for Active; 'I' for Inactive)
REMARK    1  A    between atoms: C_1  and  O_2
REMARK    2  A    between atoms: O_2  and  C_3
REMARK    3  A    between atoms: C_5  and  C_6
REMARK    4  A    between atoms: C_11  and  C_12
REMARK    5  A    between atoms: C_16  and  O_17
REMARK    6  A    between atoms: O_17  and  C_18
REMARK    7  A    between atoms: C_19  and  O_20
REMARK    8  A    between atoms: O_20  and  C_21
REMARK    9  A    between atoms: C_23  and  O_24
REMARK   10  A    between atoms: C_31  and  O_32
REMARK   11  A    between atoms: O_32  and  C_33
REMARK   12  A    between atoms: C_34  and  O_35
REMARK   13  A    between atoms: O_35  and  C_36
REMARK                            x       y       z     vdW  Elec       q    Type
REMARK                         _______ _______ _______ _____ _____    ______ ____
ROOT
ATOM      1  C   UNL     1       5.187  15.566  19.706  0.00  0.00    +0.000 A 
ATOM      2  N   UNL     1       5.025  16.314  18.559  0.00  0.00    +0.000 NA
ATOM      3  C   UNL     1       3.742  16.618  18.535  0.00  0.00    +0.000 A 
ATOM      4  N   UNL     1       3.162  16.088  19.659  0.00  0.00    +0.000 N 
ATOM      5  N   UNL     1       4.058  15.438  20.427  0.00  0.00    +0.000 NA
ATOM      6  C   UNL     1       1.751  16.241  20.015  0.00  0.00    +0.000 C 
ATOM      7  C   UNL     1       1.047  17.199  19.048  0.00  0.00    +0.000 C 
ATOM      8  C   UNL     1      -0.226  17.596  19.198  0.00  0.00    +0.000 C 
ATOM      9  C   UNL     1      -1.077  18.225  18.139  0.00  0.00    +0.000 C 
ATOM     10  C   UNL     1      -0.432  18.481  16.787  0.00  0.00    +0.000 C 
ATOM     11  C   UNL     1       1.060  18.231  16.659  0.00  0.00    +0.000 C 
ATOM     12  C   UNL     1       1.787  17.539  17.804  0.00  0.00    +0.000 C 
ATOM     13  N   UNL     1       3.039  17.280  17.585  0.00  0.00    +0.000 NA
ENDROOT
BRANCH   1  16
ATOM     14  C   UNL     1       7.889  13.803  21.726  0.00  0.00    +0.000 A 
ATOM     15  C   UNL     1       6.676  14.439  21.384  0.00  0.00    +0.000 A 
ATOM     16  C   UNL     1       6.474  14.990  20.115  0.00  0.00    +0.000 A 
ATOM     17  C   UNL     1       7.546  14.962  19.218  0.00  0.00    +0.000 A 
ATOM     18  C   UNL     1       8.789  14.399  19.554  0.00  0.00    +0.000 A 
ATOM     19  C   UNL     1       8.975  13.803  20.820  0.00  0.00    +0.000 A 
BRANCH  14  21
ATOM     20  C   UNL     1       7.460  11.935  23.124  0.00  0.00    +0.000 C 
ATOM     21  O   UNL     1       8.059  13.218  22.958  0.00  0.00    +0.000 OA
ENDBRANCH  14  21
BRANCH  18  22
ATOM     22  O   UNL     1       9.685  14.519  18.520  0.00  0.00    +0.000 OA
ATOM     23  C   UNL     1      10.209  15.793  18.185  0.00  0.00    +0.000 C 
ENDBRANCH  18  22
BRANCH  19  24
ATOM     24  O   UNL     1      10.232  13.325  21.081  0.00  0.00    +0.000 OA
ATOM     25  C   UNL     1      10.594  11.996  20.747  0.00  0.00    +0.000 C 
ENDBRANCH  19  24
ENDBRANCH   1  16
BRANCH   6  26
ATOM     26  C   UNL     1       1.050  14.864  20.009  0.00  0.00    +0.000 A 
ATOM     27  C   UNL     1       0.692  14.299  18.763  0.00  0.00    +0.000 A 
ATOM     28  C   UNL     1      -0.022  13.116  18.690  0.00  0.00    +0.000 A 
ATOM     29  C   UNL     1      -0.313  12.421  19.854  0.00  0.00    +0.000 A 
ATOM     30  C   UNL     1       0.082  12.913  21.110  0.00  0.00    +0.000 A 
ATOM     31  C   UNL     1       0.706  14.181  21.194  0.00  0.00    +0.000 A 
BRANCH  30  32
ATOM     32  O   UNL     1      -0.159  12.197  22.256  0.00  0.00    +0.000 OA
ATOM     33  C   UNL     1      -0.289  10.785  22.121  0.00  0.00    +0.000 C 
ENDBRANCH  30  32
BRANCH  31  34
ATOM     34  O   UNL     1       1.041  14.835  22.359  0.00  0.00    +0.000 OA
ATOM     35  C   UNL     1       0.004  15.500  23.085  0.00  0.00    +0.000 C 
ENDBRANCH  31  34
ENDBRANCH   6  26
BRANCH   8  36
ATOM     36  O   UNL     1      -0.884  17.325  20.387  0.00  0.00    +0.000 OA
ATOM     37  H   UNL     1      -1.103  18.159  20.839  0.00  0.00    +0.000 HD
ENDBRANCH   8  36
TORSDOF 8
ENDMDL
MODEL 3
REMARK VINA RESULT:      -6.4      1.515      2.862
REMARK  Name = 
REMARK  13 active torsions:
REMARK  status: ('A' for Active; 'I' for Inactive)
REMARK    1  A    between atoms: C_1  and  O_2
REMARK    2  A    between atoms: O_2  and  C_3
REMARK    3  A    between atoms: C_5  and  C_6
REMARK    4  A    between atoms: C_11  and  C_12
REMARK    5  A    between atoms: C_16  and  O_17
REMARK    6  A    between atoms: O_17  and  C_18
REMARK    7  A    between atoms: C_19  and  O_20
REMARK    8  A    between atoms: O_20  and  C_21
REMARK    9  A    between atoms: C_23  and  O_24
REMARK   10  A    between atoms: C_31  and  O_32
REMARK   11  A    between atoms: O_32  and  C_33
REMARK   12  A    between atoms: C_34  and  O_35
REMARK   13  A    between atoms: O_35  and  C_36
REMARK                            x       y       z     vdW  Elec       q    Type
REMARK                         _______ _______ _______ _____ _____    ______ ____
ROOT
ATOM      1  C   UNL     1       0.959   8.871  20.474  0.00  0.00    +0.000 A 
ATOM      2  N   UNL     1       0.128   8.897  21.574  0.00  0.00    +0.000 NA
ATOM      3  C   UNL     1      -0.350  10.126  21.604  0.00  0.00    +0.000 A 
ATOM      4  N   UNL     1       0.163  10.805  20.529  0.00  0.00    +0.000 N 
ATOM      5  N   UNL     1       0.975  10.028  19.785  0.00  0.00    +0.000 NA
ATOM      6  C   UNL     1      -0.161  12.192  20.192  0.00  0.00    +0.000 C 
ATOM      7  C   UNL     1      -1.263  12.731  21.110  0.00  0.00    +0.000 C 
ATOM      8  C   UNL     1      -1.821  13.942  20.961  0.00  0.00    +0.000 C 
ATOM      9  C   UNL     1      -2.624  14.670  21.994  0.00  0.00    +0.000 C 
ATOM     10  C   UNL     1      -2.870  13.957  23.313  0.00  0.00    +0.000 C 
ATOM     11  C   UNL     1      -2.426  12.510  23.427  0.00  0.00    +0.000 C 
ATOM     12  C   UNL     1      -1.573  11.917  22.314  0.00  0.00    +0.000 C 
ATOM     13  N   UNL     1      -1.159  10.706  22.524  0.00  0.00    +0.000 NA
ENDROOT
BRANCH   1  16
ATOM     14  C   UNL     1       2.420   5.357  20.397  0.00  0.00    +0.000 A 
ATOM     15  C   UNL     1       1.750   6.517  20.843  0.00  0.00    +0.000 A 
ATOM     16  C   UNL     1       1.731   7.687  20.077  0.00  0.00    +0.000 A 
ATOM     17  C   UNL     1       2.466   7.697  18.888  0.00  0.00    +0.000 A 
ATOM     18  C   UNL     1       3.200   6.580  18.453  0.00  0.00    +0.000 A 
ATOM     19  C   UNL     1       3.181   5.386  19.205  0.00  0.00    +0.000 A 
BRANCH  14  21
ATOM     20  C   UNL     1       1.245   3.368  20.937  0.00  0.00    +0.000 C 
ATOM     21  O   UNL     1       2.390   4.195  21.131  0.00  0.00    +0.000 OA
ENDBRANCH  14  21
BRANCH  18  22
ATOM     22  O   UNL     1       3.859   6.845  17.277  0.00  0.00    +0.000 OA
ATOM     23  C   UNL     1       5.276   6.880  17.254  0.00  0.00    +0.000 C 
ENDBRANCH  18  22
BRANCH  19  24
ATOM     24  O   UNL     1       3.965   4.366  18.734  0.00  0.00    +0.000 OA
ATOM     25  C   UNL     1       3.448   3.400  17.835  0.00  0.00    +0.000 C 
ENDBRANCH  19  24
ENDBRANCH   1  16
BRANCH   6  26
ATOM     26  C   UNL     1       1.104  13.073  20.301  0.00  0.00    +0.000 A 
ATOM     27  C   UNL     1       1.361  13.729  21.525  0.00  0.00    +0.000 A 
ATOM     28  C   UNL     1       2.422  14.608  21.661  0.00  0.00    +0.000 A 
ATOM     29  C   UNL     1       3.307  14.777  20.606  0.00  0.00    +0.000 A 
ATOM     30  C   UNL     1       3.126  14.093  19.392  0.00  0.00    +0.000 A 
ATOM     31  C   UNL     1       1.975  13.289  19.213  0.00  0.00    +0.000 A 
BRANCH  30  32
ATOM     32  O   UNL     1       4.033  14.220  18.369  0.00  0.00    +0.000 OA
ATOM     33  C   UNL     1       4.013  15.441  17.636  0.00  0.00    +0.000 C 
ENDBRANCH  30  32
BRANCH  31  34
ATOM     34  O   UNL     1       1.613  12.655  18.044  0.00  0.00    +0.000 OA
ATOM     35  C   UNL     1       2.383  11.529  17.618  0.00  0.00    +0.000 C 
ENDBRANCH  31  34
ENDBRANCH   6  26
BRANCH   8  36
ATOM     36  O   UNL     1      -1.571  14.665  19.805  0.00  0.00    +0.000 OA
ATOM     37  H   UNL     1      -2.396  14.774  19.300  0.00  0.00    +0.000 HD
ENDBRANCH   8  36
TORSDOF 8
ENDMDL
MODEL 4
REMARK VINA RESULT:      -6.3      4.920      7.319
REMARK  Name = 
REMARK  13 active torsions:
REMARK  status: ('A' for Active; 'I' for Inactive)
REMARK    1  A    between atoms: C_1  and  O_2
REMARK    2  A    between atoms: O_2  and  C_3
REMARK    3  A    between atoms: C_5  and  C_6
REMARK    4  A    between atoms: C_11  and  C_12
REMARK    5  A    between atoms: C_16  and  O_17
REMARK    6  A    between atoms: O_17  and  C_18
REMARK    7  A    between atoms: C_19  and  O_20
REMARK    8  A    between atoms: O_20  and  C_21
REMARK    9  A    between atoms: C_23  and  O_24
REMARK   10  A    between atoms: C_31  and  O_32
REMARK   11  A    between atoms: O_32  and  C_33
REMARK   12  A    between atoms: C_34  and  O_35
REMARK   13  A    between atoms: O_35  and  C_36
REMARK                            x       y       z     vdW  Elec       q    Type
REMARK                         _______ _______ _______ _____ _____    ______ ____
ROOT
ATOM      1  C   UNL     1       5.327  15.489  19.337  0.00  0.00    +0.000 A 
ATOM      2  N   UNL     1       5.077  16.275  18.231  0.00  0.00    +0.000 NA
ATOM      3  C   UNL     1       3.792  16.562  18.307  0.00  0.00    +0.000 A 
ATOM      4  N   UNL     1       3.298  15.985  19.449  0.00  0.00    +0.000 N 
ATOM      5  N   UNL     1       4.252  15.321  20.130  0.00  0.00    +0.000 NA
ATOM      6  C   UNL     1       1.913  16.107  19.907  0.00  0.00    +0.000 C 
ATOM      7  C   UNL     1       1.134  17.089  19.026  0.00  0.00    +0.000 C 
ATOM      8  C   UNL     1      -0.130  17.463  19.278  0.00  0.00    +0.000 C 
ATOM      9  C   UNL     1      -1.060  18.118  18.304  0.00  0.00    +0.000 C 
ATOM     10  C   UNL     1      -0.513  18.430  16.921  0.00  0.00    +0.000 C 
ATOM     11  C   UNL     1       0.969  18.205  16.680  0.00  0.00    +0.000 C 
ATOM     12  C   UNL     1       1.781  17.482  17.747  0.00  0.00    +0.000 C 
ATOM     13  N   UNL     1       3.017  17.248  17.433  0.00  0.00    +0.000 NA
ENDROOT
BRANCH   1  16
ATOM     14  C   UNL     1       8.865  14.140  18.943  0.00  0.00    +0.000 A 
ATOM     15  C   UNL     1       7.566  14.600  18.632  0.00  0.00    +0.000 A 
ATOM     16  C   UNL     1       6.645  14.916  19.635  0.00  0.00    +0.000 A 
ATOM     17  C   UNL     1       7.024  14.684  20.961  0.00  0.00    +0.000 A 
ATOM     18  C   UNL     1       8.284  14.159  21.298  0.00  0.00    +0.000 A 
ATOM     19  C   UNL     1       9.228  13.884  20.286  0.00  0.00    +0.000 A 
BRANCH  14  21
ATOM     20  C   UNL     1      10.663  14.954  17.628  0.00  0.00    +0.000 C 
ATOM     21  O   UNL     1       9.781  13.882  17.952  0.00  0.00    +0.000 OA
ENDBRANCH  14  21
BRANCH  18  22
ATOM     22  O   UNL     1       8.407  13.995  22.656  0.00  0.00    +0.000 OA
ATOM     23  C   UNL     1       8.857  15.072  23.460  0.00  0.00    +0.000 C 
ENDBRANCH  18  22
BRANCH  19  24
ATOM     24  O   UNL     1      10.409  13.329  20.700  0.00  0.00    +0.000 OA
ATOM     25  C   UNL     1      10.595  11.923  20.710  0.00  0.00    +0.000 C 
ENDBRANCH  19  24
ENDBRANCH   1  16
BRANCH   6  26
ATOM     26  C   UNL     1       1.228  14.722  19.899  0.00  0.00    +0.000 A 
ATOM     27  C   UNL     1       0.825  14.180  18.658  0.00  0.00    +0.000 A 
ATOM     28  C   UNL     1       0.122  12.989  18.588  0.00  0.00    +0.000 A 
ATOM     29  C   UNL     1      -0.111  12.266  19.748  0.00  0.00    +0.000 A 
ATOM     30  C   UNL     1       0.330  12.736  20.997  0.00  0.00    +0.000 A 
ATOM     31  C   UNL     1       0.942  14.009  21.083  0.00  0.00    +0.000 A 
BRANCH  30  32
ATOM     32  O   UNL     1       0.146  11.992  22.136  0.00  0.00    +0.000 OA
ATOM     33  C   UNL     1      -0.835  10.961  22.084  0.00  0.00    +0.000 C 
ENDBRANCH  30  32
BRANCH  31  34
ATOM     34  O   UNL     1       1.319  14.642  22.247  0.00  0.00    +0.000 OA
ATOM     35  C   UNL     1       0.315  15.328  23.000  0.00  0.00    +0.000 C 
ENDBRANCH  31  34
ENDBRANCH   6  26
BRANCH   8  36
ATOM     36  O   UNL     1      -0.701  17.142  20.499  0.00  0.00    +0.000 OA
ATOM     37  H   UNL     1      -1.512  17.663  20.630  0.00  0.00    +0.000 HD
ENDBRANCH   8  36
TORSDOF 8
ENDMDL
MODEL 5
REMARK VINA RESULT:      -6.3      1.452      1.839
REMARK  Name = 
REMARK  13 active torsions:
REMARK  status: ('A' for Active; 'I' for Inactive)
REMARK    1  A    between atoms: C_1  and  O_2
REMARK    2  A    between atoms: O_2  and  C_3
REMARK    3  A    between atoms: C_5  and  C_6
REMARK    4  A    between atoms: C_11  and  C_12
REMARK    5  A    between atoms: C_16  and  O_17
REMARK    6  A    between atoms: O_17  and  C_18
REMARK    7  A    between atoms: C_19  and  O_20
REMARK    8  A    between atoms: O_20  and  C_21
REMARK    9  A    between atoms: C_23  and  O_24
REMARK   10  A    between atoms: C_31  and  O_32
REMARK   11  A    between atoms: O_32  and  C_33
REMARK   12  A    between atoms: C_34  and  O_35
REMARK   13  A    between atoms: O_35  and  C_36
REMARK                            x       y       z     vdW  Elec       q    Type
REMARK                         _______ _______ _______ _____ _____    ______ ____
ROOT
ATOM      1  C   UNL     1       1.062   8.905  20.244  0.00  0.00    +0.000 A 
ATOM      2  N   UNL     1       0.230   8.897  21.343  0.00  0.00    +0.000 NA
ATOM      3  C   UNL     1      -0.236  10.128  21.419  0.00  0.00    +0.000 A 
ATOM      4  N   UNL     1       0.283  10.842  20.370  0.00  0.00    +0.000 N 
ATOM      5  N   UNL     1       1.089  10.086  19.599  0.00  0.00    +0.000 NA
ATOM      6  C   UNL     1      -0.027  12.244  20.086  0.00  0.00    +0.000 C 
ATOM      7  C   UNL     1      -1.125  12.758  21.022  0.00  0.00    +0.000 C 
ATOM      8  C   UNL     1      -1.672  13.979  20.918  0.00  0.00    +0.000 C 
ATOM      9  C   UNL     1      -2.469  14.675  21.977  0.00  0.00    +0.000 C 
ATOM     10  C   UNL     1      -2.723  13.916  23.268  0.00  0.00    +0.000 C 
ATOM     11  C   UNL     1      -2.293  12.461  23.329  0.00  0.00    +0.000 C 
ATOM     12  C   UNL     1      -1.444  11.902  22.194  0.00  0.00    +0.000 C 
ATOM     13  N   UNL     1      -1.041  10.680  22.359  0.00  0.00    +0.000 NA
ENDROOT
BRANCH   1  16
ATOM     14  C   UNL     1       3.376   6.619  18.265  0.00  0.00    +0.000 A 
ATOM     15  C   UNL     1       2.574   7.725  18.623  0.00  0.00    +0.000 A 
ATOM     16  C   UNL     1       1.823   7.729  19.803  0.00  0.00    +0.000 A 
ATOM     17  C   UNL     1       1.828   6.566  20.580  0.00  0.00    +0.000 A 
ATOM     18  C   UNL     1       2.560   5.424  20.212  0.00  0.00    +0.000 A 
ATOM     19  C   UNL     1       3.353   5.439  19.045  0.00  0.00    +0.000 A 
BRANCH  14  21
ATOM     20  C   UNL     1       5.529   6.951  17.328  0.00  0.00    +0.000 C 
ATOM     21  O   UNL     1       4.151   6.644  17.131  0.00  0.00    +0.000 OA
ENDBRANCH  14  21
BRANCH  18  22
ATOM     22  O   UNL     1       2.381   4.407  21.117  0.00  0.00    +0.000 OA
ATOM     23  C   UNL     1       1.319   3.485  20.943  0.00  0.00    +0.000 C 
ENDBRANCH  18  22
BRANCH  19  24
ATOM     24  O   UNL     1       3.992   4.267  18.737  0.00  0.00    +0.000 OA
ATOM     25  C   UNL     1       3.421   3.338  17.831  0.00  0.00    +0.000 C 
ENDBRANCH  19  24
ENDBRANCH   1  16
BRANCH   6  26
ATOM     26  C   UNL     1       1.246  13.108  20.228  0.00  0.00    +0.000 A 
ATOM     27  C   UNL     1       1.499  13.730  21.472  0.00  0.00    +0.000 A 
ATOM     28  C   UNL     1       2.568  14.593  21.640  0.00  0.00    +0.000 A 
ATOM     29  C   UNL     1       3.463  14.781  20.598  0.00  0.00    +0.000 A 
ATOM     30  C   UNL     1       3.286  14.131  19.364  0.00  0.00    +0.000 A 
ATOM     31  C   UNL     1       2.129  13.343  19.154  0.00  0.00    +0.000 A 
BRANCH  30  32
ATOM     32  O   UNL     1       4.203  14.275  18.353  0.00  0.00    +0.000 OA
ATOM     33  C   UNL     1       4.880  15.525  18.267  0.00  0.00    +0.000 C 
ENDBRANCH  30  32
BRANCH  31  34
ATOM     34  O   UNL     1       1.771  12.744  17.966  0.00  0.00    +0.000 OA
ATOM     35  C   UNL     1       2.544  11.632  17.508  0.00  0.00    +0.000 C 
ENDBRANCH  31  34
ENDBRANCH   6  26
BRANCH   8  36
ATOM     36  O   UNL     1      -1.414  14.743  19.790  0.00  0.00    +0.000 OA
ATOM     37  H   UNL     1      -0.978  14.195  19.115  0.00  0.00    +0.000 HD
ENDBRANCH   8  36
TORSDOF 8
ENDMDL
MODEL 6
REMARK VINA RESULT:      -6.2      0.463      2.115
REMARK  Name = 
REMARK  13 active torsions:
REMARK  status: ('A' for Active; 'I' for Inactive)
REMARK    1  A    between atoms: C_1  and  O_2
REMARK    2  A    between atoms: O_2  and  C_3
REMARK    3  A    between atoms: C_5  and  C_6
REMARK    4  A    between atoms: C_11  and  C_12
REMARK    5  A    between atoms: C_16  and  O_17
REMARK    6  A    between atoms: O_17  and  C_18
REMARK    7  A    between atoms: C_19  and  O_20
REMARK    8  A    between atoms: O_20  and  C_21
REMARK    9  A    between atoms: C_23  and  O_24
REMARK   10  A    between atoms: C_31  and  O_32
REMARK   11  A    between atoms: O_32  and  C_33
REMARK   12  A    between atoms: C_34  and  O_35
REMARK   13  A    between atoms: O_35  and  C_36
REMARK                            x       y       z     vdW  Elec       q    Type
REMARK                         _______ _______ _______ _____ _____    ______ ____
ROOT
ATOM      1  C   UNL     1       1.293   9.714  19.413  0.00  0.00    +0.000 A 
ATOM      2  N   UNL     1       0.093   9.902  20.067  0.00  0.00    +0.000 NA
ATOM      3  C   UNL     1      -0.110  11.204  20.025  0.00  0.00    +0.000 A 
ATOM      4  N   UNL     1       0.930  11.773  19.336  0.00  0.00    +0.000 N 
ATOM      5  N   UNL     1       1.819  10.850  18.918  0.00  0.00    +0.000 NA
ATOM      6  C   UNL     1       1.049  13.201  19.043  0.00  0.00    +0.000 C 
ATOM      7  C   UNL     1      -0.216  13.951  19.473  0.00  0.00    +0.000 C 
ATOM      8  C   UNL     1      -0.417  15.256  19.234  0.00  0.00    +0.000 C 
ATOM      9  C   UNL     1      -1.431  16.124  19.913  0.00  0.00    +0.000 C 
ATOM     10  C   UNL     1      -2.346  15.462  20.929  0.00  0.00    +0.000 C 
ATOM     11  C   UNL     1      -2.275  13.952  21.064  0.00  0.00    +0.000 C 
ATOM     12  C   UNL     1      -1.157  13.206  20.348  0.00  0.00    +0.000 C 
ATOM     13  N   UNL     1      -1.109  11.931  20.583  0.00  0.00    +0.000 NA
ENDROOT
BRANCH   1  16
ATOM     14  C   UNL     1       2.281   6.077  19.954  0.00  0.00    +0.000 A 
ATOM     15  C   UNL     1       1.748   7.366  20.177  0.00  0.00    +0.000 A 
ATOM     16  C   UNL     1       1.922   8.397  19.249  0.00  0.00    +0.000 A 
ATOM     17  C   UNL     1       2.713   8.134  18.127  0.00  0.00    +0.000 A 
ATOM     18  C   UNL     1       3.316   6.882  17.913  0.00  0.00    +0.000 A 
ATOM     19  C   UNL     1       3.101   5.829  18.828  0.00  0.00    +0.000 A 
BRANCH  14  21
ATOM     20  C   UNL     1       1.063   4.109  20.470  0.00  0.00    +0.000 C 
ATOM     21  O   UNL     1       2.061   5.055  20.846  0.00  0.00    +0.000 OA
ENDBRANCH  14  21
BRANCH  18  22
ATOM     22  O   UNL     1       4.063   6.881  16.761  0.00  0.00    +0.000 OA
ATOM     23  C   UNL     1       5.474   7.001  16.834  0.00  0.00    +0.000 C 
ENDBRANCH  18  22
BRANCH  19  24
ATOM     24  O   UNL     1       3.767   4.661  18.568  0.00  0.00    +0.000 OA
ATOM     25  C   UNL     1       4.984   4.350  19.225  0.00  0.00    +0.000 C 
ENDBRANCH  19  24
ENDBRANCH   1  16
BRANCH   6  26
ATOM     26  C   UNL     1       2.288  13.788  19.757  0.00  0.00    +0.000 A 
ATOM     27  C   UNL     1       2.331  13.745  21.169  0.00  0.00    +0.000 A 
ATOM     28  C   UNL     1       3.365  14.337  21.874  0.00  0.00    +0.000 A 
ATOM     29  C   UNL     1       4.427  14.901  21.184  0.00  0.00    +0.000 A 
ATOM     30  C   UNL     1       4.456  14.907  19.779  0.00  0.00    +0.000 A 
ATOM     31  C   UNL     1       3.344  14.410  19.058  0.00  0.00    +0.000 A 
BRANCH  30  32
ATOM     32  O   UNL     1       5.534  15.417  19.098  0.00  0.00    +0.000 OA
ATOM     33  C   UNL     1       6.020  16.688  19.516  0.00  0.00    +0.000 C 
ENDBRANCH  30  32
BRANCH  31  34
ATOM     34  O   UNL     1       3.187  14.457  17.690  0.00  0.00    +0.000 OA
ATOM     35  C   UNL     1       3.362  15.713  17.031  0.00  0.00    +0.000 C 
ENDBRANCH  31  34
ENDBRANCH   6  26
BRANCH   8  36
ATOM     36  O   UNL     1       0.433  15.925  18.368  0.00  0.00    +0.000 OA
ATOM     37  H   UNL     1       1.187  16.290  18.864  0.00  0.00    +0.000 HD
ENDBRANCH   8  36
TORSDOF 8
ENDMDL
MODEL 7
REMARK VINA RESULT:      -6.1      1.651      2.418
REMARK  Name = 
REMARK  13 active torsions:
REMARK  status: ('A' for Active; 'I' for Inactive)
REMARK    1  A    between atoms: C_1  and  O_2
REMARK    2  A    between atoms: O_2  and  C_3
REMARK    3  A    between atoms: C_5  and  C_6
REMARK    4  A    between atoms: C_11  and  C_12
REMARK    5  A    between atoms: C_16  and  O_17
REMARK    6  A    between atoms: O_17  and  C_18
REMARK    7  A    between atoms: C_19  and  O_20
REMARK    8  A    between atoms: O_20  and  C_21
REMARK    9  A    between atoms: C_23  and  O_24
REMARK   10  A    between atoms: C_31  and  O_32
REMARK   11  A    between atoms: O_32  and  C_33
REMARK   12  A    between atoms: C_34  and  O_35
REMARK   13  A    between atoms: O_35  and  C_36
REMARK                            x       y       z     vdW  Elec       q    Type
REMARK                         _______ _______ _______ _____ _____    ______ ____
ROOT
ATOM      1  C   UNL     1       0.930   8.776  20.410  0.00  0.00    +0.000 A 
ATOM      2  N   UNL     1       0.301   8.777  21.637  0.00  0.00    +0.000 NA
ATOM      3  C   UNL     1      -0.266   9.965  21.721  0.00  0.00    +0.000 A 
ATOM      4  N   UNL     1      -0.005  10.641  20.557  0.00  0.00    +0.000 N 
ATOM      5  N   UNL     1       0.730   9.903  19.702  0.00  0.00    +0.000 NA
ATOM      6  C   UNL     1      -0.497  11.985  20.250  0.00  0.00    +0.000 C 
ATOM      7  C   UNL     1      -1.467  12.469  21.333  0.00  0.00    +0.000 C 
ATOM      8  C   UNL     1      -2.142  13.626  21.255  0.00  0.00    +0.000 C 
ATOM      9  C   UNL     1      -2.814  14.326  22.396  0.00  0.00    +0.000 C 
ATOM     10  C   UNL     1      -2.769  13.646  23.753  0.00  0.00    +0.000 C 
ATOM     11  C   UNL     1      -2.192  12.243  23.822  0.00  0.00    +0.000 C 
ATOM     12  C   UNL     1      -1.496  11.679  22.591  0.00  0.00    +0.000 C 
ATOM     13  N   UNL     1      -0.951  10.513  22.754  0.00  0.00    +0.000 NA
ENDROOT
BRANCH   1  16
ATOM     14  C   UNL     1       3.277   6.640  18.307  0.00  0.00    +0.000 A 
ATOM     15  C   UNL     1       2.448   7.706  18.720  0.00  0.00    +0.000 A 
ATOM     16  C   UNL     1       1.719   7.642  19.912  0.00  0.00    +0.000 A 
ATOM     17  C   UNL     1       1.774   6.452  20.643  0.00  0.00    +0.000 A 
ATOM     18  C   UNL     1       2.535   5.348  20.221  0.00  0.00    +0.000 A 
ATOM     19  C   UNL     1       3.305   5.431  19.041  0.00  0.00    +0.000 A 
BRANCH  14  21
ATOM     20  C   UNL     1       5.421   6.985  17.352  0.00  0.00    +0.000 C 
ATOM     21  O   UNL     1       4.031   6.732  17.161  0.00  0.00    +0.000 OA
ENDBRANCH  14  21
BRANCH  18  22
ATOM     22  O   UNL     1       2.403   4.292  21.089  0.00  0.00    +0.000 OA
ATOM     23  C   UNL     1       1.308   3.402  20.958  0.00  0.00    +0.000 C 
ENDBRANCH  18  22
BRANCH  19  24
ATOM     24  O   UNL     1       3.974   4.293  18.678  0.00  0.00    +0.000 OA
ATOM     25  C   UNL     1       3.399   3.360  17.780  0.00  0.00    +0.000 C 
ENDBRANCH  19  24
ENDBRANCH   1  16
BRANCH   6  26
ATOM     26  C   UNL     1       0.688  12.966  20.116  0.00  0.00    +0.000 A 
ATOM     27  C   UNL     1       1.687  12.952  21.116  0.00  0.00    +0.000 A 
ATOM     28  C   UNL     1       2.725  13.869  21.108  0.00  0.00    +0.000 A 
ATOM     29  C   UNL     1       2.842  14.757  20.050  0.00  0.00    +0.000 A 
ATOM     30  C   UNL     1       1.908  14.762  19.001  0.00  0.00    +0.000 A 
ATOM     31  C   UNL     1       0.782  13.907  19.069  0.00  0.00    +0.000 A 
BRANCH  30  32
ATOM     32  O   UNL     1       2.057  15.605  17.927  0.00  0.00    +0.000 OA
ATOM     33  C   UNL     1       1.982  17.003  18.188  0.00  0.00    +0.000 C 
ENDBRANCH  30  32
BRANCH  31  34
ATOM     34  O   UNL     1      -0.266  13.886  18.175  0.00  0.00    +0.000 OA
ATOM     35  C   UNL     1      -0.617  12.638  17.572  0.00  0.00    +0.000 C 
ENDBRANCH  31  34
ENDBRANCH   6  26
BRANCH   8  36
ATOM     36  O   UNL     1      -2.157  14.322  20.057  0.00  0.00    +0.000 OA
ATOM     37  H   UNL     1      -2.901  14.018  19.508  0.00  0.00    +0.000 HD
ENDBRANCH   8  36
TORSDOF 8
ENDMDL
MODEL 8
REMARK VINA RESULT:      -6.1      4.497      7.658
REMARK  Name = 
REMARK  13 active torsions:
REMARK  status: ('A' for Active; 'I' for Inactive)
REMARK    1  A    between atoms: C_1  and  O_2
REMARK    2  A    between atoms: O_2  and  C_3
REMARK    3  A    between atoms: C_5  and  C_6
REMARK    4  A    between atoms: C_11  and  C_12
REMARK    5  A    between atoms: C_16  and  O_17
REMARK    6  A    between atoms: O_17  and  C_18
REMARK    7  A    between atoms: C_19  and  O_20
REMARK    8  A    between atoms: O_20  and  C_21
REMARK    9  A    between atoms: C_23  and  O_24
REMARK   10  A    between atoms: C_31  and  O_32
REMARK   11  A    between atoms: O_32  and  C_33
REMARK   12  A    between atoms: C_34  and  O_35
REMARK   13  A    between atoms: O_35  and  C_36
REMARK                            x       y       z     vdW  Elec       q    Type
REMARK                         _______ _______ _______ _____ _____    ______ ____
ROOT
ATOM      1  C   UNL     1       1.949  13.518  19.780  0.00  0.00    +0.000 A 
ATOM      2  N   UNL     1       1.913  12.376  19.007  0.00  0.00    +0.000 NA
ATOM      3  C   UNL     1       0.631  12.087  18.897  0.00  0.00    +0.000 A 
ATOM      4  N   UNL     1      -0.079  13.052  19.564  0.00  0.00    +0.000 N 
ATOM      5  N   UNL     1       0.729  13.981  20.111  0.00  0.00    +0.000 NA
ATOM      6  C   UNL     1      -1.540  13.103  19.640  0.00  0.00    +0.000 C 
ATOM      7  C   UNL     1      -2.169  12.027  18.750  0.00  0.00    +0.000 C 
ATOM      8  C   UNL     1      -3.491  11.910  18.555  0.00  0.00    +0.000 C 
ATOM      9  C   UNL     1      -4.193  10.707  18.007  0.00  0.00    +0.000 C 
ATOM     10  C   UNL     1      -3.330   9.528  17.590  0.00  0.00    +0.000 C 
ATOM     11  C   UNL     1      -1.824   9.714  17.608  0.00  0.00    +0.000 C 
ATOM     12  C   UNL     1      -1.251  10.975  18.241  0.00  0.00    +0.000 C 
ATOM     13  N   UNL     1       0.044  11.021  18.299  0.00  0.00    +0.000 NA
ENDROOT
BRANCH   1  16
ATOM     14  C   UNL     1       4.804  14.905  21.882  0.00  0.00    +0.000 A 
ATOM     15  C   UNL     1       3.556  14.353  21.519  0.00  0.00    +0.000 A 
ATOM     16  C   UNL     1       3.197  14.180  20.178  0.00  0.00    +0.000 A 
ATOM     17  C   UNL     1       4.084  14.649  19.204  0.00  0.00    +0.000 A 
ATOM     18  C   UNL     1       5.302  15.267  19.536  0.00  0.00    +0.000 A 
ATOM     19  C   UNL     1       5.681  15.399  20.888  0.00  0.00    +0.000 A 
BRANCH  14  21
ATOM     20  C   UNL     1       5.798  13.878  23.774  0.00  0.00    +0.000 C 
ATOM     21  O   UNL     1       5.169  15.022  23.201  0.00  0.00    +0.000 OA
ENDBRANCH  14  21
BRANCH  18  22
ATOM     22  O   UNL     1       5.979  15.665  18.409  0.00  0.00    +0.000 OA
ATOM     23  C   UNL     1       6.949  14.808  17.829  0.00  0.00    +0.000 C 
ENDBRANCH  18  22
BRANCH  19  24
ATOM     24  O   UNL     1       6.859  16.058  21.121  0.00  0.00    +0.000 OA
ATOM     25  C   UNL     1       6.889  17.465  21.296  0.00  0.00    +0.000 C 
ENDBRANCH  19  24
ENDBRANCH   1  16
BRANCH   6  26
ATOM     26  C   UNL     1      -2.000  12.924  21.104  0.00  0.00    +0.000 A 
ATOM     27  C   UNL     1      -1.542  11.793  21.817  0.00  0.00    +0.000 A 
ATOM     28  C   UNL     1      -1.991  11.521  23.098  0.00  0.00    +0.000 A 
ATOM     29  C   UNL     1      -2.834  12.422  23.732  0.00  0.00    +0.000 A 
ATOM     30  C   UNL     1      -3.262  13.592  23.083  0.00  0.00    +0.000 A 
ATOM     31  C   UNL     1      -2.900  13.810  21.732  0.00  0.00    +0.000 A 
BRANCH  30  32
ATOM     32  O   UNL     1      -4.052  14.509  23.731  0.00  0.00    +0.000 OA
ATOM     33  C   UNL     1      -3.448  15.252  24.785  0.00  0.00    +0.000 C 
ENDBRANCH  30  32
BRANCH  31  34
ATOM     34  O   UNL     1      -3.338  14.850  20.941  0.00  0.00    +0.000 OA
ATOM     35  C   UNL     1      -2.749  16.139  21.130  0.00  0.00    +0.000 C 
ENDBRANCH  31  34
ENDBRANCH   6  26
BRANCH   8  36
ATOM     36  O   UNL     1      -4.331  12.927  18.981  0.00  0.00    +0.000 OA
ATOM     37  H   UNL     1      -5.156  12.548  19.330  0.00  0.00    +0.000 HD
ENDBRANCH   8  36
TORSDOF 8
ENDMDL
MODEL 9
REMARK VINA RESULT:      -6.1      4.604      8.914
REMARK  Name = 
REMARK  13 active torsions:
REMARK  status: ('A' for Active; 'I' for Inactive)
REMARK    1  A    between atoms: C_1  and  O_2
REMARK    2  A    between atoms: O_2  and  C_3
REMARK    3  A    between atoms: C_5  and  C_6
REMARK    4  A    between atoms: C_11  and  C_12
REMARK    5  A    between atoms: C_16  and  O_17
REMARK    6  A    between atoms: O_17  and  C_18
REMARK    7  A    between atoms: C_19  and  O_20
REMARK    8  A    between atoms: O_20  and  C_21
REMARK    9  A    between atoms: C_23  and  O_24
REMARK   10  A    between atoms: C_31  and  O_32
REMARK   11  A    between atoms: O_32  and  C_33
REMARK   12  A    between atoms: C_34  and  O_35
REMARK   13  A    between atoms: O_35  and  C_36
REMARK                            x       y       z     vdW  Elec       q    Type
REMARK                         _______ _______ _______ _____ _____    ______ ____
ROOT
ATOM      1  C   UNL     1       5.072  15.497  19.315  0.00  0.00    +0.000 A 
ATOM      2  N   UNL     1       5.524  16.798  19.391  0.00  0.00    +0.000 NA
ATOM      3  C   UNL     1       6.769  16.746  18.958  0.00  0.00    +0.000 A 
ATOM      4  N   UNL     1       7.039  15.449  18.604  0.00  0.00    +0.000 N 
ATOM      5  N   UNL     1       5.975  14.644  18.797  0.00  0.00    +0.000 NA
ATOM      6  C   UNL     1       8.309  14.990  18.040  0.00  0.00    +0.000 C 
ATOM      7  C   UNL     1       9.236  16.176  17.755  0.00  0.00    +0.000 C 
ATOM      8  C   UNL     1      10.426  16.053  17.146  0.00  0.00    +0.000 C 
ATOM      9  C   UNL     1      11.521  17.073  17.151  0.00  0.00    +0.000 C 
ATOM     10  C   UNL     1      11.249  18.385  17.867  0.00  0.00    +0.000 C 
ATOM     11  C   UNL     1       9.842  18.628  18.383  0.00  0.00    +0.000 C 
ATOM     12  C   UNL     1       8.844  17.477  18.356  0.00  0.00    +0.000 C 
ATOM     13  N   UNL     1       7.693  17.735  18.895  0.00  0.00    +0.000 NA
ENDROOT
BRANCH   1  16
ATOM     14  C   UNL     1       1.651  13.829  19.384  0.00  0.00    +0.000 A 
ATOM     15  C   UNL     1       2.904  14.291  18.927  0.00  0.00    +0.000 A 
ATOM     16  C   UNL     1       3.725  15.089  19.731  0.00  0.00    +0.000 A 
ATOM     17  C   UNL     1       3.227  15.482  20.977  0.00  0.00    +0.000 A 
ATOM     18  C   UNL     1       1.953  15.096  21.430  0.00  0.00    +0.000 A 
ATOM     19  C   UNL     1       1.146  14.254  20.635  0.00  0.00    +0.000 A 
BRANCH  14  21
ATOM     20  C   UNL     1       1.105  11.604  18.767  0.00  0.00    +0.000 C 
ATOM     21  O   UNL     1       0.875  13.002  18.607  0.00  0.00    +0.000 OA
ENDBRANCH  14  21
BRANCH  18  22
ATOM     22  O   UNL     1       1.682  15.631  22.665  0.00  0.00    +0.000 OA
ATOM     23  C   UNL     1       1.541  17.034  22.812  0.00  0.00    +0.000 C 
ENDBRANCH  18  22
BRANCH  19  24
ATOM     24  O   UNL     1      -0.098  13.970  21.132  0.00  0.00    +0.000 OA
ATOM     25  C   UNL     1      -0.321  12.826  21.939  0.00  0.00    +0.000 C 
ENDBRANCH  19  24
ENDBRANCH   1  16
BRANCH   6  26
ATOM     26  C   UNL     1       8.990  13.997  19.006  0.00  0.00    +0.000 A 
ATOM     27  C   UNL     1       9.341  14.452  20.298  0.00  0.00    +0.000 A 
ATOM     28  C   UNL     1      10.040  13.644  21.179  0.00  0.00    +0.000 A 
ATOM     29  C   UNL     1      10.319  12.332  20.827  0.00  0.00    +0.000 A 
ATOM     30  C   UNL     1       9.931  11.819  19.578  0.00  0.00    +0.000 A 
ATOM     31  C   UNL     1       9.324  12.679  18.631  0.00  0.00    +0.000 A 
BRANCH  30  32
ATOM     32  O   UNL     1      10.160  10.505  19.254  0.00  0.00    +0.000 OA
ATOM     33  C   UNL     1       9.031   9.638  19.226  0.00  0.00    +0.000 C 
ENDBRANCH  30  32
BRANCH  31  34
ATOM     34  O   UNL     1       8.997  12.343  17.336  0.00  0.00    +0.000 OA
ATOM     35  C   UNL     1       7.633  12.031  17.041  0.00  0.00    +0.000 C 
ENDBRANCH  31  34
ENDBRANCH   6  26
BRANCH   8  36
ATOM     36  O   UNL     1      10.754  14.852  16.537  0.00  0.00    +0.000 OA
ATOM     37  H   UNL     1      11.593  14.947  16.054  0.00  0.00    +0.000 HD
ENDBRANCH   8  36
TORSDOF 8
ENDMDL
