MODEL 1
REMARK VINA RESULT:      -8.2      0.000      0.000
REMARK  Name = 
REMARK  3 active torsions:
REMARK  status: ('A' for Active; 'I' for Inactive)
REMARK    1  A    between atoms: C_2  and  C_4
REMARK    2  A    between atoms: C_10  and  C_11
REMARK    3  A    between atoms: C_14  and  C_15
REMARK                            x       y       z     vdW  Elec       q    Type
REMARK                         _______ _______ _______ _____ _____    ______ ____
ROOT
ATOM      1  C   UNL     1       3.552   3.795  17.746  0.00  0.00    +0.000 A 
ATOM      2  C   UNL     1       4.576   3.477  16.835  0.00  0.00    +0.000 A 
ATOM      3  C   UNL     1       5.321   4.480  16.209  0.00  0.00    +0.000 A 
ATOM      4  C   UNL     1       5.074   5.833  16.463  0.00  0.00    +0.000 A 
ATOM      5  C   UNL     1       4.052   6.123  17.368  0.00  0.00    +0.000 A 
ATOM      6  N   UNL     1       3.550   7.308  17.831  0.00  0.00    +0.000 N 
ATOM      7  C   UNL     1       2.548   7.050  18.740  0.00  0.00    +0.000 A 
ATOM      8  N   UNL     1       2.370   5.748  18.856  0.00  0.00    +0.000 NA
ATOM      9  C   UNL     1       3.296   5.152  18.016  0.00  0.00    +0.000 A 
ATOM     10  H   UNL     1       3.857   8.233  17.562  0.00  0.00    +0.000 HD
ENDROOT
BRANCH   7  11
ATOM     11  C   UNL     1       1.817   8.097  19.453  0.00  0.00    +0.000 A 
ATOM     12  C   UNL     1       1.546   7.961  20.822  0.00  0.00    +0.000 A 
ATOM     13  C   UNL     1       0.868   8.968  21.520  0.00  0.00    +0.000 A 
ATOM     14  C   UNL     1       0.447  10.135  20.865  0.00  0.00    +0.000 A 
ATOM     15  C   UNL     1       0.699  10.256  19.491  0.00  0.00    +0.000 A 
ATOM     16  C   UNL     1       1.379   9.255  18.807  0.00  0.00    +0.000 A 
ATOM     17  F   UNL     1       1.611   9.434  17.496  0.00  0.00    +0.000 F 
BRANCH  14  18
ATOM     18  C   UNL     1      -0.277  11.216  21.629  0.00  0.00    +0.000 C 
ATOM     19  C   UNL     1      -0.943  10.703  22.898  0.00  0.00    +0.000 C 
ATOM     20  C   UNL     1      -1.952  11.793  23.208  0.00  0.00    +0.000 C 
ATOM     21  C   UNL     1      -2.323  12.376  21.852  0.00  0.00    +0.000 C 
ATOM     22  N   UNL     1      -1.403  11.789  20.881  0.00  0.00    +0.000 NA
ATOM     23  H   UNL     1      -1.070  12.481  20.212  0.00  0.00    +0.000 HD
ENDBRANCH  14  18
ENDBRANCH   7  11
BRANCH   1  25
ATOM     24  N   UNL     1       1.409   2.816  18.347  0.00  0.00    +0.000 N 
ATOM     25  C   UNL     1       2.771   2.710  18.384  0.00  0.00    +0.000 C 
ATOM     26  O   UNL     1       3.317   1.753  18.916  0.00  0.00    +0.000 OA
ATOM     27  H   UNL     1       0.846   2.085  18.754  0.00  0.00    +0.000 HD
ATOM     28  H   UNL     1       0.959   3.606  17.889  0.00  0.00    +0.000 HD
ENDBRANCH   1  25
TORSDOF 3
ENDMDL
MODEL 2
REMARK VINA RESULT:      -8.2      1.643      2.540
REMARK  Name = 
REMARK  3 active torsions:
REMARK  status: ('A' for Active; 'I' for Inactive)
REMARK    1  A    between atoms: C_2  and  C_4
REMARK    2  A    between atoms: C_10  and  C_11
REMARK    3  A    between atoms: C_14  and  C_15
REMARK                            x       y       z     vdW  Elec       q    Type
REMARK                         _______ _______ _______ _____ _____    ______ ____
ROOT
ATOM      1  C   UNL     1       4.841   5.229  16.768  0.00  0.00    +0.000 A 
ATOM      2  C   UNL     1       4.970   3.838  16.599  0.00  0.00    +0.000 A 
ATOM      3  C   UNL     1       4.154   2.947  17.301  0.00  0.00    +0.000 A 
ATOM      4  C   UNL     1       3.184   3.406  18.198  0.00  0.00    +0.000 A 
ATOM      5  C   UNL     1       3.077   4.789  18.350  0.00  0.00    +0.000 A 
ATOM      6  N   UNL     1       2.261   5.562  19.130  0.00  0.00    +0.000 N 
ATOM      7  C   UNL     1       2.538   6.891  18.896  0.00  0.00    +0.000 A 
ATOM      8  N   UNL     1       3.518   6.998  18.017  0.00  0.00    +0.000 NA
ATOM      9  C   UNL     1       3.865   5.705  17.663  0.00  0.00    +0.000 A 
ATOM     10  H   UNL     1       1.560   5.228  19.777  0.00  0.00    +0.000 HD
ENDROOT
BRANCH   7  11
ATOM     11  C   UNL     1       1.824   7.990  19.543  0.00  0.00    +0.000 A 
ATOM     12  C   UNL     1       1.525   7.929  20.911  0.00  0.00    +0.000 A 
ATOM     13  C   UNL     1       0.862   8.987  21.546  0.00  0.00    +0.000 A 
ATOM     14  C   UNL     1       0.488  10.133  20.828  0.00  0.00    +0.000 A 
ATOM     15  C   UNL     1       0.769  10.179  19.455  0.00  0.00    +0.000 A 
ATOM     16  C   UNL     1       1.432   9.128  18.833  0.00  0.00    +0.000 A 
ATOM     17  F   UNL     1       1.694   9.236  17.519  0.00  0.00    +0.000 F 
BRANCH  14  18
ATOM     18  C   UNL     1      -0.218  11.270  21.524  0.00  0.00    +0.000 C 
ATOM     19  C   UNL     1      -0.873  10.850  22.832  0.00  0.00    +0.000 C 
ATOM     20  C   UNL     1      -1.870  11.967  23.079  0.00  0.00    +0.000 C 
ATOM     21  C   UNL     1      -2.252  12.459  21.690  0.00  0.00    +0.000 C 
ATOM     22  N   UNL     1      -1.349  11.799  20.752  0.00  0.00    +0.000 NA
ATOM     23  H   UNL     1      -1.020  12.441  20.033  0.00  0.00    +0.000 HD
ENDBRANCH  14  18
ENDBRANCH   7  11
BRANCH   1  25
ATOM     24  N   UNL     1       7.068   6.076  16.282  0.00  0.00    +0.000 N 
ATOM     25  C   UNL     1       5.729   6.148  16.019  0.00  0.00    +0.000 C 
ATOM     26  O   UNL     1       5.288   6.933  15.191  0.00  0.00    +0.000 OA
ATOM     27  H   UNL     1       7.703   6.673  15.775  0.00  0.00    +0.000 HD
ATOM     28  H   UNL     1       7.432   5.409  16.960  0.00  0.00    +0.000 HD
ENDBRANCH   1  25
TORSDOF 3
ENDMDL
MODEL 3
REMARK VINA RESULT:      -8.1      1.491      1.883
REMARK  Name = 
REMARK  3 active torsions:
REMARK  status: ('A' for Active; 'I' for Inactive)
REMARK    1  A    between atoms: C_2  and  C_4
REMARK    2  A    between atoms: C_10  and  C_11
REMARK    3  A    between atoms: C_14  and  C_15
REMARK                            x       y       z     vdW  Elec       q    Type
REMARK                         _______ _______ _______ _____ _____    ______ ____
ROOT
ATOM      1  C   UNL     1       4.136   3.845  17.116  0.00  0.00    +0.000 A 
ATOM      2  C   UNL     1       5.231   3.647  16.255  0.00  0.00    +0.000 A 
ATOM      3  C   UNL     1       5.958   4.731  15.754  0.00  0.00    +0.000 A 
ATOM      4  C   UNL     1       5.622   6.046  16.088  0.00  0.00    +0.000 A 
ATOM      5  C   UNL     1       4.532   6.216  16.942  0.00  0.00    +0.000 A 
ATOM      6  N   UNL     1       3.938   7.337  17.454  0.00  0.00    +0.000 N 
ATOM      7  C   UNL     1       2.896   6.961  18.273  0.00  0.00    +0.000 A 
ATOM      8  N   UNL     1       2.782   5.646  18.283  0.00  0.00    +0.000 NA
ATOM      9  C   UNL     1       3.790   5.163  17.466  0.00  0.00    +0.000 A 
ATOM     10  H   UNL     1       4.210   8.293  17.274  0.00  0.00    +0.000 HD
ENDROOT
BRANCH   7  11
ATOM     11  C   UNL     1       2.066   7.913  19.010  0.00  0.00    +0.000 A 
ATOM     12  C   UNL     1       1.668   9.115  18.409  0.00  0.00    +0.000 A 
ATOM     13  C   UNL     1       0.853  10.023  19.097  0.00  0.00    +0.000 A 
ATOM     14  C   UNL     1       0.414   9.748  20.400  0.00  0.00    +0.000 A 
ATOM     15  C   UNL     1       0.835   8.555  21.007  0.00  0.00    +0.000 A 
ATOM     16  C   UNL     1       1.638   7.656  20.315  0.00  0.00    +0.000 A 
ATOM     17  F   UNL     1       1.993   6.519  20.938  0.00  0.00    +0.000 F 
BRANCH  14  18
ATOM     18  C   UNL     1      -0.469  10.730  21.129  0.00  0.00    +0.000 C 
ATOM     19  C   UNL     1      -1.267  11.622  20.189  0.00  0.00    +0.000 C 
ATOM     20  C   UNL     1      -1.673  12.775  21.088  0.00  0.00    +0.000 C 
ATOM     21  C   UNL     1      -0.558  12.872  22.121  0.00  0.00    +0.000 C 
ATOM     22  N   UNL     1       0.290  11.700  21.928  0.00  0.00    +0.000 NA
ATOM     23  H   UNL     1       0.569  11.288  22.817  0.00  0.00    +0.000 HD
ENDBRANCH  14  18
ENDBRANCH   7  11
BRANCH   1  25
ATOM     24  N   UNL     1       4.031   1.822  18.461  0.00  0.00    +0.000 N 
ATOM     25  C   UNL     1       3.376   2.677  17.621  0.00  0.00    +0.000 C 
ATOM     26  O   UNL     1       2.209   2.488  17.309  0.00  0.00    +0.000 OA
ATOM     27  H   UNL     1       3.538   1.028  18.840  0.00  0.00    +0.000 HD
ATOM     28  H   UNL     1       4.997   1.993  18.731  0.00  0.00    +0.000 HD
ENDBRANCH   1  25
TORSDOF 3
ENDMDL
MODEL 4
REMARK VINA RESULT:      -8.0      3.294      8.410
REMARK  Name = 
REMARK  3 active torsions:
REMARK  status: ('A' for Active; 'I' for Inactive)
REMARK    1  A    between atoms: C_2  and  C_4
REMARK    2  A    between atoms: C_10  and  C_11
REMARK    3  A    between atoms: C_14  and  C_15
REMARK                            x       y       z     vdW  Elec       q    Type
REMARK                         _______ _______ _______ _____ _____    ______ ____
ROOT
ATOM      1  C   UNL     1      -0.785  11.087  20.677  0.00  0.00    +0.000 A 
ATOM      2  C   UNL     1      -1.279  11.446  21.944  0.00  0.00    +0.000 A 
ATOM      3  C   UNL     1      -0.899  10.744  23.092  0.00  0.00    +0.000 A 
ATOM      4  C   UNL     1      -0.020   9.660  23.019  0.00  0.00    +0.000 A 
ATOM      5  C   UNL     1       0.455   9.322  21.751  0.00  0.00    +0.000 A 
ATOM      6  N   UNL     1       1.302   8.336  21.325  0.00  0.00    +0.000 N 
ATOM      7  C   UNL     1       1.470   8.443  19.962  0.00  0.00    +0.000 A 
ATOM      8  N   UNL     1       0.742   9.440  19.496  0.00  0.00    +0.000 NA
ATOM      9  C   UNL     1       0.106  10.002  20.590  0.00  0.00    +0.000 A 
ATOM     10  H   UNL     1       1.745   7.636  21.905  0.00  0.00    +0.000 HD
ENDROOT
BRANCH   7  11
ATOM     11  C   UNL     1       2.341   7.562  19.185  0.00  0.00    +0.000 A 
ATOM     12  C   UNL     1       2.941   8.025  18.006  0.00  0.00    +0.000 A 
ATOM     13  C   UNL     1       3.796   7.197  17.267  0.00  0.00    +0.000 A 
ATOM     14  C   UNL     1       4.073   5.889  17.692  0.00  0.00    +0.000 A 
ATOM     15  C   UNL     1       3.451   5.423  18.859  0.00  0.00    +0.000 A 
ATOM     16  C   UNL     1       2.609   6.253  19.591  0.00  0.00    +0.000 A 
ATOM     17  F   UNL     1       2.058   5.759  20.713  0.00  0.00    +0.000 F 
BRANCH  14  18
ATOM     18  C   UNL     1       5.001   5.010  16.891  0.00  0.00    +0.000 C 
ATOM     19  C   UNL     1       6.360   4.826  17.549  0.00  0.00    +0.000 C 
ATOM     20  C   UNL     1       7.226   4.347  16.398  0.00  0.00    +0.000 C 
ATOM     21  C   UNL     1       6.607   4.978  15.159  0.00  0.00    +0.000 C 
ATOM     22  N   UNL     1       5.348   5.584  15.585  0.00  0.00    +0.000 NA
ATOM     23  H   UNL     1       4.603   5.414  14.912  0.00  0.00    +0.000 HD
ENDBRANCH  14  18
ENDBRANCH   7  11
BRANCH   1  25
ATOM     24  N   UNL     1      -0.330  11.926  18.440  0.00  0.00    +0.000 N 
ATOM     25  C   UNL     1      -1.216  11.843  19.478  0.00  0.00    +0.000 C 
ATOM     26  O   UNL     1      -2.320  12.365  19.410  0.00  0.00    +0.000 OA
ATOM     27  H   UNL     1      -0.599  12.415  17.600  0.00  0.00    +0.000 HD
ATOM     28  H   UNL     1       0.581  11.475  18.495  0.00  0.00    +0.000 HD
ENDBRANCH   1  25
TORSDOF 3
ENDMDL
MODEL 5
REMARK VINA RESULT:      -8.0      0.971      1.379
REMARK  Name = 
REMARK  3 active torsions:
REMARK  status: ('A' for Active; 'I' for Inactive)
REMARK    1  A    between atoms: C_2  and  C_4
REMARK    2  A    between atoms: C_10  and  C_11
REMARK    3  A    between atoms: C_14  and  C_15
REMARK                            x       y       z     vdW  Elec       q    Type
REMARK                         _______ _______ _______ _____ _____    ______ ____
ROOT
ATOM      1  C   UNL     1       3.524   3.987  17.480  0.00  0.00    +0.000 A 
ATOM      2  C   UNL     1       4.569   3.665  16.594  0.00  0.00    +0.000 A 
ATOM      3  C   UNL     1       5.369   4.663  16.030  0.00  0.00    +0.000 A 
ATOM      4  C   UNL     1       5.156   6.014  16.322  0.00  0.00    +0.000 A 
ATOM      5  C   UNL     1       4.113   6.307  17.201  0.00  0.00    +0.000 A 
ATOM      6  N   UNL     1       3.634   7.493  17.687  0.00  0.00    +0.000 N 
ATOM      7  C   UNL     1       2.592   7.239  18.552  0.00  0.00    +0.000 A 
ATOM      8  N   UNL     1       2.368   5.939  18.616  0.00  0.00    +0.000 NA
ATOM      9  C   UNL     1       3.303   5.342  17.788  0.00  0.00    +0.000 A 
ATOM     10  H   UNL     1       3.980   8.416  17.461  0.00  0.00    +0.000 HD
ENDROOT
BRANCH   7  11
ATOM     11  C   UNL     1       1.870   8.284  19.275  0.00  0.00    +0.000 A 
ATOM     12  C   UNL     1       1.549   9.490  18.638  0.00  0.00    +0.000 A 
ATOM     13  C   UNL     1       0.837  10.489  19.314  0.00  0.00    +0.000 A 
ATOM     14  C   UNL     1       0.427  10.302  20.642  0.00  0.00    +0.000 A 
ATOM     15  C   UNL     1       0.772   9.104  21.284  0.00  0.00    +0.000 A 
ATOM     16  C   UNL     1       1.473   8.115  20.604  0.00  0.00    +0.000 A 
ATOM     17  F   UNL     1       1.758   6.979  21.262  0.00  0.00    +0.000 F 
BRANCH  14  18
ATOM     18  C   UNL     1      -0.345  11.383  21.359  0.00  0.00    +0.000 C 
ATOM     19  C   UNL     1      -0.930  10.916  22.684  0.00  0.00    +0.000 C 
ATOM     20  C   UNL     1      -2.003  11.953  22.959  0.00  0.00    +0.000 C 
ATOM     21  C   UNL     1      -2.459  12.413  21.581  0.00  0.00    +0.000 C 
ATOM     22  N   UNL     1      -1.534  11.823  20.618  0.00  0.00    +0.000 NA
ATOM     23  H   UNL     1      -1.274  12.487  19.891  0.00  0.00    +0.000 HD
ENDBRANCH  14  18
ENDBRANCH   7  11
BRANCH   1  25
ATOM     24  N   UNL     1       1.363   3.185  18.254  0.00  0.00    +0.000 N 
ATOM     25  C   UNL     1       2.686   2.908  18.052  0.00  0.00    +0.000 C 
ATOM     26  O   UNL     1       3.151   1.811  18.327  0.00  0.00    +0.000 OA
ATOM     27  H   UNL     1       0.759   2.467  18.623  0.00  0.00    +0.000 HD
ATOM     28  H   UNL     1       0.977   4.094  18.007  0.00  0.00    +0.000 HD
ENDBRANCH   1  25
TORSDOF 3
ENDMDL
MODEL 6
REMARK VINA RESULT:      -7.9      2.068      2.680
REMARK  Name = 
REMARK  3 active torsions:
REMARK  status: ('A' for Active; 'I' for Inactive)
REMARK    1  A    between atoms: C_2  and  C_4
REMARK    2  A    between atoms: C_10  and  C_11
REMARK    3  A    between atoms: C_14  and  C_15
REMARK                            x       y       z     vdW  Elec       q    Type
REMARK                         _______ _______ _______ _____ _____    ______ ____
ROOT
ATOM      1  C   UNL     1       2.785   3.131  19.780  0.00  0.00    +0.000 A 
ATOM      2  C   UNL     1       3.419   2.165  18.977  0.00  0.00    +0.000 A 
ATOM      3  C   UNL     1       3.945   2.501  17.726  0.00  0.00    +0.000 A 
ATOM      4  C   UNL     1       3.856   3.804  17.228  0.00  0.00    +0.000 A 
ATOM      5  C   UNL     1       3.221   4.743  18.043  0.00  0.00    +0.000 A 
ATOM      6  N   UNL     1       2.959   6.074  17.869  0.00  0.00    +0.000 N 
ATOM      7  C   UNL     1       2.321   6.559  18.989  0.00  0.00    +0.000 A 
ATOM      8  N   UNL     1       2.140   5.584  19.861  0.00  0.00    +0.000 NA
ATOM      9  C   UNL     1       2.694   4.448  19.295  0.00  0.00    +0.000 A 
ATOM     10  H   UNL     1       3.192   6.629  17.057  0.00  0.00    +0.000 HD
ENDROOT
BRANCH   7  11
ATOM     11  C   UNL     1       1.924   7.957  19.151  0.00  0.00    +0.000 A 
ATOM     12  C   UNL     1       2.024   8.848  18.073  0.00  0.00    +0.000 A 
ATOM     13  C   UNL     1       1.624  10.183  18.210  0.00  0.00    +0.000 A 
ATOM     14  C   UNL     1       1.111  10.656  19.427  0.00  0.00    +0.000 A 
ATOM     15  C   UNL     1       1.035   9.768  20.509  0.00  0.00    +0.000 A 
ATOM     16  C   UNL     1       1.428   8.442  20.363  0.00  0.00    +0.000 A 
ATOM     17  F   UNL     1       1.313   7.630  21.428  0.00  0.00    +0.000 F 
BRANCH  14  18
ATOM     18  C   UNL     1       0.677  12.095  19.561  0.00  0.00    +0.000 C 
ATOM     19  C   UNL     1      -0.731  12.241  20.120  0.00  0.00    +0.000 C 
ATOM     20  C   UNL     1      -1.102  13.658  19.723  0.00  0.00    +0.000 C 
ATOM     21  C   UNL     1      -0.326  13.916  18.439  0.00  0.00    +0.000 C 
ATOM     22  N   UNL     1       0.585  12.788  18.269  0.00  0.00    +0.000 NA
ATOM     23  H   UNL     1       1.507  13.092  17.963  0.00  0.00    +0.000 HD
ENDBRANCH  14  18
ENDBRANCH   7  11
BRANCH   1  25
ATOM     24  N   UNL     1       0.874   2.850  21.258  0.00  0.00    +0.000 N 
ATOM     25  C   UNL     1       2.227   2.743  21.096  0.00  0.00    +0.000 C 
ATOM     26  O   UNL     1       2.941   2.334  22.001  0.00  0.00    +0.000 OA
ATOM     27  H   UNL     1       0.458   2.575  22.134  0.00  0.00    +0.000 HD
ATOM     28  H   UNL     1       0.282   3.175  20.496  0.00  0.00    +0.000 HD
ENDBRANCH   1  25
TORSDOF 3
ENDMDL
MODEL 7
REMARK VINA RESULT:      -7.9      1.513      1.746
REMARK  Name = 
REMARK  3 active torsions:
REMARK  status: ('A' for Active; 'I' for Inactive)
REMARK    1  A    between atoms: C_2  and  C_4
REMARK    2  A    between atoms: C_10  and  C_11
REMARK    3  A    between atoms: C_14  and  C_15
REMARK                            x       y       z     vdW  Elec       q    Type
REMARK                         _______ _______ _______ _____ _____    ______ ____
ROOT
ATOM      1  C   UNL     1       2.991   3.739  20.102  0.00  0.00    +0.000 A 
ATOM      2  C   UNL     1       3.919   3.111  19.252  0.00  0.00    +0.000 A 
ATOM      3  C   UNL     1       4.568   3.825  18.240  0.00  0.00    +0.000 A 
ATOM      4  C   UNL     1       4.314   5.185  18.036  0.00  0.00    +0.000 A 
ATOM      5  C   UNL     1       3.388   5.784  18.890  0.00  0.00    +0.000 A 
ATOM      6  N   UNL     1       2.909   7.063  18.965  0.00  0.00    +0.000 N 
ATOM      7  C   UNL     1       2.016   7.150  20.010  0.00  0.00    +0.000 A 
ATOM      8  N   UNL     1       1.885   5.971  20.589  0.00  0.00    +0.000 NA
ATOM      9  C   UNL     1       2.731   5.109  19.912  0.00  0.00    +0.000 A 
ATOM     10  H   UNL     1       3.161   7.833  18.361  0.00  0.00    +0.000 HD
ENDROOT
BRANCH   7  11
ATOM     11  C   UNL     1       1.339   8.388  20.392  0.00  0.00    +0.000 A 
ATOM     12  C   UNL     1       1.002   8.624  21.732  0.00  0.00    +0.000 A 
ATOM     13  C   UNL     1       0.375   9.817  22.113  0.00  0.00    +0.000 A 
ATOM     14  C   UNL     1       0.073  10.803  21.162  0.00  0.00    +0.000 A 
ATOM     15  C   UNL     1       0.390  10.553  19.819  0.00  0.00    +0.000 A 
ATOM     16  C   UNL     1       1.019   9.369  19.451  0.00  0.00    +0.000 A 
ATOM     17  F   UNL     1       1.318   9.192  18.152  0.00  0.00    +0.000 F 
BRANCH  14  18
ATOM     18  C   UNL     1      -0.597  12.088  21.584  0.00  0.00    +0.000 C 
ATOM     19  C   UNL     1      -1.226  12.002  22.967  0.00  0.00    +0.000 C 
ATOM     20  C   UNL     1      -2.198  13.169  22.963  0.00  0.00    +0.000 C 
ATOM     21  C   UNL     1      -2.605  13.329  21.505  0.00  0.00    +0.000 C 
ATOM     22  N   UNL     1      -1.737  12.446  20.731  0.00  0.00    +0.000 NA
ATOM     23  H   UNL     1      -1.414  12.893  19.875  0.00  0.00    +0.000 HD
ENDBRANCH  14  18
ENDBRANCH   7  11
BRANCH   1  25
ATOM     24  N   UNL     1       0.945   2.909  21.120  0.00  0.00    +0.000 N 
ATOM     25  C   UNL     1       2.310   2.954  21.158  0.00  0.00    +0.000 C 
ATOM     26  O   UNL     1       2.939   2.361  22.023  0.00  0.00    +0.000 OA
ATOM     27  H   UNL     1       0.450   2.366  21.812  0.00  0.00    +0.000 HD
ATOM     28  H   UNL     1       0.426   3.389  20.388  0.00  0.00    +0.000 HD
ENDBRANCH   1  25
TORSDOF 3
ENDMDL
MODEL 8
REMARK VINA RESULT:      -7.9      1.159      1.332
REMARK  Name = 
REMARK  3 active torsions:
REMARK  status: ('A' for Active; 'I' for Inactive)
REMARK    1  A    between atoms: C_2  and  C_4
REMARK    2  A    between atoms: C_10  and  C_11
REMARK    3  A    between atoms: C_14  and  C_15
REMARK                            x       y       z     vdW  Elec       q    Type
REMARK                         _______ _______ _______ _____ _____    ______ ____
ROOT
ATOM      1  C   UNL     1       4.448   4.397  17.861  0.00  0.00    +0.000 A 
ATOM      2  C   UNL     1       5.431   4.268  16.863  0.00  0.00    +0.000 A 
ATOM      3  C   UNL     1       5.803   5.359  16.072  0.00  0.00    +0.000 A 
ATOM      4  C   UNL     1       5.210   6.613  16.243  0.00  0.00    +0.000 A 
ATOM      5  C   UNL     1       4.237   6.715  17.238  0.00  0.00    +0.000 A 
ATOM      6  N   UNL     1       3.467   7.765  17.659  0.00  0.00    +0.000 N 
ATOM      7  C   UNL     1       2.667   7.349  18.700  0.00  0.00    +0.000 A 
ATOM      8  N   UNL     1       2.874   6.068  18.942  0.00  0.00    +0.000 NA
ATOM      9  C   UNL     1       3.847   5.655  18.048  0.00  0.00    +0.000 A 
ATOM     10  H   UNL     1       3.475   8.702  17.280  0.00  0.00    +0.000 HD
ENDROOT
BRANCH   7  11
ATOM     11  C   UNL     1       1.740   8.231  19.408  0.00  0.00    +0.000 A 
ATOM     12  C   UNL     1       1.478   8.032  20.770  0.00  0.00    +0.000 A 
ATOM     13  C   UNL     1       0.611   8.885  21.464  0.00  0.00    +0.000 A 
ATOM     14  C   UNL     1      -0.011   9.960  20.811  0.00  0.00    +0.000 A 
ATOM     15  C   UNL     1       0.236  10.141  19.443  0.00  0.00    +0.000 A 
ATOM     16  C   UNL     1       1.103   9.294  18.763  0.00  0.00    +0.000 A 
ATOM     17  F   UNL     1       1.318   9.528  17.458  0.00  0.00    +0.000 F 
BRANCH  14  18
ATOM     18  C   UNL     1      -0.937  10.877  21.571  0.00  0.00    +0.000 C 
ATOM     19  C   UNL     1      -1.480  12.013  20.716  0.00  0.00    +0.000 C 
ATOM     20  C   UNL     1      -1.957  13.013  21.755  0.00  0.00    +0.000 C 
ATOM     21  C   UNL     1      -1.047  12.789  22.954  0.00  0.00    +0.000 C 
ATOM     22  N   UNL     1      -0.267  11.588  22.667  0.00  0.00    +0.000 NA
ATOM     23  H   UNL     1      -0.188  10.987  23.485  0.00  0.00    +0.000 HD
ENDBRANCH  14  18
ENDBRANCH   7  11
BRANCH   1  25
ATOM     24  N   UNL     1       4.993   2.744  19.559  0.00  0.00    +0.000 N 
ATOM     25  C   UNL     1       4.066   3.219  18.675  0.00  0.00    +0.000 C 
ATOM     26  O   UNL     1       2.964   2.697  18.571  0.00  0.00    +0.000 OA
ATOM     27  H   UNL     1       4.758   1.956  20.144  0.00  0.00    +0.000 HD
ATOM     28  H   UNL     1       5.901   3.192  19.654  0.00  0.00    +0.000 HD
ENDBRANCH   1  25
TORSDOF 3
ENDMDL
MODEL 9
REMARK VINA RESULT:      -7.8      2.418      3.460
REMARK  Name = 
REMARK  3 active torsions:
REMARK  status: ('A' for Active; 'I' for Inactive)
REMARK    1  A    between atoms: C_2  and  C_4
REMARK    2  A    between atoms: C_10  and  C_11
REMARK    3  A    between atoms: C_14  and  C_15
REMARK                            x       y       z     vdW  Elec       q    Type
REMARK                         _______ _______ _______ _____ _____    ______ ____
ROOT
ATOM      1  C   UNL     1       3.987   3.765  19.387  0.00  0.00    +0.000 A 
ATOM      2  C   UNL     1       3.832   2.584  20.135  0.00  0.00    +0.000 A 
ATOM      3  C   UNL     1       2.912   2.511  21.186  0.00  0.00    +0.000 A 
ATOM      4  C   UNL     1       2.119   3.609  21.531  0.00  0.00    +0.000 A 
ATOM      5  C   UNL     1       2.292   4.769  20.776  0.00  0.00    +0.000 A 
ATOM      6  N   UNL     1       1.701   6.001  20.845  0.00  0.00    +0.000 N 
ATOM      7  C   UNL     1       2.212   6.803  19.849  0.00  0.00    +0.000 A 
ATOM      8  N   UNL     1       3.126   6.142  19.163  0.00  0.00    +0.000 NA
ATOM      9  C   UNL     1       3.190   4.876  19.720  0.00  0.00    +0.000 A 
ATOM     10  H   UNL     1       0.999   6.291  21.511  0.00  0.00    +0.000 HD
ENDROOT
BRANCH   7  11
ATOM     11  C   UNL     1       1.774   8.178  19.616  0.00  0.00    +0.000 A 
ATOM     12  C   UNL     1       1.918   8.760  18.349  0.00  0.00    +0.000 A 
ATOM     13  C   UNL     1       1.480  10.069  18.108  0.00  0.00    +0.000 A 
ATOM     14  C   UNL     1       0.886  10.824  19.130  0.00  0.00    +0.000 A 
ATOM     15  C   UNL     1       0.766  10.247  20.402  0.00  0.00    +0.000 A 
ATOM     16  C   UNL     1       1.196   8.945  20.630  0.00  0.00    +0.000 A 
ATOM     17  F   UNL     1       1.037   8.436  21.864  0.00  0.00    +0.000 F 
BRANCH  14  18
ATOM     18  C   UNL     1       0.411  12.230  18.857  0.00  0.00    +0.000 C 
ATOM     19  C   UNL     1       1.383  13.291  19.352  0.00  0.00    +0.000 C 
ATOM     20  C   UNL     1       0.517  14.537  19.408  0.00  0.00    +0.000 C 
ATOM     21  C   UNL     1      -0.887  14.020  19.690  0.00  0.00    +0.000 C 
ATOM     22  N   UNL     1      -0.826  12.566  19.573  0.00  0.00    +0.000 NA
ATOM     23  H   UNL     1      -1.635  12.194  19.079  0.00  0.00    +0.000 HD
ENDBRANCH  14  18
ENDBRANCH   7  11
BRANCH   1  25
ATOM     24  N   UNL     1       6.274   4.086  18.626  0.00  0.00    +0.000 N 
ATOM     25  C   UNL     1       4.978   3.815  18.287  0.00  0.00    +0.000 C 
ATOM     26  O   UNL     1       4.657   3.615  17.124  0.00  0.00    +0.000 OA
ATOM     27  H   UNL     1       6.978   4.107  17.905  0.00  0.00    +0.000 HD
ATOM     28  H   UNL     1       6.539   4.234  19.598  0.00  0.00    +0.000 HD
ENDBRANCH   1  25
TORSDOF 3
ENDMDL
