MODEL 1
REMARK VINA RESULT:      -7.9      0.000      0.000
REMARK  Name = 
REMARK  4 active torsions:
REMARK  status: ('A' for Active; 'I' for Inactive)
REMARK    1  A    between atoms: C_1  and  C_2
REMARK    2  A    between atoms: C_2  and  C_4
REMARK    3  A    between atoms: C_17  and  C_18
REMARK    4  A    between atoms: C_22  and  C_23
REMARK                            x       y       z     vdW  Elec       q    Type
REMARK                         _______ _______ _______ _____ _____    ______ ____
ROOT
ATOM      1  C   UNL     1       7.134   5.720  16.929  0.00  0.00    +0.000 C 
ATOM      2  C   UNL     1       6.974   7.223  17.272  0.00  0.00    +0.000 C 
ATOM      3  C   UNL     1       5.573   7.393  17.891  0.00  0.00    +0.000 C 
ATOM      4  C   UNL     1       5.057   5.969  18.068  0.00  0.00    +0.000 C 
ATOM      5  C   UNL     1       3.545   5.742  18.206  0.00  0.00    +0.000 C 
ATOM      6  C   UNL     1       2.965   6.565  19.365  0.00  0.00    +0.000 C 
ATOM      7  C   UNL     1       1.493   6.254  19.620  0.00  0.00    +0.000 C 
ATOM      8  C   UNL     1       1.220   4.753  19.822  0.00  0.00    +0.000 C 
ATOM      9  C   UNL     1       1.749   4.309  21.200  0.00  0.00    +0.000 C 
ATOM     10  C   UNL     1       1.596   2.820  21.398  0.00  0.00    +0.000 C 
ATOM     11  O   UNL     1       1.153   2.347  22.444  0.00  0.00    +0.000 OA
ATOM     12  C   UNL     1       2.136   1.945  20.299  0.00  0.00    +0.000 C 
ATOM     13  C   UNL     1       1.534   2.385  18.974  0.00  0.00    +0.000 C 
ATOM     14  C   UNL     1       1.773   3.888  18.639  0.00  0.00    +0.000 C 
ATOM     15  C   UNL     1       0.945   4.182  17.360  0.00  0.00    +0.000 C 
ATOM     16  C   UNL     1       3.293   4.215  18.415  0.00  0.00    +0.000 C 
ATOM     17  C   UNL     1       3.967   3.362  17.309  0.00  0.00    +0.000 C 
ATOM     18  C   UNL     1       5.453   3.702  17.106  0.00  0.00    +0.000 C 
ATOM     19  C   UNL     1       5.675   5.203  16.881  0.00  0.00    +0.000 C 
ATOM     20  C   UNL     1       5.072   5.603  15.505  0.00  0.00    +0.000 C 
ENDROOT
BRANCH   1  22
ATOM     21  C   UNL     1       8.161   5.672  19.311  0.00  0.00    +0.000 C 
ATOM     22  C   UNL     1       8.027   5.016  17.962  0.00  0.00    +0.000 C 
ATOM     23  O   UNL     1       8.627   3.969  17.712  0.00  0.00    +0.000 OA
ENDBRANCH   1  22
TORSDOF 1
ENDMDL
MODEL 2
REMARK VINA RESULT:      -6.8      8.903     11.957
REMARK  Name = 
REMARK  4 active torsions:
REMARK  status: ('A' for Active; 'I' for Inactive)
REMARK    1  A    between atoms: C_1  and  C_2
REMARK    2  A    between atoms: C_2  and  C_4
REMARK    3  A    between atoms: C_17  and  C_18
REMARK    4  A    between atoms: C_22  and  C_23
REMARK                            x       y       z     vdW  Elec       q    Type
REMARK                         _______ _______ _______ _____ _____    ______ ____
ROOT
ATOM      1  C   UNL     1      10.527  11.414  18.380  0.00  0.00    +0.000 C 
ATOM      2  C   UNL     1      11.857  11.519  19.168  0.00  0.00    +0.000 C 
ATOM      3  C   UNL     1      11.898  12.930  19.788  0.00  0.00    +0.000 C 
ATOM      4  C   UNL     1      10.517  13.512  19.508  0.00  0.00    +0.000 C 
ATOM      5  C   UNL     1      10.335  15.035  19.546  0.00  0.00    +0.000 C 
ATOM      6  C   UNL     1      10.790  15.614  20.893  0.00  0.00    +0.000 C 
ATOM      7  C   UNL     1      10.490  17.105  21.016  0.00  0.00    +0.000 C 
ATOM      8  C   UNL     1       9.015  17.449  20.741  0.00  0.00    +0.000 C 
ATOM      9  C   UNL     1       8.142  16.982  21.922  0.00  0.00    +0.000 C 
ATOM     10  C   UNL     1       6.675  17.205  21.648  0.00  0.00    +0.000 C 
ATOM     11  O   UNL     1       5.925  17.699  22.489  0.00  0.00    +0.000 OA
ATOM     12  C   UNL     1       6.154  16.670  20.340  0.00  0.00    +0.000 C 
ATOM     13  C   UNL     1       7.011  17.212  19.207  0.00  0.00    +0.000 C 
ATOM     14  C   UNL     1       8.530  16.899  19.356  0.00  0.00    +0.000 C 
ATOM     15  C   UNL     1       9.245  17.674  18.218  0.00  0.00    +0.000 C 
ATOM     16  C   UNL     1       8.833  15.360  19.269  0.00  0.00    +0.000 C 
ATOM     17  C   UNL     1       8.330  14.690  17.963  0.00  0.00    +0.000 C 
ATOM     18  C   UNL     1       8.640  13.185  17.898  0.00  0.00    +0.000 C 
ATOM     19  C   UNL     1      10.124  12.892  18.152  0.00  0.00    +0.000 C 
ATOM     20  C   UNL     1      10.958  13.435  16.958  0.00  0.00    +0.000 C 
ENDROOT
BRANCH   1  22
ATOM     21  C   UNL     1       8.636   9.637  18.362  0.00  0.00    +0.000 C 
ATOM     22  C   UNL     1       9.495  10.583  19.159  0.00  0.00    +0.000 C 
ATOM     23  O   UNL     1       9.351  10.685  20.379  0.00  0.00    +0.000 OA
ENDBRANCH   1  22
TORSDOF 1
ENDMDL
MODEL 3
REMARK VINA RESULT:      -6.7      8.450     11.976
REMARK  Name = 
REMARK  4 active torsions:
REMARK  status: ('A' for Active; 'I' for Inactive)
REMARK    1  A    between atoms: C_1  and  C_2
REMARK    2  A    between atoms: C_2  and  C_4
REMARK    3  A    between atoms: C_17  and  C_18
REMARK    4  A    between atoms: C_22  and  C_23
REMARK                            x       y       z     vdW  Elec       q    Type
REMARK                         _______ _______ _______ _____ _____    ______ ____
ROOT
ATOM      1  C   UNL     1      -6.965  11.912  19.261  0.00  0.00    +0.000 C 
ATOM      2  C   UNL     1      -6.649  11.791  17.749  0.00  0.00    +0.000 C 
ATOM      3  C   UNL     1      -5.122  11.936  17.599  0.00  0.00    +0.000 C 
ATOM      4  C   UNL     1      -4.595  11.934  19.029  0.00  0.00    +0.000 C 
ATOM      5  C   UNL     1      -3.206  12.526  19.307  0.00  0.00    +0.000 C 
ATOM      6  C   UNL     1      -2.133  11.849  18.442  0.00  0.00    +0.000 C 
ATOM      7  C   UNL     1      -0.723  12.315  18.796  0.00  0.00    +0.000 C 
ATOM      8  C   UNL     1      -0.396  12.168  20.293  0.00  0.00    +0.000 C 
ATOM      9  C   UNL     1      -0.196  10.679  20.638  0.00  0.00    +0.000 C 
ATOM     10  C   UNL     1       0.024  10.478  22.118  0.00  0.00    +0.000 C 
ATOM     11  O   UNL     1       0.913   9.746  22.548  0.00  0.00    +0.000 OA
ATOM     12  C   UNL     1      -0.987  11.119  23.032  0.00  0.00    +0.000 C 
ATOM     13  C   UNL     1      -1.097  12.597  22.690  0.00  0.00    +0.000 C 
ATOM     14  C   UNL     1      -1.458  12.876  21.201  0.00  0.00    +0.000 C 
ATOM     15  C   UNL     1      -1.349  14.412  21.012  0.00  0.00    +0.000 C 
ATOM     16  C   UNL     1      -2.895  12.361  20.828  0.00  0.00    +0.000 C 
ATOM     17  C   UNL     1      -4.025  12.946  21.715  0.00  0.00    +0.000 C 
ATOM     18  C   UNL     1      -5.422  12.430  21.330  0.00  0.00    +0.000 C 
ATOM     19  C   UNL     1      -5.715  12.621  19.836  0.00  0.00    +0.000 C 
ATOM     20  C   UNL     1      -5.849  14.141  19.538  0.00  0.00    +0.000 C 
ENDROOT
BRANCH   1  22
ATOM     21  C   UNL     1      -7.905  10.504  21.228  0.00  0.00    +0.000 C 
ATOM     22  C   UNL     1      -7.253  10.531  19.871  0.00  0.00    +0.000 C 
ATOM     23  O   UNL     1      -6.957   9.481  19.296  0.00  0.00    +0.000 OA
ENDBRANCH   1  22
TORSDOF 1
ENDMDL
MODEL 4
REMARK VINA RESULT:      -6.5      8.510     12.148
REMARK  Name = 
REMARK  4 active torsions:
REMARK  status: ('A' for Active; 'I' for Inactive)
REMARK    1  A    between atoms: C_1  and  C_2
REMARK    2  A    between atoms: C_2  and  C_4
REMARK    3  A    between atoms: C_17  and  C_18
REMARK    4  A    between atoms: C_22  and  C_23
REMARK                            x       y       z     vdW  Elec       q    Type
REMARK                         _______ _______ _______ _____ _____    ______ ____
ROOT
ATOM      1  C   UNL     1      -7.123  12.603  20.541  0.00  0.00    +0.000 C 
ATOM      2  C   UNL     1      -7.239  12.421  19.006  0.00  0.00    +0.000 C 
ATOM      3  C   UNL     1      -5.805  12.268  18.464  0.00  0.00    +0.000 C 
ATOM      4  C   UNL     1      -4.933  12.165  19.711  0.00  0.00    +0.000 C 
ATOM      5  C   UNL     1      -3.435  12.478  19.594  0.00  0.00    +0.000 C 
ATOM      6  C   UNL     1      -2.769  11.605  18.521  0.00  0.00    +0.000 C 
ATOM      7  C   UNL     1      -1.255  11.789  18.478  0.00  0.00    +0.000 C 
ATOM      8  C   UNL     1      -0.583  11.584  19.847  0.00  0.00    +0.000 C 
ATOM      9  C   UNL     1      -0.582  10.085  20.207  0.00  0.00    +0.000 C 
ATOM     10  C   UNL     1      -0.026   9.848  21.590  0.00  0.00    +0.000 C 
ATOM     11  O   UNL     1       0.792   8.958  21.817  0.00  0.00    +0.000 OA
ATOM     12  C   UNL     1      -0.626  10.674  22.698  0.00  0.00    +0.000 C 
ATOM     13  C   UNL     1      -0.543  12.144  22.319  0.00  0.00    +0.000 C 
ATOM     14  C   UNL     1      -1.221  12.486  20.959  0.00  0.00    +0.000 C 
ATOM     15  C   UNL     1      -0.881  13.972  20.669  0.00  0.00    +0.000 C 
ATOM     16  C   UNL     1      -2.775  12.258  20.992  0.00  0.00    +0.000 C 
ATOM     17  C   UNL     1      -3.506  13.052  22.106  0.00  0.00    +0.000 C 
ATOM     18  C   UNL     1      -5.025  12.816  22.118  0.00  0.00    +0.000 C 
ATOM     19  C   UNL     1      -5.656  13.058  20.740  0.00  0.00    +0.000 C 
ATOM     20  C   UNL     1      -5.578  14.574  20.408  0.00  0.00    +0.000 C 
ENDROOT
BRANCH   1  22
ATOM     21  C   UNL     1      -7.549  10.045  20.451  0.00  0.00    +0.000 C 
ATOM     22  C   UNL     1      -7.494  11.305  21.275  0.00  0.00    +0.000 C 
ATOM     23  O   UNL     1      -7.753  11.278  22.480  0.00  0.00    +0.000 OA
ENDBRANCH   1  22
TORSDOF 1
ENDMDL
MODEL 5
REMARK VINA RESULT:      -6.3      1.267      1.436
REMARK  Name = 
REMARK  4 active torsions:
REMARK  status: ('A' for Active; 'I' for Inactive)
REMARK    1  A    between atoms: C_1  and  C_2
REMARK    2  A    between atoms: C_2  and  C_4
REMARK    3  A    between atoms: C_17  and  C_18
REMARK    4  A    between atoms: C_22  and  C_23
REMARK                            x       y       z     vdW  Elec       q    Type
REMARK                         _______ _______ _______ _____ _____    ______ ____
ROOT
ATOM      1  C   UNL     1       7.364   6.755  17.156  0.00  0.00    +0.000 C 
ATOM      2  C   UNL     1       6.548   8.015  16.765  0.00  0.00    +0.000 C 
ATOM      3  C   UNL     1       5.063   7.673  16.991  0.00  0.00    +0.000 C 
ATOM      4  C   UNL     1       5.083   6.316  17.686  0.00  0.00    +0.000 C 
ATOM      5  C   UNL     1       3.821   5.444  17.644  0.00  0.00    +0.000 C 
ATOM      6  C   UNL     1       2.606   6.202  18.199  0.00  0.00    +0.000 C 
ATOM      7  C   UNL     1       1.367   5.318  18.304  0.00  0.00    +0.000 C 
ATOM      8  C   UNL     1       1.615   4.023  19.098  0.00  0.00    +0.000 C 
ATOM      9  C   UNL     1       1.743   4.349  20.599  0.00  0.00    +0.000 C 
ATOM     10  C   UNL     1       2.091   3.121  21.405  0.00  0.00    +0.000 C 
ATOM     11  O   UNL     1       1.514   2.850  22.457  0.00  0.00    +0.000 OA
ATOM     12  C   UNL     1       3.270   2.320  20.918  0.00  0.00    +0.000 C 
ATOM     13  C   UNL     1       3.062   1.972  19.453  0.00  0.00    +0.000 C 
ATOM     14  C   UNL     1       2.831   3.210  18.535  0.00  0.00    +0.000 C 
ATOM     15  C   UNL     1       2.466   2.648  17.136  0.00  0.00    +0.000 C 
ATOM     16  C   UNL     1       4.094   4.140  18.459  0.00  0.00    +0.000 C 
ATOM     17  C   UNL     1       5.381   3.420  17.980  0.00  0.00    +0.000 C 
ATOM     18  C   UNL     1       6.603   4.351  17.910  0.00  0.00    +0.000 C 
ATOM     19  C   UNL     1       6.319   5.614  17.088  0.00  0.00    +0.000 C 
ATOM     20  C   UNL     1       6.143   5.217  15.595  0.00  0.00    +0.000 C 
ENDROOT
BRANCH   1  22
ATOM     21  C   UNL     1       8.588   8.297  18.846  0.00  0.00    +0.000 C 
ATOM     22  C   UNL     1       8.023   6.937  18.532  0.00  0.00    +0.000 C 
ATOM     23  O   UNL     1       8.108   6.018  19.349  0.00  0.00    +0.000 OA
ENDBRANCH   1  22
TORSDOF 1
ENDMDL
MODEL 6
REMARK VINA RESULT:      -5.9      6.672      8.454
REMARK  Name = 
REMARK  4 active torsions:
REMARK  status: ('A' for Active; 'I' for Inactive)
REMARK    1  A    between atoms: C_1  and  C_2
REMARK    2  A    between atoms: C_2  and  C_4
REMARK    3  A    between atoms: C_17  and  C_18
REMARK    4  A    between atoms: C_22  and  C_23
REMARK                            x       y       z     vdW  Elec       q    Type
REMARK                         _______ _______ _______ _____ _____    ______ ____
ROOT
ATOM      1  C   UNL     1       2.739  15.469  20.223  0.00  0.00    +0.000 C 
ATOM      2  C   UNL     1       2.006  15.717  21.566  0.00  0.00    +0.000 C 
ATOM      3  C   UNL     1       1.129  14.478  21.831  0.00  0.00    +0.000 C 
ATOM      4  C   UNL     1       1.534  13.483  20.748  0.00  0.00    +0.000 C 
ATOM      5  C   UNL     1       0.570  12.343  20.393  0.00  0.00    +0.000 C 
ATOM      6  C   UNL     1       0.209  11.516  21.636  0.00  0.00    +0.000 C 
ATOM      7  C   UNL     1      -0.633  10.290  21.294  0.00  0.00    +0.000 C 
ATOM      8  C   UNL     1       0.004   9.403  20.210  0.00  0.00    +0.000 C 
ATOM      9  C   UNL     1       1.210   8.645  20.800  0.00  0.00    +0.000 C 
ATOM     10  C   UNL     1       1.930   7.842  19.744  0.00  0.00    +0.000 C 
ATOM     11  O   UNL     1       2.279   6.679  19.940  0.00  0.00    +0.000 OA
ATOM     12  C   UNL     1       2.313   8.584  18.491  0.00  0.00    +0.000 C 
ATOM     13  C   UNL     1       1.076   9.258  17.917  0.00  0.00    +0.000 C 
ATOM     14  C   UNL     1       0.356  10.213  18.915  0.00  0.00    +0.000 C 
ATOM     15  C   UNL     1      -0.957  10.656  18.217  0.00  0.00    +0.000 C 
ATOM     16  C   UNL     1       1.240  11.454  19.297  0.00  0.00    +0.000 C 
ATOM     17  C   UNL     1       1.708  12.294  18.080  0.00  0.00    +0.000 C 
ATOM     18  C   UNL     1       2.568  13.505  18.478  0.00  0.00    +0.000 C 
ATOM     19  C   UNL     1       1.882  14.375  19.540  0.00  0.00    +0.000 C 
ATOM     20  C   UNL     1       0.644  15.067  18.904  0.00  0.00    +0.000 C 
ENDROOT
BRANCH   1  22
ATOM     21  C   UNL     1       5.231  15.634  19.517  0.00  0.00    +0.000 C 
ATOM     22  C   UNL     1       4.205  15.074  20.466  0.00  0.00    +0.000 C 
ATOM     23  O   UNL     1       4.542  14.322  21.382  0.00  0.00    +0.000 OA
ENDBRANCH   1  22
TORSDOF 1
ENDMDL
MODEL 7
REMARK VINA RESULT:      -5.9      8.414     12.005
REMARK  Name = 
REMARK  4 active torsions:
REMARK  status: ('A' for Active; 'I' for Inactive)
REMARK    1  A    between atoms: C_1  and  C_2
REMARK    2  A    between atoms: C_2  and  C_4
REMARK    3  A    between atoms: C_17  and  C_18
REMARK    4  A    between atoms: C_22  and  C_23
REMARK                            x       y       z     vdW  Elec       q    Type
REMARK                         _______ _______ _______ _____ _____    ______ ____
ROOT
ATOM      1  C   UNL     1      -6.496  13.280  21.646  0.00  0.00    +0.000 C 
ATOM      2  C   UNL     1      -6.613  13.682  20.154  0.00  0.00    +0.000 C 
ATOM      3  C   UNL     1      -5.225  13.465  19.522  0.00  0.00    +0.000 C 
ATOM      4  C   UNL     1      -4.416  12.762  20.607  0.00  0.00    +0.000 C 
ATOM      5  C   UNL     1      -2.883  12.808  20.533  0.00  0.00    +0.000 C 
ATOM      6  C   UNL     1      -2.377  12.265  19.189  0.00  0.00    +0.000 C 
ATOM      7  C   UNL     1      -0.855  12.164  19.139  0.00  0.00    +0.000 C 
ATOM      8  C   UNL     1      -0.265  11.361  20.312  0.00  0.00    +0.000 C 
ATOM      9  C   UNL     1      -0.562   9.861  20.118  0.00  0.00    +0.000 C 
ATOM     10  C   UNL     1      -0.092   9.046  21.298  0.00  0.00    +0.000 C 
ATOM     11  O   UNL     1       0.533   7.997  21.154  0.00  0.00    +0.000 OA
ATOM     12  C   UNL     1      -0.543   9.521  22.654  0.00  0.00    +0.000 C 
ATOM     13  C   UNL     1      -0.169  10.985  22.817  0.00  0.00    +0.000 C 
ATOM     14  C   UNL     1      -0.739  11.911  21.700  0.00  0.00    +0.000 C 
ATOM     15  C   UNL     1      -0.111  13.310  21.938  0.00  0.00    +0.000 C 
ATOM     16  C   UNL     1      -2.308  11.984  21.729  0.00  0.00    +0.000 C 
ATOM     17  C   UNL     1      -2.894  12.451  23.086  0.00  0.00    +0.000 C 
ATOM     18  C   UNL     1      -4.430  12.517  23.089  0.00  0.00    +0.000 C 
ATOM     19  C   UNL     1      -4.973  13.349  21.920  0.00  0.00    +0.000 C 
ATOM     20  C   UNL     1      -4.595  14.840  22.141  0.00  0.00    +0.000 C 
ENDROOT
BRANCH   1  22
ATOM     21  C   UNL     1      -7.916  11.725  23.161  0.00  0.00    +0.000 C 
ATOM     22  C   UNL     1      -7.127  11.901  21.891  0.00  0.00    +0.000 C 
ATOM     23  O   UNL     1      -6.993  10.964  21.101  0.00  0.00    +0.000 OA
ENDBRANCH   1  22
TORSDOF 1
ENDMDL
MODEL 8
REMARK VINA RESULT:      -5.8      8.550     10.767
REMARK  Name = 
REMARK  4 active torsions:
REMARK  status: ('A' for Active; 'I' for Inactive)
REMARK    1  A    between atoms: C_1  and  C_2
REMARK    2  A    between atoms: C_2  and  C_4
REMARK    3  A    between atoms: C_17  and  C_18
REMARK    4  A    between atoms: C_22  and  C_23
REMARK                            x       y       z     vdW  Elec       q    Type
REMARK                         _______ _______ _______ _____ _____    ______ ____
ROOT
ATOM      1  C   UNL     1      10.725  12.571  19.448  0.00  0.00    +0.000 C 
ATOM      2  C   UNL     1      10.804  12.170  20.943  0.00  0.00    +0.000 C 
ATOM      3  C   UNL     1       9.617  12.851  21.652  0.00  0.00    +0.000 C 
ATOM      4  C   UNL     1       8.788  13.450  20.521  0.00  0.00    +0.000 C 
ATOM      5  C   UNL     1       7.810  14.587  20.844  0.00  0.00    +0.000 C 
ATOM      6  C   UNL     1       6.819  14.171  21.941  0.00  0.00    +0.000 C 
ATOM      7  C   UNL     1       5.745  15.227  22.185  0.00  0.00    +0.000 C 
ATOM      8  C   UNL     1       5.001  15.639  20.902  0.00  0.00    +0.000 C 
ATOM      9  C   UNL     1       4.056  14.504  20.461  0.00  0.00    +0.000 C 
ATOM     10  C   UNL     1       3.383  14.822  19.148  0.00  0.00    +0.000 C 
ATOM     11  O   UNL     1       2.178  14.644  18.976  0.00  0.00    +0.000 OA
ATOM     12  C   UNL     1       4.290  15.245  18.022  0.00  0.00    +0.000 C 
ATOM     13  C   UNL     1       5.153  16.406  18.490  0.00  0.00    +0.000 C 
ATOM     14  C   UNL     1       5.985  16.099  19.772  0.00  0.00    +0.000 C 
ATOM     15  C   UNL     1       6.648  17.439  20.186  0.00  0.00    +0.000 C 
ATOM     16  C   UNL     1       7.064  14.984  19.530  0.00  0.00    +0.000 C 
ATOM     17  C   UNL     1       8.054  15.303  18.379  0.00  0.00    +0.000 C 
ATOM     18  C   UNL     1       9.103  14.199  18.163  0.00  0.00    +0.000 C 
ATOM     19  C   UNL     1       9.838  13.841  19.461  0.00  0.00    +0.000 C 
ATOM     20  C   UNL     1      10.729  15.041  19.887  0.00  0.00    +0.000 C 
ENDROOT
BRANCH   1  22
ATOM     21  C   UNL     1       9.313  10.399  19.307  0.00  0.00    +0.000 C 
ATOM     22  C   UNL     1      10.171  11.414  18.601  0.00  0.00    +0.000 C 
ATOM     23  O   UNL     1      10.420  11.298  17.399  0.00  0.00    +0.000 OA
ENDBRANCH   1  22
TORSDOF 1
ENDMDL
MODEL 9
REMARK VINA RESULT:      -5.7      8.329     11.120
REMARK  Name = 
REMARK  4 active torsions:
REMARK  status: ('A' for Active; 'I' for Inactive)
REMARK    1  A    between atoms: C_1  and  C_2
REMARK    2  A    between atoms: C_2  and  C_4
REMARK    3  A    between atoms: C_17  and  C_18
REMARK    4  A    between atoms: C_22  and  C_23
REMARK                            x       y       z     vdW  Elec       q    Type
REMARK                         _______ _______ _______ _____ _____    ______ ____
ROOT
ATOM      1  C   UNL     1      -0.391  10.370  20.556  0.00  0.00    +0.000 C 
ATOM      2  C   UNL     1       0.496   9.732  19.457  0.00  0.00    +0.000 C 
ATOM      3  C   UNL     1       1.259  10.884  18.775  0.00  0.00    +0.000 C 
ATOM      4  C   UNL     1       0.944  12.110  19.626  0.00  0.00    +0.000 C 
ATOM      5  C   UNL     1       1.125  13.504  19.011  0.00  0.00    +0.000 C 
ATOM      6  C   UNL     1       2.554  13.694  18.481  0.00  0.00    +0.000 C 
ATOM      7  C   UNL     1       2.808  15.117  17.993  0.00  0.00    +0.000 C 
ATOM      8  C   UNL     1       2.466  16.187  19.045  0.00  0.00    +0.000 C 
ATOM      9  C   UNL     1       3.529  16.177  20.162  0.00  0.00    +0.000 C 
ATOM     10  C   UNL     1       3.176  17.139  21.270  0.00  0.00    +0.000 C 
ATOM     11  O   UNL     1       4.009  17.904  21.754  0.00  0.00    +0.000 OA
ATOM     12  C   UNL     1       1.787  17.018  21.838  0.00  0.00    +0.000 C 
ATOM     13  C   UNL     1       0.779  17.098  20.703  0.00  0.00    +0.000 C 
ATOM     14  C   UNL     1       1.002  16.039  19.583  0.00  0.00    +0.000 C 
ATOM     15  C   UNL     1       0.003  16.392  18.449  0.00  0.00    +0.000 C 
ATOM     16  C   UNL     1       0.778  14.571  20.097  0.00  0.00    +0.000 C 
ATOM     17  C   UNL     1      -0.622  14.327  20.719  0.00  0.00    +0.000 C 
ATOM     18  C   UNL     1      -0.819  12.883  21.212  0.00  0.00    +0.000 C 
ATOM     19  C   UNL     1      -0.493  11.853  20.123  0.00  0.00    +0.000 C 
ATOM     20  C   UNL     1      -1.563  11.949  18.999  0.00  0.00    +0.000 C 
ENDROOT
BRANCH   1  22
ATOM     21  C   UNL     1      -0.732  10.010  23.103  0.00  0.00    +0.000 C 
ATOM     22  C   UNL     1       0.224  10.152  21.948  0.00  0.00    +0.000 C 
ATOM     23  O   UNL     1       1.442  10.108  22.132  0.00  0.00    +0.000 OA
ENDBRANCH   1  22
TORSDOF 1
ENDMDL
