MODEL 1
REMARK VINA RESULT:      -8.2      0.000      0.000
REMARK  Name = 
REMARK  9 active torsions:
REMARK  status: ('A' for Active; 'I' for Inactive)
REMARK    1  A    between atoms: C_1  and  C_2
REMARK    2  A    between atoms: C_2  and  O_3
REMARK    3  A    between atoms: C_2  and  C_4
REMARK    4  A    between atoms: C_2  and  C_14
REMARK    5  A    between atoms: C_4  and  S_5
REMARK    6  A    between atoms: S_5  and  C_8
REMARK    7  A    between atoms: N_16  and  C_17
REMARK    8  A    between atoms: C_20  and  C_21
REMARK    9  A    between atoms: C_23  and  C_24
REMARK                            x       y       z     vdW  Elec       q    Type
REMARK                         _______ _______ _______ _____ _____    ______ ____
ROOT
ATOM      1  C   UNL     1       3.397   5.278  18.139  0.00  0.00    +0.000 C 
ATOM      2  O   UNL     1       2.296   4.900  17.734  0.00  0.00    +0.000 OA
ATOM      3  N   UNL     1       3.654   6.583  18.552  0.00  0.00    +0.000 N 
ATOM      4  H   UNL     1       4.618   6.846  18.720  0.00  0.00    +0.000 HD
ENDROOT
BRANCH   3   5
ATOM      5  C   UNL     1       2.664   7.586  18.709  0.00  0.00    +0.000 A 
ATOM      6  C   UNL     1       2.253   8.396  17.650  0.00  0.00    +0.000 A 
ATOM      7  C   UNL     1       1.272   9.375  17.830  0.00  0.00    +0.000 A 
ATOM      8  C   UNL     1       0.683   9.583  19.083  0.00  0.00    +0.000 A 
ATOM      9  C   UNL     1       1.091   8.785  20.170  0.00  0.00    +0.000 A 
ATOM     10  C   UNL     1       2.059   7.768  19.958  0.00  0.00    +0.000 A 
BRANCH   9  11
ATOM     11  C   UNL     1       0.558   8.982  21.570  0.00  0.00    +0.000 C 
ATOM     12  F   UNL     1       0.321  10.268  21.929  0.00  0.00    +0.000 F 
ATOM     13  F   UNL     1      -0.614   8.318  21.770  0.00  0.00    +0.000 F 
ATOM     14  F   UNL     1       1.421   8.495  22.506  0.00  0.00    +0.000 F 
ENDBRANCH   9  11
BRANCH   8  15
ATOM     15  C   UNL     1      -0.324  10.610  19.181  0.00  0.00    +0.000 C 
ATOM     16  N   UNL     1      -1.156  11.412  19.240  0.00  0.00    +0.000 NA
ENDBRANCH   8  15
ENDBRANCH   3   5
BRANCH   1  18
ATOM     17  C   UNL     1       4.164   3.019  18.846  0.00  0.00    +0.000 C 
ATOM     18  C   UNL     1       4.617   4.307  18.138  0.00  0.00    +0.000 C 
BRANCH  18  19
ATOM     19  O   UNL     1       5.665   4.935  18.884  0.00  0.00    +0.000 OA
ATOM     20  H   UNL     1       5.263   5.417  19.637  0.00  0.00    +0.000 HD
ENDBRANCH  18  19
BRANCH  18  21
ATOM     21  C   UNL     1       5.080   4.073  16.698  0.00  0.00    +0.000 C 
BRANCH  21  22
ATOM     22  S   UNL     1       6.493   5.066  16.263  0.00  0.00    +0.000 S 
ATOM     23  O   UNL     1       6.117   6.462  16.391  0.00  0.00    +0.000 OA
ATOM     24  O   UNL     1       7.658   4.552  16.956  0.00  0.00    +0.000 OA
BRANCH  22  25
ATOM     25  C   UNL     1       6.720   4.711  14.543  0.00  0.00    +0.000 A 
ATOM     26  C   UNL     1       7.699   5.383  13.809  0.00  0.00    +0.000 A 
ATOM     27  C   UNL     1       7.829   5.112  12.446  0.00  0.00    +0.000 A 
ATOM     28  C   UNL     1       7.000   4.168  11.835  0.00  0.00    +0.000 A 
ATOM     29  C   UNL     1       6.048   3.476  12.586  0.00  0.00    +0.000 A 
ATOM     30  C   UNL     1       5.909   3.741  13.945  0.00  0.00    +0.000 A 
ENDBRANCH  22  25
ENDBRANCH  21  22
ENDBRANCH  18  21
ENDBRANCH   1  18
TORSDOF 8
ENDMDL
MODEL 2
REMARK VINA RESULT:      -8.0      0.267      1.195
REMARK  Name = 
REMARK  9 active torsions:
REMARK  status: ('A' for Active; 'I' for Inactive)
REMARK    1  A    between atoms: C_1  and  C_2
REMARK    2  A    between atoms: C_2  and  O_3
REMARK    3  A    between atoms: C_2  and  C_4
REMARK    4  A    between atoms: C_2  and  C_14
REMARK    5  A    between atoms: C_4  and  S_5
REMARK    6  A    between atoms: S_5  and  C_8
REMARK    7  A    between atoms: N_16  and  C_17
REMARK    8  A    between atoms: C_20  and  C_21
REMARK    9  A    between atoms: C_23  and  C_24
REMARK                            x       y       z     vdW  Elec       q    Type
REMARK                         _______ _______ _______ _____ _____    ______ ____
ROOT
ATOM      1  C   UNL     1       3.389   5.354  18.460  0.00  0.00    +0.000 C 
ATOM      2  O   UNL     1       2.271   4.837  18.493  0.00  0.00    +0.000 OA
ATOM      3  N   UNL     1       3.597   6.731  18.471  0.00  0.00    +0.000 N 
ATOM      4  H   UNL     1       4.533   7.071  18.283  0.00  0.00    +0.000 HD
ENDROOT
BRANCH   3   5
ATOM      5  C   UNL     1       2.579   7.695  18.681  0.00  0.00    +0.000 A 
ATOM      6  C   UNL     1       2.083   8.489  17.645  0.00  0.00    +0.000 A 
ATOM      7  C   UNL     1       1.077   9.431  17.877  0.00  0.00    +0.000 A 
ATOM      8  C   UNL     1       0.546   9.616  19.160  0.00  0.00    +0.000 A 
ATOM      9  C   UNL     1       1.038   8.834  20.222  0.00  0.00    +0.000 A 
ATOM     10  C   UNL     1       2.032   7.854  19.960  0.00  0.00    +0.000 A 
BRANCH   9  11
ATOM     11  C   UNL     1       0.571   9.009  21.649  0.00  0.00    +0.000 C 
ATOM     12  F   UNL     1       1.375   8.470  22.598  0.00  0.00    +0.000 F 
ATOM     13  F   UNL     1       0.431  10.322  21.983  0.00  0.00    +0.000 F 
ATOM     14  F   UNL     1      -0.655   8.447  21.847  0.00  0.00    +0.000 F 
ENDBRANCH   9  11
BRANCH   8  15
ATOM     15  C   UNL     1      -0.494  10.603  19.311  0.00  0.00    +0.000 C 
ATOM     16  N   UNL     1      -1.341  11.377  19.461  0.00  0.00    +0.000 NA
ENDBRANCH   8  15
ENDBRANCH   3   5
BRANCH   1  18
ATOM     17  C   UNL     1       4.388   3.160  19.076  0.00  0.00    +0.000 C 
ATOM     18  C   UNL     1       4.666   4.470  18.319  0.00  0.00    +0.000 C 
BRANCH  18  19
ATOM     19  O   UNL     1       5.746   5.175  18.940  0.00  0.00    +0.000 OA
ATOM     20  H   UNL     1       5.492   5.378  19.866  0.00  0.00    +0.000 HD
ENDBRANCH  18  19
BRANCH  18  21
ATOM     21  C   UNL     1       4.978   4.256  16.837  0.00  0.00    +0.000 C 
BRANCH  21  22
ATOM     22  S   UNL     1       6.339   5.256  16.271  0.00  0.00    +0.000 S 
ATOM     23  O   UNL     1       5.919   6.646  16.303  0.00  0.00    +0.000 OA
ATOM     24  O   UNL     1       7.545   4.837  16.958  0.00  0.00    +0.000 OA
BRANCH  22  25
ATOM     25  C   UNL     1       6.517   4.772  14.577  0.00  0.00    +0.000 A 
ATOM     26  C   UNL     1       5.599   3.896  13.995  0.00  0.00    +0.000 A 
ATOM     27  C   UNL     1       5.786   3.499  12.671  0.00  0.00    +0.000 A 
ATOM     28  C   UNL     1       6.870   3.988  11.938  0.00  0.00    +0.000 A 
ATOM     29  C   UNL     1       7.763   4.890  12.518  0.00  0.00    +0.000 A 
ATOM     30  C   UNL     1       7.586   5.290  13.840  0.00  0.00    +0.000 A 
ENDBRANCH  22  25
ENDBRANCH  21  22
ENDBRANCH  18  21
ENDBRANCH   1  18
TORSDOF 8
ENDMDL
MODEL 3
REMARK VINA RESULT:      -7.7      0.771      1.407
REMARK  Name = 
REMARK  9 active torsions:
REMARK  status: ('A' for Active; 'I' for Inactive)
REMARK    1  A    between atoms: C_1  and  C_2
REMARK    2  A    between atoms: C_2  and  O_3
REMARK    3  A    between atoms: C_2  and  C_4
REMARK    4  A    between atoms: C_2  and  C_14
REMARK    5  A    between atoms: C_4  and  S_5
REMARK    6  A    between atoms: S_5  and  C_8
REMARK    7  A    between atoms: N_16  and  C_17
REMARK    8  A    between atoms: C_20  and  C_21
REMARK    9  A    between atoms: C_23  and  C_24
REMARK                            x       y       z     vdW  Elec       q    Type
REMARK                         _______ _______ _______ _____ _____    ______ ____
ROOT
ATOM      1  C   UNL     1       3.108   5.970  18.146  0.00  0.00    +0.000 C 
ATOM      2  O   UNL     1       2.069   5.361  18.409  0.00  0.00    +0.000 OA
ATOM      3  N   UNL     1       3.195   7.359  18.117  0.00  0.00    +0.000 N 
ATOM      4  H   UNL     1       4.039   7.774  17.741  0.00  0.00    +0.000 HD
ENDROOT
BRANCH   3   5
ATOM      5  C   UNL     1       2.164   8.238  18.534  0.00  0.00    +0.000 A 
ATOM      6  C   UNL     1       1.494   9.075  17.640  0.00  0.00    +0.000 A 
ATOM      7  C   UNL     1       0.478   9.930  18.076  0.00  0.00    +0.000 A 
ATOM      8  C   UNL     1       0.111   9.982  19.427  0.00  0.00    +0.000 A 
ATOM      9  C   UNL     1       0.780   9.154  20.349  0.00  0.00    +0.000 A 
ATOM     10  C   UNL     1       1.782   8.263  19.881  0.00  0.00    +0.000 A 
BRANCH   9  11
ATOM     11  C   UNL     1       0.495   9.190  21.833  0.00  0.00    +0.000 C 
ATOM     12  F   UNL     1      -0.665   8.603  22.219  0.00  0.00    +0.000 F 
ATOM     13  F   UNL     1       1.476   8.584  22.557  0.00  0.00    +0.000 F 
ATOM     14  F   UNL     1       0.430  10.469  22.299  0.00  0.00    +0.000 F 
ENDBRANCH   9  11
BRANCH   8  15
ATOM     15  C   UNL     1      -0.951  10.887  19.791  0.00  0.00    +0.000 C 
ATOM     16  N   UNL     1      -1.792  11.636  20.056  0.00  0.00    +0.000 NA
ENDBRANCH   8  15
ENDBRANCH   3   5
BRANCH   1  18
ATOM     17  C   UNL     1       3.984   3.737  17.483  0.00  0.00    +0.000 C 
ATOM     18  C   UNL     1       4.400   5.194  17.743  0.00  0.00    +0.000 C 
BRANCH  18  19
ATOM     19  O   UNL     1       5.301   5.257  18.853  0.00  0.00    +0.000 OA
ATOM     20  H   UNL     1       5.268   6.162  19.228  0.00  0.00    +0.000 HD
ENDBRANCH  18  19
BRANCH  18  21
ATOM     21  C   UNL     1       5.038   5.865  16.525  0.00  0.00    +0.000 C 
BRANCH  21  22
ATOM     22  S   UNL     1       6.733   5.373  16.281  0.00  0.00    +0.000 S 
ATOM     23  O   UNL     1       7.565   6.556  16.396  0.00  0.00    +0.000 OA
ATOM     24  O   UNL     1       7.002   4.203  17.093  0.00  0.00    +0.000 OA
BRANCH  22  25
ATOM     25  C   UNL     1       6.757   4.842  14.591  0.00  0.00    +0.000 A 
ATOM     26  C   UNL     1       5.849   3.881  14.142  0.00  0.00    +0.000 A 
ATOM     27  C   UNL     1       5.917   3.452  12.816  0.00  0.00    +0.000 A 
ATOM     28  C   UNL     1       6.872   3.993  11.951  0.00  0.00    +0.000 A 
ATOM     29  C   UNL     1       7.752   4.978  12.401  0.00  0.00    +0.000 A 
ATOM     30  C   UNL     1       7.694   5.411  13.723  0.00  0.00    +0.000 A 
ENDBRANCH  22  25
ENDBRANCH  21  22
ENDBRANCH  18  21
ENDBRANCH   1  18
TORSDOF 8
ENDMDL
MODEL 4
REMARK VINA RESULT:      -7.6      0.964      1.093
REMARK  Name = 
REMARK  9 active torsions:
REMARK  status: ('A' for Active; 'I' for Inactive)
REMARK    1  A    between atoms: C_1  and  C_2
REMARK    2  A    between atoms: C_2  and  O_3
REMARK    3  A    between atoms: C_2  and  C_4
REMARK    4  A    between atoms: C_2  and  C_14
REMARK    5  A    between atoms: C_4  and  S_5
REMARK    6  A    between atoms: S_5  and  C_8
REMARK    7  A    between atoms: N_16  and  C_17
REMARK    8  A    between atoms: C_20  and  C_21
REMARK    9  A    between atoms: C_23  and  C_24
REMARK                            x       y       z     vdW  Elec       q    Type
REMARK                         _______ _______ _______ _____ _____    ______ ____
ROOT
ATOM      1  C   UNL     1       4.540   5.462  18.598  0.00  0.00    +0.000 C 
ATOM      2  O   UNL     1       5.263   6.194  19.277  0.00  0.00    +0.000 OA
ATOM      3  N   UNL     1       3.237   5.796  18.237  0.00  0.00    +0.000 N 
ATOM      4  H   UNL     1       2.663   5.077  17.814  0.00  0.00    +0.000 HD
ENDROOT
BRANCH   3   5
ATOM      5  C   UNL     1       2.641   7.063  18.460  0.00  0.00    +0.000 A 
ATOM      6  C   UNL     1       2.656   8.072  17.496  0.00  0.00    +0.000 A 
ATOM      7  C   UNL     1       2.058   9.311  17.739  0.00  0.00    +0.000 A 
ATOM      8  C   UNL     1       1.435   9.582  18.964  0.00  0.00    +0.000 A 
ATOM      9  C   UNL     1       1.416   8.583  19.956  0.00  0.00    +0.000 A 
ATOM     10  C   UNL     1       1.995   7.316  19.676  0.00  0.00    +0.000 A 
BRANCH   9  11
ATOM     11  C   UNL     1       0.826   8.808  21.329  0.00  0.00    +0.000 C 
ATOM     12  F   UNL     1      -0.529   8.857  21.381  0.00  0.00    +0.000 F 
ATOM     13  F   UNL     1       1.196   7.839  22.211  0.00  0.00    +0.000 F 
ATOM     14  F   UNL     1       1.254   9.982  21.871  0.00  0.00    +0.000 F 
ENDBRANCH   9  11
BRANCH   8  15
ATOM     15  C   UNL     1       0.836  10.883  19.131  0.00  0.00    +0.000 C 
ATOM     16  N   UNL     1       0.325  11.914  19.249  0.00  0.00    +0.000 NA
ENDBRANCH   8  15
ENDBRANCH   3   5
BRANCH   1  18
ATOM     17  C   UNL     1       3.971   3.041  18.633  0.00  0.00    +0.000 C 
ATOM     18  C   UNL     1       5.031   4.049  18.160  0.00  0.00    +0.000 C 
BRANCH  18  19
ATOM     19  O   UNL     1       6.274   3.802  18.826  0.00  0.00    +0.000 OA
ATOM     20  H   UNL     1       6.550   2.880  18.636  0.00  0.00    +0.000 HD
ENDBRANCH  18  19
BRANCH  18  21
ATOM     21  C   UNL     1       5.248   4.031  16.646  0.00  0.00    +0.000 C 
BRANCH  21  22
ATOM     22  S   UNL     1       6.676   4.973  16.147  0.00  0.00    +0.000 S 
ATOM     23  O   UNL     1       6.366   6.381  16.314  0.00  0.00    +0.000 OA
ATOM     24  O   UNL     1       7.854   4.400  16.767  0.00  0.00    +0.000 OA
BRANCH  22  25
ATOM     25  C   UNL     1       6.794   4.635  14.412  0.00  0.00    +0.000 A 
ATOM     26  C   UNL     1       7.714   5.325  13.622  0.00  0.00    +0.000 A 
ATOM     27  C   UNL     1       7.758   5.068  12.251  0.00  0.00    +0.000 A 
ATOM     28  C   UNL     1       6.902   4.119  11.687  0.00  0.00    +0.000 A 
ATOM     29  C   UNL     1       6.009   3.410  12.491  0.00  0.00    +0.000 A 
ATOM     30  C   UNL     1       5.956   3.661  13.859  0.00  0.00    +0.000 A 
ENDBRANCH  22  25
ENDBRANCH  21  22
ENDBRANCH  18  21
ENDBRANCH   1  18
TORSDOF 8
ENDMDL
MODEL 5
REMARK VINA RESULT:      -7.5      0.996      1.551
REMARK  Name = 
REMARK  9 active torsions:
REMARK  status: ('A' for Active; 'I' for Inactive)
REMARK    1  A    between atoms: C_1  and  C_2
REMARK    2  A    between atoms: C_2  and  O_3
REMARK    3  A    between atoms: C_2  and  C_4
REMARK    4  A    between atoms: C_2  and  C_14
REMARK    5  A    between atoms: C_4  and  S_5
REMARK    6  A    between atoms: S_5  and  C_8
REMARK    7  A    between atoms: N_16  and  C_17
REMARK    8  A    between atoms: C_20  and  C_21
REMARK    9  A    between atoms: C_23  and  C_24
REMARK                            x       y       z     vdW  Elec       q    Type
REMARK                         _______ _______ _______ _____ _____    ______ ____
ROOT
ATOM      1  C   UNL     1       4.098   5.212  18.665  0.00  0.00    +0.000 C 
ATOM      2  O   UNL     1       4.707   5.729  19.604  0.00  0.00    +0.000 OA
ATOM      3  N   UNL     1       2.972   5.784  18.077  0.00  0.00    +0.000 N 
ATOM      4  H   UNL     1       2.443   5.222  17.421  0.00  0.00    +0.000 HD
ENDROOT
BRANCH   3   5
ATOM      5  C   UNL     1       2.486   7.084  18.367  0.00  0.00    +0.000 A 
ATOM      6  C   UNL     1       2.575   8.132  17.449  0.00  0.00    +0.000 A 
ATOM      7  C   UNL     1       2.085   9.403  17.757  0.00  0.00    +0.000 A 
ATOM      8  C   UNL     1       1.502   9.668  19.002  0.00  0.00    +0.000 A 
ATOM      9  C   UNL     1       1.411   8.629  19.949  0.00  0.00    +0.000 A 
ATOM     10  C   UNL     1       1.879   7.334  19.603  0.00  0.00    +0.000 A 
BRANCH   9  11
ATOM     11  C   UNL     1       0.858   8.840  21.340  0.00  0.00    +0.000 C 
ATOM     12  F   UNL     1       1.030   7.804  22.199  0.00  0.00    +0.000 F 
ATOM     13  F   UNL     1       1.410   9.924  21.951  0.00  0.00    +0.000 F 
ATOM     14  F   UNL     1      -0.484   9.074  21.314  0.00  0.00    +0.000 F 
ENDBRANCH   9  11
BRANCH   8  15
ATOM     15  C   UNL     1       1.016  11.006  19.236  0.00  0.00    +0.000 C 
ATOM     16  N   UNL     1       0.658  12.093  19.409  0.00  0.00    +0.000 NA
ENDBRANCH   8  15
ENDBRANCH   3   5
BRANCH   1  18
ATOM     17  C   UNL     1       3.396   2.832  18.495  0.00  0.00    +0.000 C 
ATOM     18  C   UNL     1       4.519   3.813  18.121  0.00  0.00    +0.000 C 
BRANCH  18  19
ATOM     19  O   UNL     1       5.733   3.444  18.783  0.00  0.00    +0.000 OA
ATOM     20  H   UNL     1       5.541   2.696  19.388  0.00  0.00    +0.000 HD
ENDBRANCH  18  19
BRANCH  18  21
ATOM     21  C   UNL     1       4.763   3.905  16.614  0.00  0.00    +0.000 C 
BRANCH  21  22
ATOM     22  S   UNL     1       6.032   5.085  16.196  0.00  0.00    +0.000 S 
ATOM     23  O   UNL     1       5.443   6.411  16.236  0.00  0.00    +0.000 OA
ATOM     24  O   UNL     1       7.221   4.785  16.968  0.00  0.00    +0.000 OA
BRANCH  22  25
ATOM     25  C   UNL     1       6.403   4.695  14.508  0.00  0.00    +0.000 A 
ATOM     26  C   UNL     1       5.631   3.760  13.816  0.00  0.00    +0.000 A 
ATOM     27  C   UNL     1       5.970   3.442  12.501  0.00  0.00    +0.000 A 
ATOM     28  C   UNL     1       7.057   4.068  11.885  0.00  0.00    +0.000 A 
ATOM     29  C   UNL     1       7.800   5.027  12.574  0.00  0.00    +0.000 A 
ATOM     30  C   UNL     1       7.472   5.349  13.888  0.00  0.00    +0.000 A 
ENDBRANCH  22  25
ENDBRANCH  21  22
ENDBRANCH  18  21
ENDBRANCH   1  18
TORSDOF 8
ENDMDL
MODEL 6
REMARK VINA RESULT:      -7.5      1.746      2.258
REMARK  Name = 
REMARK  9 active torsions:
REMARK  status: ('A' for Active; 'I' for Inactive)
REMARK    1  A    between atoms: C_1  and  C_2
REMARK    2  A    between atoms: C_2  and  O_3
REMARK    3  A    between atoms: C_2  and  C_4
REMARK    4  A    between atoms: C_2  and  C_14
REMARK    5  A    between atoms: C_4  and  S_5
REMARK    6  A    between atoms: S_5  and  C_8
REMARK    7  A    between atoms: N_16  and  C_17
REMARK    8  A    between atoms: C_20  and  C_21
REMARK    9  A    between atoms: C_23  and  C_24
REMARK                            x       y       z     vdW  Elec       q    Type
REMARK                         _______ _______ _______ _____ _____    ______ ____
ROOT
ATOM      1  C   UNL     1       3.072   4.398  18.266  0.00  0.00    +0.000 C 
ATOM      2  O   UNL     1       1.970   4.370  17.717  0.00  0.00    +0.000 OA
ATOM      3  N   UNL     1       3.482   5.431  19.106  0.00  0.00    +0.000 N 
ATOM      4  H   UNL     1       4.455   5.454  19.389  0.00  0.00    +0.000 HD
ENDROOT
BRANCH   3   5
ATOM      5  C   UNL     1       2.644   6.481  19.557  0.00  0.00    +0.000 A 
ATOM      6  C   UNL     1       1.995   6.435  20.792  0.00  0.00    +0.000 A 
ATOM      7  C   UNL     1       1.176   7.485  21.215  0.00  0.00    +0.000 A 
ATOM      8  C   UNL     1       0.972   8.611  20.407  0.00  0.00    +0.000 A 
ATOM      9  C   UNL     1       1.609   8.675  19.153  0.00  0.00    +0.000 A 
ATOM     10  C   UNL     1       2.468   7.616  18.756  0.00  0.00    +0.000 A 
BRANCH   9  11
ATOM     11  C   UNL     1       1.395   9.818  18.188  0.00  0.00    +0.000 C 
ATOM     12  F   UNL     1       1.588  11.059  18.701  0.00  0.00    +0.000 F 
ATOM     13  F   UNL     1       2.216   9.733  17.104  0.00  0.00    +0.000 F 
ATOM     14  F   UNL     1       0.127   9.822  17.689  0.00  0.00    +0.000 F 
ENDBRANCH   9  11
BRANCH   8  15
ATOM     15  C   UNL     1       0.118   9.652  20.923  0.00  0.00    +0.000 C 
ATOM     16  N   UNL     1      -0.559  10.477  21.371  0.00  0.00    +0.000 NA
ENDBRANCH   8  15
ENDBRANCH   3   5
BRANCH   1  18
ATOM     17  C   UNL     1       3.449   1.939  18.281  0.00  0.00    +0.000 C 
ATOM     18  C   UNL     1       4.128   3.286  17.982  0.00  0.00    +0.000 C 
BRANCH  18  19
ATOM     19  O   UNL     1       5.222   3.494  18.881  0.00  0.00    +0.000 OA
ATOM     20  H   UNL     1       5.640   4.355  18.666  0.00  0.00    +0.000 HD
ENDBRANCH  18  19
BRANCH  18  21
ATOM     21  C   UNL     1       4.619   3.407  16.538  0.00  0.00    +0.000 C 
BRANCH  21  22
ATOM     22  S   UNL     1       5.797   4.727  16.324  0.00  0.00    +0.000 S 
ATOM     23  O   UNL     1       5.084   5.987  16.430  0.00  0.00    +0.000 OA
ATOM     24  O   UNL     1       6.952   4.463  17.159  0.00  0.00    +0.000 OA
BRANCH  22  25
ATOM     25  C   UNL     1       6.322   4.528  14.644  0.00  0.00    +0.000 A 
ATOM     26  C   UNL     1       7.409   5.255  14.156  0.00  0.00    +0.000 A 
ATOM     27  C   UNL     1       7.776   5.109  12.818  0.00  0.00    +0.000 A 
ATOM     28  C   UNL     1       7.072   4.233  11.988  0.00  0.00    +0.000 A 
ATOM     29  C   UNL     1       6.008   3.485  12.495  0.00  0.00    +0.000 A 
ATOM     30  C   UNL     1       5.633   3.625  13.828  0.00  0.00    +0.000 A 
ENDBRANCH  22  25
ENDBRANCH  21  22
ENDBRANCH  18  21
ENDBRANCH   1  18
TORSDOF 8
ENDMDL
MODEL 7
REMARK VINA RESULT:      -7.5      1.713      2.416
REMARK  Name = 
REMARK  9 active torsions:
REMARK  status: ('A' for Active; 'I' for Inactive)
REMARK    1  A    between atoms: C_1  and  C_2
REMARK    2  A    between atoms: C_2  and  O_3
REMARK    3  A    between atoms: C_2  and  C_4
REMARK    4  A    between atoms: C_2  and  C_14
REMARK    5  A    between atoms: C_4  and  S_5
REMARK    6  A    between atoms: S_5  and  C_8
REMARK    7  A    between atoms: N_16  and  C_17
REMARK    8  A    between atoms: C_20  and  C_21
REMARK    9  A    between atoms: C_23  and  C_24
REMARK                            x       y       z     vdW  Elec       q    Type
REMARK                         _______ _______ _______ _____ _____    ______ ____
ROOT
ATOM      1  C   UNL     1       3.049   4.319  18.411  0.00  0.00    +0.000 C 
ATOM      2  O   UNL     1       1.859   4.064  18.215  0.00  0.00    +0.000 OA
ATOM      3  N   UNL     1       3.496   5.528  18.938  0.00  0.00    +0.000 N 
ATOM      4  H   UNL     1       4.491   5.714  18.919  0.00  0.00    +0.000 HD
ENDROOT
BRANCH   3   5
ATOM      5  C   UNL     1       2.650   6.540  19.458  0.00  0.00    +0.000 A 
ATOM      6  C   UNL     1       2.019   6.416  20.697  0.00  0.00    +0.000 A 
ATOM      7  C   UNL     1       1.193   7.429  21.190  0.00  0.00    +0.000 A 
ATOM      8  C   UNL     1       0.962   8.595  20.448  0.00  0.00    +0.000 A 
ATOM      9  C   UNL     1       1.579   8.738  19.190  0.00  0.00    +0.000 A 
ATOM     10  C   UNL     1       2.447   7.715  18.724  0.00  0.00    +0.000 A 
BRANCH   9  11
ATOM     11  C   UNL     1       1.336   9.930  18.294  0.00  0.00    +0.000 C 
ATOM     12  F   UNL     1       0.063  10.076  17.849  0.00  0.00    +0.000 F 
ATOM     13  F   UNL     1       1.653  11.104  18.906  0.00  0.00    +0.000 F 
ATOM     14  F   UNL     1       2.110   9.879  17.173  0.00  0.00    +0.000 F 
ENDBRANCH   9  11
BRANCH   8  15
ATOM     15  C   UNL     1       0.101   9.593  21.033  0.00  0.00    +0.000 C 
ATOM     16  N   UNL     1      -0.589  10.376  21.534  0.00  0.00    +0.000 NA
ENDBRANCH   8  15
ENDBRANCH   3   5
BRANCH   1  18
ATOM     17  C   UNL     1       3.603   1.897  18.282  0.00  0.00    +0.000 C 
ATOM     18  C   UNL     1       4.156   3.303  17.993  0.00  0.00    +0.000 C 
BRANCH  18  19
ATOM     19  O   UNL     1       5.301   3.557  18.813  0.00  0.00    +0.000 OA
ATOM     20  H   UNL     1       5.923   2.804  18.719  0.00  0.00    +0.000 HD
ENDBRANCH  18  19
BRANCH  18  21
ATOM     21  C   UNL     1       4.517   3.519  16.523  0.00  0.00    +0.000 C 
BRANCH  21  22
ATOM     22  S   UNL     1       5.804   4.733  16.305  0.00  0.00    +0.000 S 
ATOM     23  O   UNL     1       5.210   6.049  16.455  0.00  0.00    +0.000 OA
ATOM     24  O   UNL     1       6.950   4.348  17.105  0.00  0.00    +0.000 OA
BRANCH  22  25
ATOM     25  C   UNL     1       6.268   4.526  14.608  0.00  0.00    +0.000 A 
ATOM     26  C   UNL     1       5.518   3.700  13.769  0.00  0.00    +0.000 A 
ATOM     27  C   UNL     1       5.930   3.523  12.448  0.00  0.00    +0.000 A 
ATOM     28  C   UNL     1       7.068   4.180  11.973  0.00  0.00    +0.000 A 
ATOM     29  C   UNL     1       7.790   5.031  12.811  0.00  0.00    +0.000 A 
ATOM     30  C   UNL     1       7.389   5.212  14.131  0.00  0.00    +0.000 A 
ENDBRANCH  22  25
ENDBRANCH  21  22
ENDBRANCH  18  21
ENDBRANCH   1  18
TORSDOF 8
ENDMDL
MODEL 8
REMARK VINA RESULT:      -7.4      1.770      2.301
REMARK  Name = 
REMARK  9 active torsions:
REMARK  status: ('A' for Active; 'I' for Inactive)
REMARK    1  A    between atoms: C_1  and  C_2
REMARK    2  A    between atoms: C_2  and  O_3
REMARK    3  A    between atoms: C_2  and  C_4
REMARK    4  A    between atoms: C_2  and  C_14
REMARK    5  A    between atoms: C_4  and  S_5
REMARK    6  A    between atoms: S_5  and  C_8
REMARK    7  A    between atoms: N_16  and  C_17
REMARK    8  A    between atoms: C_20  and  C_21
REMARK    9  A    between atoms: C_23  and  C_24
REMARK                            x       y       z     vdW  Elec       q    Type
REMARK                         _______ _______ _______ _____ _____    ______ ____
ROOT
ATOM      1  C   UNL     1       4.342   5.187  18.874  0.00  0.00    +0.000 C 
ATOM      2  O   UNL     1       5.137   5.908  19.480  0.00  0.00    +0.000 OA
ATOM      3  N   UNL     1       2.964   5.386  18.889  0.00  0.00    +0.000 N 
ATOM      4  H   UNL     1       2.376   4.660  18.497  0.00  0.00    +0.000 HD
ENDROOT
BRANCH   3   5
ATOM      5  C   UNL     1       2.320   6.514  19.458  0.00  0.00    +0.000 A 
ATOM      6  C   UNL     1       1.801   6.497  20.754  0.00  0.00    +0.000 A 
ATOM      7  C   UNL     1       1.175   7.624  21.293  0.00  0.00    +0.000 A 
ATOM      8  C   UNL     1       1.036   8.799  20.545  0.00  0.00    +0.000 A 
ATOM      9  C   UNL     1       1.542   8.835  19.231  0.00  0.00    +0.000 A 
ATOM     10  C   UNL     1       2.211   7.694  18.714  0.00  0.00    +0.000 A 
BRANCH   9  11
ATOM     11  C   UNL     1       1.381  10.036  18.328  0.00  0.00    +0.000 C 
ATOM     12  F   UNL     1       0.110  10.308  17.939  0.00  0.00    +0.000 F 
ATOM     13  F   UNL     1       1.843  11.178  18.907  0.00  0.00    +0.000 F 
ATOM     14  F   UNL     1       2.092   9.894  17.174  0.00  0.00    +0.000 F 
ENDBRANCH   9  11
BRANCH   8  15
ATOM     15  C   UNL     1       0.382   9.917  21.179  0.00  0.00    +0.000 C 
ATOM     16  N   UNL     1      -0.171  10.810  21.665  0.00  0.00    +0.000 NA
ENDBRANCH   8  15
ENDBRANCH   3   5
BRANCH   1  18
ATOM     17  C   UNL     1       3.895   2.775  18.458  0.00  0.00    +0.000 C 
ATOM     18  C   UNL     1       4.845   3.930  18.100  0.00  0.00    +0.000 C 
BRANCH  18  19
ATOM     19  O   UNL     1       6.167   3.640  18.566  0.00  0.00    +0.000 OA
ATOM     20  H   UNL     1       6.116   2.891  19.196  0.00  0.00    +0.000 HD
ENDBRANCH  18  19
BRANCH  18  21
ATOM     21  C   UNL     1       4.884   4.237  16.602  0.00  0.00    +0.000 C 
BRANCH  21  22
ATOM     22  S   UNL     1       6.274   5.254  16.146  0.00  0.00    +0.000 S 
ATOM     23  O   UNL     1       5.841   6.639  16.159  0.00  0.00    +0.000 OA
ATOM     24  O   UNL     1       7.430   4.838  16.917  0.00  0.00    +0.000 OA
BRANCH  22  25
ATOM     25  C   UNL     1       6.582   4.786  14.466  0.00  0.00    +0.000 A 
ATOM     26  C   UNL     1       7.623   5.378  13.750  0.00  0.00    +0.000 A 
ATOM     27  C   UNL     1       7.817   5.020  12.415  0.00  0.00    +0.000 A 
ATOM     28  C   UNL     1       6.989   4.068  11.816  0.00  0.00    +0.000 A 
ATOM     29  C   UNL     1       5.972   3.457  12.551  0.00  0.00    +0.000 A 
ATOM     30  C   UNL     1       5.769   3.809  13.882  0.00  0.00    +0.000 A 
ENDBRANCH  22  25
ENDBRANCH  21  22
ENDBRANCH  18  21
ENDBRANCH   1  18
TORSDOF 8
ENDMDL
MODEL 9
REMARK VINA RESULT:      -7.4      6.891      8.132
REMARK  Name = 
REMARK  9 active torsions:
REMARK  status: ('A' for Active; 'I' for Inactive)
REMARK    1  A    between atoms: C_1  and  C_2
REMARK    2  A    between atoms: C_2  and  O_3
REMARK    3  A    between atoms: C_2  and  C_4
REMARK    4  A    between atoms: C_2  and  C_14
REMARK    5  A    between atoms: C_4  and  S_5
REMARK    6  A    between atoms: S_5  and  C_8
REMARK    7  A    between atoms: N_16  and  C_17
REMARK    8  A    between atoms: C_20  and  C_21
REMARK    9  A    between atoms: C_23  and  C_24
REMARK                            x       y       z     vdW  Elec       q    Type
REMARK                         _______ _______ _______ _____ _____    ______ ____
ROOT
ATOM      1  C   UNL     1       7.881   8.747  17.974  0.00  0.00    +0.000 C 
ATOM      2  O   UNL     1       7.271   9.649  17.399  0.00  0.00    +0.000 OA
ATOM      3  N   UNL     1       8.945   8.975  18.842  0.00  0.00    +0.000 N 
ATOM      4  H   UNL     1       9.488   8.176  19.148  0.00  0.00    +0.000 HD
ENDROOT
BRANCH   3   5
ATOM      5  C   UNL     1       9.354  10.255  19.294  0.00  0.00    +0.000 A 
ATOM      6  C   UNL     1       9.163  10.674  20.612  0.00  0.00    +0.000 A 
ATOM      7  C   UNL     1       9.579  11.939  21.033  0.00  0.00    +0.000 A 
ATOM      8  C   UNL     1      10.187  12.832  20.142  0.00  0.00    +0.000 A 
ATOM      9  C   UNL     1      10.380  12.436  18.804  0.00  0.00    +0.000 A 
ATOM     10  C   UNL     1       9.988  11.131  18.404  0.00  0.00    +0.000 A 
BRANCH   9  11
ATOM     11  C   UNL     1      10.968  13.355  17.759  0.00  0.00    +0.000 C 
ATOM     12  F   UNL     1      11.108  12.817  16.521  0.00  0.00    +0.000 F 
ATOM     13  F   UNL     1      10.223  14.482  17.592  0.00  0.00    +0.000 F 
ATOM     14  F   UNL     1      12.212  13.784  18.113  0.00  0.00    +0.000 F 
ENDBRANCH   9  11
BRANCH   8  15
ATOM     15  C   UNL     1      10.591  14.115  20.660  0.00  0.00    +0.000 C 
ATOM     16  N   UNL     1      10.909  15.133  21.111  0.00  0.00    +0.000 NA
ENDBRANCH   8  15
ENDBRANCH   3   5
BRANCH   1  18
ATOM     17  C   UNL     1       8.174   6.426  18.820  0.00  0.00    +0.000 C 
ATOM     18  C   UNL     1       7.534   7.252  17.693  0.00  0.00    +0.000 C 
BRANCH  18  19
ATOM     19  O   UNL     1       8.123   6.905  16.435  0.00  0.00    +0.000 OA
ATOM     20  H   UNL     1       8.884   6.309  16.603  0.00  0.00    +0.000 HD
ENDBRANCH  18  19
BRANCH  18  21
ATOM     21  C   UNL     1       6.015   7.088  17.611  0.00  0.00    +0.000 C 
BRANCH  21  22
ATOM     22  S   UNL     1       5.524   5.820  16.460  0.00  0.00    +0.000 S 
ATOM     23  O   UNL     1       5.185   6.461  15.203  0.00  0.00    +0.000 OA
ATOM     24  O   UNL     1       6.500   4.749  16.500  0.00  0.00    +0.000 OA
BRANCH  22  25
ATOM     25  C   UNL     1       4.034   5.184  17.176  0.00  0.00    +0.000 A 
ATOM     26  C   UNL     1       3.628   3.875  16.907  0.00  0.00    +0.000 A 
ATOM     27  C   UNL     1       2.429   3.412  17.451  0.00  0.00    +0.000 A 
ATOM     28  C   UNL     1       1.660   4.247  18.266  0.00  0.00    +0.000 A 
ATOM     29  C   UNL     1       2.092   5.542  18.556  0.00  0.00    +0.000 A 
ATOM     30  C   UNL     1       3.285   6.013  18.016  0.00  0.00    +0.000 A 
ENDBRANCH  22  25
ENDBRANCH  21  22
ENDBRANCH  18  21
ENDBRANCH   1  18
TORSDOF 8
ENDMDL
