MODEL 1
REMARK VINA RESULT:      -8.2      0.000      0.000
REMARK  Name = 
REMARK  6 active torsions:
REMARK  status: ('A' for Active; 'I' for Inactive)
REMARK    1  A    between atoms: C_2  and  C_4
REMARK    2  A    between atoms: N_8  and  C_9
REMARK    3  A    between atoms: C_12  and  C_13
REMARK    4  A    between atoms: C_13  and  N_14
REMARK    5  A    between atoms: C_13  and  C_15
REMARK    6  A    between atoms: C_15  and  C_16
REMARK                            x       y       z     vdW  Elec       q    Type
REMARK                         _______ _______ _______ _____ _____    ______ ____
ROOT
ATOM      1  C   UNL     1       1.727   8.589  19.601  0.00  0.00    +0.000 C 
ATOM      2  C   UNL     1       1.829   7.145  20.140  0.00  0.00    +0.000 C 
ATOM      3  C   UNL     1       3.037   6.381  19.555  0.00  0.00    +0.000 C 
ATOM      4  C   UNL     1       3.103   6.415  18.016  0.00  0.00    +0.000 C 
ATOM      5  C   UNL     1       2.916   7.854  17.490  0.00  0.00    +0.000 C 
ATOM      6  C   UNL     1       1.687   8.548  18.065  0.00  0.00    +0.000 C 
ENDROOT
BRANCH   1  11
ATOM      7  C   UNL     1      -0.060  11.259  21.802  0.00  0.00    +0.000 C 
ATOM      8  C   UNL     1      -0.864  11.926  20.688  0.00  0.00    +0.000 C 
ATOM      9  C   UNL     1      -1.272  10.942  19.603  0.00  0.00    +0.000 C 
ATOM     10  C   UNL     1      -0.055  10.184  19.077  0.00  0.00    +0.000 C 
ATOM     11  N   UNL     1       0.623   9.434  20.142  0.00  0.00    +0.000 NA
ATOM     12  C   UNL     1       1.019  10.300  21.269  0.00  0.00    +0.000 C 
BRANCH   7  14
ATOM     13  N   UNL     1      -0.719   9.369  23.240  0.00  0.00    +0.000 N 
ATOM     14  C   UNL     1      -0.965  10.655  22.873  0.00  0.00    +0.000 C 
ATOM     15  O   UNL     1      -1.920  11.262  23.349  0.00  0.00    +0.000 OA
ATOM     16  H   UNL     1      -1.293   8.968  23.968  0.00  0.00    +0.000 HD
ATOM     17  H   UNL     1       0.130   8.891  22.959  0.00  0.00    +0.000 HD
ENDBRANCH   7  14
ENDBRANCH   1  11
BRANCH   4  18
ATOM     18  C   UNL     1       4.401   5.784  17.395  0.00  0.00    +0.000 C 
BRANCH  18  19
ATOM     19  N   UNL     1       5.584   5.953  18.246  0.00  0.00    +0.000 NA
ATOM     20  H   UNL     1       6.065   6.821  18.014  0.00  0.00    +0.000 HD
ATOM     21  H   UNL     1       6.248   5.201  18.069  0.00  0.00    +0.000 HD
ENDBRANCH  18  19
BRANCH  18  22
ATOM     22  C   UNL     1       4.302   4.286  17.002  0.00  0.00    +0.000 C 
BRANCH  22  23
ATOM     23  C   UNL     1       3.488   3.488  17.989  0.00  0.00    +0.000 A 
ATOM     24  C   UNL     1       2.137   3.207  17.737  0.00  0.00    +0.000 A 
ATOM     25  C   UNL     1       1.347   2.664  18.744  0.00  0.00    +0.000 A 
ATOM     26  F   UNL     1       0.040   2.473  18.521  0.00  0.00    +0.000 F 
ATOM     27  C   UNL     1       1.881   2.358  19.990  0.00  0.00    +0.000 A 
ATOM     28  C   UNL     1       3.243   2.550  20.217  0.00  0.00    +0.000 A 
ATOM     29  C   UNL     1       4.035   3.103  19.214  0.00  0.00    +0.000 A 
ATOM     30  F   UNL     1       5.337   3.305  19.462  0.00  0.00    +0.000 F 
ENDBRANCH  22  23
ENDBRANCH  18  22
ENDBRANCH   4  18
TORSDOF 6
ENDMDL
MODEL 2
REMARK VINA RESULT:      -8.1      3.966      8.306
REMARK  Name = 
REMARK  6 active torsions:
REMARK  status: ('A' for Active; 'I' for Inactive)
REMARK    1  A    between atoms: C_2  and  C_4
REMARK    2  A    between atoms: N_8  and  C_9
REMARK    3  A    between atoms: C_12  and  C_13
REMARK    4  A    between atoms: C_13  and  N_14
REMARK    5  A    between atoms: C_13  and  C_15
REMARK    6  A    between atoms: C_15  and  C_16
REMARK                            x       y       z     vdW  Elec       q    Type
REMARK                         _______ _______ _______ _____ _____    ______ ____
ROOT
ATOM      1  C   UNL     1       2.272   6.957  18.719  0.00  0.00    +0.000 C 
ATOM      2  C   UNL     1       2.145   7.252  20.231  0.00  0.00    +0.000 C 
ATOM      3  C   UNL     1       1.054   8.300  20.537  0.00  0.00    +0.000 C 
ATOM      4  C   UNL     1       1.197   9.598  19.720  0.00  0.00    +0.000 C 
ATOM      5  C   UNL     1       1.407   9.285  18.223  0.00  0.00    +0.000 C 
ATOM      6  C   UNL     1       2.523   8.277  17.972  0.00  0.00    +0.000 C 
ENDROOT
BRANCH   1  11
ATOM      7  C   UNL     1       3.639   3.558  17.398  0.00  0.00    +0.000 C 
ATOM      8  C   UNL     1       4.713   4.125  16.471  0.00  0.00    +0.000 C 
ATOM      9  C   UNL     1       5.308   5.420  17.002  0.00  0.00    +0.000 C 
ATOM     10  C   UNL     1       4.208   6.431  17.316  0.00  0.00    +0.000 C 
ATOM     11  N   UNL     1       3.264   5.917  18.317  0.00  0.00    +0.000 NA
ATOM     12  C   UNL     1       2.664   4.633  17.911  0.00  0.00    +0.000 C 
BRANCH   7  14
ATOM     13  N   UNL     1       3.998   1.343  18.416  0.00  0.00    +0.000 N 
ATOM     14  C   UNL     1       4.239   2.679  18.492  0.00  0.00    +0.000 C 
ATOM     15  O   UNL     1       4.858   3.143  19.445  0.00  0.00    +0.000 OA
ATOM     16  H   UNL     1       4.414   0.747  19.119  0.00  0.00    +0.000 HD
ATOM     17  H   UNL     1       3.602   0.922  17.582  0.00  0.00    +0.000 HD
ENDBRANCH   7  14
ENDBRANCH   1  11
BRANCH   4  18
ATOM     18  C   UNL     1       0.018  10.623  19.890  0.00  0.00    +0.000 C 
BRANCH  18  19
ATOM     19  N   UNL     1       0.236  11.568  20.990  0.00  0.00    +0.000 NA
ATOM     20  H   UNL     1      -0.609  12.111  21.163  0.00  0.00    +0.000 HD
ATOM     21  H   UNL     1       0.959  12.238  20.733  0.00  0.00    +0.000 HD
ENDBRANCH  18  19
BRANCH  18  22
ATOM     22  C   UNL     1      -0.358  11.437  18.624  0.00  0.00    +0.000 C 
BRANCH  22  23
ATOM     23  C   UNL     1      -1.740  11.106  18.120  0.00  0.00    +0.000 A 
ATOM     24  C   UNL     1      -1.913  10.242  17.029  0.00  0.00    +0.000 A 
ATOM     25  C   UNL     1      -3.168  10.116  16.442  0.00  0.00    +0.000 A 
ATOM     26  F   UNL     1      -3.308   9.351  15.352  0.00  0.00    +0.000 F 
ATOM     27  C   UNL     1      -4.267  10.806  16.940  0.00  0.00    +0.000 A 
ATOM     28  C   UNL     1      -4.120  11.596  18.080  0.00  0.00    +0.000 A 
ATOM     29  C   UNL     1      -2.863  11.731  18.665  0.00  0.00    +0.000 A 
ATOM     30  F   UNL     1      -2.738  12.517  19.743  0.00  0.00    +0.000 F 
ENDBRANCH  22  23
ENDBRANCH  18  22
ENDBRANCH   4  18
TORSDOF 6
ENDMDL
MODEL 3
REMARK VINA RESULT:      -8.1      2.587      4.279
REMARK  Name = 
REMARK  6 active torsions:
REMARK  status: ('A' for Active; 'I' for Inactive)
REMARK    1  A    between atoms: C_2  and  C_4
REMARK    2  A    between atoms: N_8  and  C_9
REMARK    3  A    between atoms: C_12  and  C_13
REMARK    4  A    between atoms: C_13  and  N_14
REMARK    5  A    between atoms: C_13  and  C_15
REMARK    6  A    between atoms: C_15  and  C_16
REMARK                            x       y       z     vdW  Elec       q    Type
REMARK                         _______ _______ _______ _____ _____    ______ ____
ROOT
ATOM      1  C   UNL     1       0.826   8.965  19.619  0.00  0.00    +0.000 C 
ATOM      2  C   UNL     1       1.849   8.960  18.460  0.00  0.00    +0.000 C 
ATOM      3  C   UNL     1       2.310   7.534  18.087  0.00  0.00    +0.000 C 
ATOM      4  C   UNL     1       2.816   6.714  19.289  0.00  0.00    +0.000 C 
ATOM      5  C   UNL     1       1.823   6.797  20.468  0.00  0.00    +0.000 C 
ATOM      6  C   UNL     1       1.432   8.227  20.824  0.00  0.00    +0.000 C 
ENDROOT
BRANCH   1  11
ATOM      7  C   UNL     1      -1.631  11.982  19.783  0.00  0.00    +0.000 C 
ATOM      8  C   UNL     1      -1.623  12.160  21.299  0.00  0.00    +0.000 C 
ATOM      9  C   UNL     1      -0.280  11.799  21.915  0.00  0.00    +0.000 C 
ATOM     10  C   UNL     1       0.152  10.399  21.485  0.00  0.00    +0.000 C 
ATOM     11  N   UNL     1       0.274  10.290  20.026  0.00  0.00    +0.000 NA
ATOM     12  C   UNL     1      -0.971  10.666  19.331  0.00  0.00    +0.000 C 
BRANCH   7  14
ATOM     13  N   UNL     1      -0.825  13.098  17.739  0.00  0.00    +0.000 N 
ATOM     14  C   UNL     1      -1.114  13.225  19.061  0.00  0.00    +0.000 C 
ATOM     15  O   UNL     1      -0.898  14.283  19.644  0.00  0.00    +0.000 OA
ATOM     16  H   UNL     1      -0.509  13.921  17.244  0.00  0.00    +0.000 HD
ATOM     17  H   UNL     1      -1.109  12.281  17.209  0.00  0.00    +0.000 HD
ENDBRANCH   7  14
ENDBRANCH   1  11
BRANCH   4  18
ATOM     18  C   UNL     1       3.145   5.211  18.974  0.00  0.00    +0.000 C 
BRANCH  18  19
ATOM     19  N   UNL     1       1.947   4.368  18.888  0.00  0.00    +0.000 NA
ATOM     20  H   UNL     1       1.438   4.386  19.771  0.00  0.00    +0.000 HD
ATOM     21  H   UNL     1       2.217   3.398  18.732  0.00  0.00    +0.000 HD
ENDBRANCH  18  19
BRANCH  18  22
ATOM     22  C   UNL     1       4.002   4.958  17.706  0.00  0.00    +0.000 C 
BRANCH  22  23
ATOM     23  C   UNL     1       5.392   5.528  17.832  0.00  0.00    +0.000 A 
ATOM     24  C   UNL     1       6.247   5.103  18.859  0.00  0.00    +0.000 A 
ATOM     25  C   UNL     1       7.436   5.786  19.095  0.00  0.00    +0.000 A 
ATOM     26  F   UNL     1       8.206   5.424  20.128  0.00  0.00    +0.000 F 
ATOM     27  C   UNL     1       7.812   6.866  18.304  0.00  0.00    +0.000 A 
ATOM     28  C   UNL     1       7.011   7.236  17.225  0.00  0.00    +0.000 A 
ATOM     29  C   UNL     1       5.816   6.560  16.992  0.00  0.00    +0.000 A 
ATOM     30  F   UNL     1       5.048   6.949  15.966  0.00  0.00    +0.000 F 
ENDBRANCH  22  23
ENDBRANCH  18  22
ENDBRANCH   4  18
TORSDOF 6
ENDMDL
MODEL 4
REMARK VINA RESULT:      -8.1      4.095      8.203
REMARK  Name = 
REMARK  6 active torsions:
REMARK  status: ('A' for Active; 'I' for Inactive)
REMARK    1  A    between atoms: C_2  and  C_4
REMARK    2  A    between atoms: N_8  and  C_9
REMARK    3  A    between atoms: C_12  and  C_13
REMARK    4  A    between atoms: C_13  and  N_14
REMARK    5  A    between atoms: C_13  and  C_15
REMARK    6  A    between atoms: C_15  and  C_16
REMARK                            x       y       z     vdW  Elec       q    Type
REMARK                         _______ _______ _______ _____ _____    ______ ____
ROOT
ATOM      1  C   UNL     1       1.961   6.479  19.255  0.00  0.00    +0.000 C 
ATOM      2  C   UNL     1       1.833   6.844  20.751  0.00  0.00    +0.000 C 
ATOM      3  C   UNL     1       0.927   8.072  20.983  0.00  0.00    +0.000 C 
ATOM      4  C   UNL     1       1.318   9.298  20.136  0.00  0.00    +0.000 C 
ATOM      5  C   UNL     1       1.524   8.901  18.658  0.00  0.00    +0.000 C 
ATOM      6  C   UNL     1       2.459   7.711  18.481  0.00  0.00    +0.000 C 
ENDROOT
BRANCH   1  11
ATOM      7  C   UNL     1       3.076   3.252  17.381  0.00  0.00    +0.000 C 
ATOM      8  C   UNL     1       4.566   3.575  17.301  0.00  0.00    +0.000 C 
ATOM      9  C   UNL     1       5.047   4.373  18.503  0.00  0.00    +0.000 C 
ATOM     10  C   UNL     1       4.186   5.617  18.707  0.00  0.00    +0.000 C 
ATOM     11  N   UNL     1       2.774   5.273  18.922  0.00  0.00    +0.000 NA
ATOM     12  C   UNL     1       2.224   4.456  17.825  0.00  0.00    +0.000 C 
BRANCH   7  14
ATOM     13  N   UNL     1       1.540   1.756  18.597  0.00  0.00    +0.000 N 
ATOM     14  C   UNL     1       2.813   1.971  18.170  0.00  0.00    +0.000 C 
ATOM     15  O   UNL     1       3.708   1.189  18.475  0.00  0.00    +0.000 OA
ATOM     16  H   UNL     1       1.348   0.898  19.096  0.00  0.00    +0.000 HD
ATOM     17  H   UNL     1       0.765   2.315  18.256  0.00  0.00    +0.000 HD
ENDBRANCH   7  14
ENDBRANCH   1  11
BRANCH   4  18
ATOM     18  C   UNL     1       0.326  10.512  20.229  0.00  0.00    +0.000 C 
BRANCH  18  19
ATOM     19  N   UNL     1       0.748  11.522  21.206  0.00  0.00    +0.000 NA
ATOM     20  H   UNL     1       0.375  12.436  20.954  0.00  0.00    +0.000 HD
ATOM     21  H   UNL     1       1.763  11.612  21.195  0.00  0.00    +0.000 HD
ENDBRANCH  18  19
BRANCH  18  22
ATOM     22  C   UNL     1       0.018  11.237  18.892  0.00  0.00    +0.000 C 
BRANCH  22  23
ATOM     23  C   UNL     1      -1.378  10.954  18.397  0.00  0.00    +0.000 A 
ATOM     24  C   UNL     1      -1.588  10.097  17.307  0.00  0.00    +0.000 A 
ATOM     25  C   UNL     1      -2.850  10.015  16.728  0.00  0.00    +0.000 A 
ATOM     26  F   UNL     1      -3.023   9.256  15.638  0.00  0.00    +0.000 F 
ATOM     27  C   UNL     1      -3.921  10.741  17.233  0.00  0.00    +0.000 A 
ATOM     28  C   UNL     1      -3.740  11.524  18.372  0.00  0.00    +0.000 A 
ATOM     29  C   UNL     1      -2.476  11.616  18.949  0.00  0.00    +0.000 A 
ATOM     30  F   UNL     1      -2.318  12.397  20.027  0.00  0.00    +0.000 F 
ENDBRANCH  22  23
ENDBRANCH  18  22
ENDBRANCH   4  18
TORSDOF 6
ENDMDL
MODEL 5
REMARK VINA RESULT:      -8.1      4.110      8.337
REMARK  Name = 
REMARK  6 active torsions:
REMARK  status: ('A' for Active; 'I' for Inactive)
REMARK    1  A    between atoms: C_2  and  C_4
REMARK    2  A    between atoms: N_8  and  C_9
REMARK    3  A    between atoms: C_12  and  C_13
REMARK    4  A    between atoms: C_13  and  N_14
REMARK    5  A    between atoms: C_13  and  C_15
REMARK    6  A    between atoms: C_15  and  C_16
REMARK                            x       y       z     vdW  Elec       q    Type
REMARK                         _______ _______ _______ _____ _____    ______ ____
ROOT
ATOM      1  C   UNL     1       2.268   6.948  18.706  0.00  0.00    +0.000 C 
ATOM      2  C   UNL     1       2.131   7.209  20.223  0.00  0.00    +0.000 C 
ATOM      3  C   UNL     1       1.024   8.235  20.548  0.00  0.00    +0.000 C 
ATOM      4  C   UNL     1       1.151   9.552  19.758  0.00  0.00    +0.000 C 
ATOM      5  C   UNL     1       1.371   9.273  18.256  0.00  0.00    +0.000 C 
ATOM      6  C   UNL     1       2.501   8.286  17.988  0.00  0.00    +0.000 C 
ENDROOT
BRANCH   1  11
ATOM      7  C   UNL     1       5.312   4.531  18.951  0.00  0.00    +0.000 C 
ATOM      8  C   UNL     1       4.656   3.320  18.292  0.00  0.00    +0.000 C 
ATOM      9  C   UNL     1       3.651   3.721  17.222  0.00  0.00    +0.000 C 
ATOM     10  C   UNL     1       2.631   4.710  17.783  0.00  0.00    +0.000 C 
ATOM     11  N   UNL     1       3.275   5.931  18.286  0.00  0.00    +0.000 NA
ATOM     12  C   UNL     1       4.304   5.642  19.301  0.00  0.00    +0.000 C 
BRANCH   7  14
ATOM     13  N   UNL     1       6.384   6.133  17.417  0.00  0.00    +0.000 N 
ATOM     14  C   UNL     1       6.533   5.012  18.171  0.00  0.00    +0.000 C 
ATOM     15  O   UNL     1       7.592   4.393  18.158  0.00  0.00    +0.000 OA
ATOM     16  H   UNL     1       7.193   6.477  16.918  0.00  0.00    +0.000 HD
ATOM     17  H   UNL     1       5.568   6.729  17.507  0.00  0.00    +0.000 HD
ENDBRANCH   7  14
ENDBRANCH   1  11
BRANCH   4  18
ATOM     18  C   UNL     1      -0.043  10.555  19.945  0.00  0.00    +0.000 C 
BRANCH  18  19
ATOM     19  N   UNL     1       0.143  11.460  21.085  0.00  0.00    +0.000 NA
ATOM     20  H   UNL     1      -0.094  12.415  20.822  0.00  0.00    +0.000 HD
ATOM     21  H   UNL     1       1.124  11.473  21.360  0.00  0.00    +0.000 HD
ENDBRANCH  18  19
BRANCH  18  22
ATOM     22  C   UNL     1      -0.404  11.415  18.705  0.00  0.00    +0.000 C 
BRANCH  22  23
ATOM     23  C   UNL     1      -1.780  11.101  18.173  0.00  0.00    +0.000 A 
ATOM     24  C   UNL     1      -1.941  10.246  17.073  0.00  0.00    +0.000 A 
ATOM     25  C   UNL     1      -3.186  10.137  16.461  0.00  0.00    +0.000 A 
ATOM     26  F   UNL     1      -3.313   9.382  15.363  0.00  0.00    +0.000 F 
ATOM     27  C   UNL     1      -4.287  10.834  16.944  0.00  0.00    +0.000 A 
ATOM     28  C   UNL     1      -4.154  11.614  18.092  0.00  0.00    +0.000 A 
ATOM     29  C   UNL     1      -2.907  11.733  18.701  0.00  0.00    +0.000 A 
ATOM     30  F   UNL     1      -2.795  12.509  19.788  0.00  0.00    +0.000 F 
ENDBRANCH  22  23
ENDBRANCH  18  22
ENDBRANCH   4  18
TORSDOF 6
ENDMDL
MODEL 6
REMARK VINA RESULT:      -8.0      3.910      8.162
REMARK  Name = 
REMARK  6 active torsions:
REMARK  status: ('A' for Active; 'I' for Inactive)
REMARK    1  A    between atoms: C_2  and  C_4
REMARK    2  A    between atoms: N_8  and  C_9
REMARK    3  A    between atoms: C_12  and  C_13
REMARK    4  A    between atoms: C_13  and  N_14
REMARK    5  A    between atoms: C_13  and  C_15
REMARK    6  A    between atoms: C_15  and  C_16
REMARK                            x       y       z     vdW  Elec       q    Type
REMARK                         _______ _______ _______ _____ _____    ______ ____
ROOT
ATOM      1  C   UNL     1       1.811   6.219  19.255  0.00  0.00    +0.000 C 
ATOM      2  C   UNL     1       1.662   6.582  20.750  0.00  0.00    +0.000 C 
ATOM      3  C   UNL     1       0.892   7.903  20.962  0.00  0.00    +0.000 C 
ATOM      4  C   UNL     1       1.455   9.084  20.148  0.00  0.00    +0.000 C 
ATOM      5  C   UNL     1       1.677   8.681  18.675  0.00  0.00    +0.000 C 
ATOM      6  C   UNL     1       2.478   7.393  18.520  0.00  0.00    +0.000 C 
ENDROOT
BRANCH   1  11
ATOM      7  C   UNL     1       3.124   2.586  19.748  0.00  0.00    +0.000 C 
ATOM      8  C   UNL     1       2.703   2.038  18.386  0.00  0.00    +0.000 C 
ATOM      9  C   UNL     1       2.771   3.095  17.294  0.00  0.00    +0.000 C 
ATOM     10  C   UNL     1       1.982   4.339  17.697  0.00  0.00    +0.000 C 
ATOM     11  N   UNL     1       2.495   4.931  18.939  0.00  0.00    +0.000 NA
ATOM     12  C   UNL     1       2.513   3.966  20.053  0.00  0.00    +0.000 C 
BRANCH   7  14
ATOM     13  N   UNL     1       5.395   3.435  19.306  0.00  0.00    +0.000 N 
ATOM     14  C   UNL     1       4.635   2.509  19.950  0.00  0.00    +0.000 C 
ATOM     15  O   UNL     1       5.169   1.619  20.606  0.00  0.00    +0.000 OA
ATOM     16  H   UNL     1       6.394   3.412  19.454  0.00  0.00    +0.000 HD
ATOM     17  H   UNL     1       4.979   4.248  18.865  0.00  0.00    +0.000 HD
ENDBRANCH   7  14
ENDBRANCH   1  11
BRANCH   4  18
ATOM     18  C   UNL     1       0.605  10.403  20.218  0.00  0.00    +0.000 C 
BRANCH  18  19
ATOM     19  N   UNL     1       1.158  11.392  21.150  0.00  0.00    +0.000 NA
ATOM     20  H   UNL     1       1.497  10.933  21.993  0.00  0.00    +0.000 HD
ATOM     21  H   UNL     1       0.425  12.035  21.447  0.00  0.00    +0.000 HD
ENDBRANCH  18  19
BRANCH  18  22
ATOM     22  C   UNL     1       0.345  11.113  18.862  0.00  0.00    +0.000 C 
BRANCH  22  23
ATOM     23  C   UNL     1      -1.117  11.130  18.497  0.00  0.00    +0.000 A 
ATOM     24  C   UNL     1      -1.995  12.034  19.113  0.00  0.00    +0.000 A 
ATOM     25  C   UNL     1      -3.367  11.896  18.929  0.00  0.00    +0.000 A 
ATOM     26  F   UNL     1      -4.202  12.714  19.584  0.00  0.00    +0.000 F 
ATOM     27  C   UNL     1      -3.887  10.897  18.115  0.00  0.00    +0.000 A 
ATOM     28  C   UNL     1      -3.015  10.052  17.429  0.00  0.00    +0.000 A 
ATOM     29  C   UNL     1      -1.642  10.181  17.617  0.00  0.00    +0.000 A 
ATOM     30  F   UNL     1      -0.823   9.341  16.969  0.00  0.00    +0.000 F 
ENDBRANCH  22  23
ENDBRANCH  18  22
ENDBRANCH   4  18
TORSDOF 6
ENDMDL
MODEL 7
REMARK VINA RESULT:      -8.0      3.880      8.090
REMARK  Name = 
REMARK  6 active torsions:
REMARK  status: ('A' for Active; 'I' for Inactive)
REMARK    1  A    between atoms: C_2  and  C_4
REMARK    2  A    between atoms: N_8  and  C_9
REMARK    3  A    between atoms: C_12  and  C_13
REMARK    4  A    between atoms: C_13  and  N_14
REMARK    5  A    between atoms: C_13  and  C_15
REMARK    6  A    between atoms: C_15  and  C_16
REMARK                            x       y       z     vdW  Elec       q    Type
REMARK                         _______ _______ _______ _____ _____    ______ ____
ROOT
ATOM      1  C   UNL     1       1.769   6.335  19.210  0.00  0.00    +0.000 C 
ATOM      2  C   UNL     1       1.645   6.693  20.709  0.00  0.00    +0.000 C 
ATOM      3  C   UNL     1       0.883   8.016  20.938  0.00  0.00    +0.000 C 
ATOM      4  C   UNL     1       1.438   9.198  20.119  0.00  0.00    +0.000 C 
ATOM      5  C   UNL     1       1.634   8.798  18.641  0.00  0.00    +0.000 C 
ATOM      6  C   UNL     1       2.427   7.508  18.468  0.00  0.00    +0.000 C 
ENDROOT
BRANCH   1  11
ATOM      7  C   UNL     1       3.150   2.726  19.699  0.00  0.00    +0.000 C 
ATOM      8  C   UNL     1       2.642   2.141  18.383  0.00  0.00    +0.000 C 
ATOM      9  C   UNL     1       2.623   3.171  17.264  0.00  0.00    +0.000 C 
ATOM     10  C   UNL     1       1.851   4.418  17.690  0.00  0.00    +0.000 C 
ATOM     11  N   UNL     1       2.442   5.045  18.879  0.00  0.00    +0.000 NA
ATOM     12  C   UNL     1       2.547   4.108  20.013  0.00  0.00    +0.000 C 
BRANCH   7  14
ATOM     13  N   UNL     1       5.216   1.546  20.340  0.00  0.00    +0.000 N 
ATOM     14  C   UNL     1       4.673   2.668  19.798  0.00  0.00    +0.000 C 
ATOM     15  O   UNL     1       5.391   3.608  19.471  0.00  0.00    +0.000 OA
ATOM     16  H   UNL     1       6.224   1.484  20.385  0.00  0.00    +0.000 HD
ATOM     17  H   UNL     1       4.661   0.712  20.501  0.00  0.00    +0.000 HD
ENDBRANCH   7  14
ENDBRANCH   1  11
BRANCH   4  18
ATOM     18  C   UNL     1       0.593  10.520  20.206  0.00  0.00    +0.000 C 
BRANCH  18  19
ATOM     19  N   UNL     1       1.210  11.537  21.065  0.00  0.00    +0.000 NA
ATOM     20  H   UNL     1       0.858  11.456  22.018  0.00  0.00    +0.000 HD
ATOM     21  H   UNL     1       0.950  12.467  20.741  0.00  0.00    +0.000 HD
ENDBRANCH  18  19
BRANCH  18  22
ATOM     22  C   UNL     1       0.238  11.186  18.851  0.00  0.00    +0.000 C 
BRANCH  22  23
ATOM     23  C   UNL     1      -1.202  10.964  18.465  0.00  0.00    +0.000 A 
ATOM     24  C   UNL     1      -1.534  10.078  17.430  0.00  0.00    +0.000 A 
ATOM     25  C   UNL     1      -2.836  10.045  16.941  0.00  0.00    +0.000 A 
ATOM     26  F   UNL     1      -3.126   9.255  15.900  0.00  0.00    +0.000 F 
ATOM     27  C   UNL     1      -3.828  10.852  17.486  0.00  0.00    +0.000 A 
ATOM     28  C   UNL     1      -3.525  11.669  18.575  0.00  0.00    +0.000 A 
ATOM     29  C   UNL     1      -2.221  11.711  19.060  0.00  0.00    +0.000 A 
ATOM     30  F   UNL     1      -1.945  12.523  20.089  0.00  0.00    +0.000 F 
ENDBRANCH  22  23
ENDBRANCH  18  22
ENDBRANCH   4  18
TORSDOF 6
ENDMDL
MODEL 8
REMARK VINA RESULT:      -8.0      4.348      8.519
REMARK  Name = 
REMARK  6 active torsions:
REMARK  status: ('A' for Active; 'I' for Inactive)
REMARK    1  A    between atoms: C_2  and  C_4
REMARK    2  A    between atoms: N_8  and  C_9
REMARK    3  A    between atoms: C_12  and  C_13
REMARK    4  A    between atoms: C_13  and  N_14
REMARK    5  A    between atoms: C_13  and  C_15
REMARK    6  A    between atoms: C_15  and  C_16
REMARK                            x       y       z     vdW  Elec       q    Type
REMARK                         _______ _______ _______ _____ _____    ______ ____
ROOT
ATOM      1  C   UNL     1       2.760   6.846  18.434  0.00  0.00    +0.000 C 
ATOM      2  C   UNL     1       2.517   6.994  19.953  0.00  0.00    +0.000 C 
ATOM      3  C   UNL     1       1.260   7.832  20.271  0.00  0.00    +0.000 C 
ATOM      4  C   UNL     1       1.232   9.199  19.559  0.00  0.00    +0.000 C 
ATOM      5  C   UNL     1       1.559   9.044  18.059  0.00  0.00    +0.000 C 
ATOM      6  C   UNL     1       2.831   8.245  17.801  0.00  0.00    +0.000 C 
ENDROOT
BRANCH   1  11
ATOM      7  C   UNL     1       6.365   5.964  17.253  0.00  0.00    +0.000 C 
ATOM      8  C   UNL     1       6.613   4.811  18.223  0.00  0.00    +0.000 C 
ATOM      9  C   UNL     1       5.339   4.043  18.542  0.00  0.00    +0.000 C 
ATOM     10  C   UNL     1       4.243   4.990  19.024  0.00  0.00    +0.000 C 
ATOM     11  N   UNL     1       3.922   6.009  18.015  0.00  0.00    +0.000 NA
ATOM     12  C   UNL     1       5.108   6.782  17.604  0.00  0.00    +0.000 C 
BRANCH   7  14
ATOM     13  N   UNL     1       5.268   5.107  15.219  0.00  0.00    +0.000 N 
ATOM     14  C   UNL     1       6.432   5.508  15.798  0.00  0.00    +0.000 C 
ATOM     15  O   UNL     1       7.489   5.434  15.178  0.00  0.00    +0.000 OA
ATOM     16  H   UNL     1       5.295   4.830  14.248  0.00  0.00    +0.000 HD
ATOM     17  H   UNL     1       4.371   5.275  15.661  0.00  0.00    +0.000 HD
ENDBRANCH   7  14
ENDBRANCH   1  11
BRANCH   4  18
ATOM     18  C   UNL     1      -0.101  10.010  19.734  0.00  0.00    +0.000 C 
BRANCH  18  19
ATOM     19  N   UNL     1      -0.200  10.675  21.039  0.00  0.00    +0.000 NA
ATOM     20  H   UNL     1       0.701  11.072  21.302  0.00  0.00    +0.000 HD
ATOM     21  H   UNL     1      -0.434   9.993  21.758  0.00  0.00    +0.000 HD
ENDBRANCH  18  19
BRANCH  18  22
ATOM     22  C   UNL     1      -0.401  11.064  18.635  0.00  0.00    +0.000 C 
BRANCH  22  23
ATOM     23  C   UNL     1      -1.772  10.889  18.034  0.00  0.00    +0.000 A 
ATOM     24  C   UNL     1      -1.958  10.083  16.901  0.00  0.00    +0.000 A 
ATOM     25  C   UNL     1      -3.178  10.103  16.233  0.00  0.00    +0.000 A 
ATOM     26  F   UNL     1      -3.320   9.392  15.107  0.00  0.00    +0.000 F 
ATOM     27  C   UNL     1      -4.234  10.882  16.690  0.00  0.00    +0.000 A 
ATOM     28  C   UNL     1      -4.086  11.615  17.867  0.00  0.00    +0.000 A 
ATOM     29  C   UNL     1      -2.863  11.605  18.533  0.00  0.00    +0.000 A 
ATOM     30  F   UNL     1      -2.733  12.338  19.647  0.00  0.00    +0.000 F 
ENDBRANCH  22  23
ENDBRANCH  18  22
ENDBRANCH   4  18
TORSDOF 6
ENDMDL
MODEL 9
REMARK VINA RESULT:      -8.0      3.879      8.240
REMARK  Name = 
REMARK  6 active torsions:
REMARK  status: ('A' for Active; 'I' for Inactive)
REMARK    1  A    between atoms: C_2  and  C_4
REMARK    2  A    between atoms: N_8  and  C_9
REMARK    3  A    between atoms: C_12  and  C_13
REMARK    4  A    between atoms: C_13  and  N_14
REMARK    5  A    between atoms: C_13  and  C_15
REMARK    6  A    between atoms: C_15  and  C_16
REMARK                            x       y       z     vdW  Elec       q    Type
REMARK                         _______ _______ _______ _____ _____    ______ ____
ROOT
ATOM      1  C   UNL     1       2.056   6.504  19.113  0.00  0.00    +0.000 C 
ATOM      2  C   UNL     1       1.890   6.832  20.614  0.00  0.00    +0.000 C 
ATOM      3  C   UNL     1       0.975   8.054  20.852  0.00  0.00    +0.000 C 
ATOM      4  C   UNL     1       1.386   9.300  20.044  0.00  0.00    +0.000 C 
ATOM      5  C   UNL     1       1.630   8.939  18.563  0.00  0.00    +0.000 C 
ATOM      6  C   UNL     1       2.571   7.754  18.382  0.00  0.00    +0.000 C 
ENDROOT
BRANCH   1  11
ATOM      7  C   UNL     1       3.049   3.137  17.426  0.00  0.00    +0.000 C 
ATOM      8  C   UNL     1       4.479   3.519  17.051  0.00  0.00    +0.000 C 
ATOM      9  C   UNL     1       5.104   4.472  18.059  0.00  0.00    +0.000 C 
ATOM     10  C   UNL     1       4.208   5.690  18.277  0.00  0.00    +0.000 C 
ATOM     11  N   UNL     1       2.880   5.307  18.773  0.00  0.00    +0.000 NA
ATOM     12  C   UNL     1       2.207   4.343  17.882  0.00  0.00    +0.000 C 
BRANCH   7  14
ATOM     13  N   UNL     1       3.933   0.966  18.188  0.00  0.00    +0.000 N 
ATOM     14  C   UNL     1       3.010   1.946  18.380  0.00  0.00    +0.000 C 
ATOM     15  O   UNL     1       2.149   1.823  19.247  0.00  0.00    +0.000 OA
ATOM     16  H   UNL     1       3.935   0.186  18.830  0.00  0.00    +0.000 HD
ATOM     17  H   UNL     1       4.725   1.098  17.568  0.00  0.00    +0.000 HD
ENDBRANCH   7  14
ENDBRANCH   1  11
BRANCH   4  18
ATOM     18  C   UNL     1       0.390  10.510  20.141  0.00  0.00    +0.000 C 
BRANCH  18  19
ATOM     19  N   UNL     1       0.800  11.511  21.133  0.00  0.00    +0.000 NA
ATOM     20  H   UNL     1       1.192  11.054  21.955  0.00  0.00    +0.000 HD
ATOM     21  H   UNL     1      -0.014  12.032  21.455  0.00  0.00    +0.000 HD
ENDBRANCH  18  19
BRANCH  18  22
ATOM     22  C   UNL     1       0.092  11.249  18.809  0.00  0.00    +0.000 C 
BRANCH  22  23
ATOM     23  C   UNL     1      -1.363  11.165  18.422  0.00  0.00    +0.000 A 
ATOM     24  C   UNL     1      -2.307  12.025  19.004  0.00  0.00    +0.000 A 
ATOM     25  C   UNL     1      -3.664  11.795  18.803  0.00  0.00    +0.000 A 
ATOM     26  F   UNL     1      -4.559  12.572  19.427  0.00  0.00    +0.000 F 
ATOM     27  C   UNL     1      -4.105  10.747  18.005  0.00  0.00    +0.000 A 
ATOM     28  C   UNL     1      -3.171   9.944  17.351  0.00  0.00    +0.000 A 
ATOM     29  C   UNL     1      -1.812  10.165  17.557  0.00  0.00    +0.000 A 
ATOM     30  F   UNL     1      -0.931   9.365  16.941  0.00  0.00    +0.000 F 
ENDBRANCH  22  23
ENDBRANCH  18  22
ENDBRANCH   4  18
TORSDOF 6
ENDMDL
