MODEL 1
REMARK VINA RESULT:      -6.8      0.000      0.000
REMARK  Name = 
REMARK  9 active torsions:
REMARK  status: ('A' for Active; 'I' for Inactive)
REMARK    1  A    between atoms: C_1  and  O_2
REMARK    2  A    between atoms: O_2  and  C_3
REMARK    3  A    between atoms: C_3  and  C_5
REMARK    4  A    between atoms: C_5  and  S_6
REMARK    5  A    between atoms: S_6  and  C_7
REMARK    6  A    between atoms: C_10  and  C_11
REMARK    7  A    between atoms: C_15  and  O_16
REMARK    8  A    between atoms: O_16  and  C_17
REMARK    9  A    between atoms: N_23  and  C_24
REMARK                            x       y       z     vdW  Elec       q    Type
REMARK                         _______ _______ _______ _____ _____    ______ ____
ROOT
ATOM      1  C   UNL     1       5.187   4.657  16.738  0.00  0.00    +0.000 A 
ATOM      2  N   UNL     1       4.139   3.879  16.832  0.00  0.00    +0.000 NA
ATOM      3  N   UNL     1       3.197   4.551  17.575  0.00  0.00    +0.000 NA
ATOM      4  C   UNL     1       3.679   5.740  17.895  0.00  0.00    +0.000 A 
ATOM      5  N   UNL     1       4.975   5.820  17.432  0.00  0.00    +0.000 N 
ATOM      6  C   UNL     1       5.946   6.868  17.614  0.00  0.00    +0.000 C 
ENDROOT
BRANCH   4   7
ATOM      7  C   UNL     1       2.907   6.747  18.572  0.00  0.00    +0.000 A 
ATOM      8  S   UNL     1       2.534   8.232  17.809  0.00  0.00    +0.000 S 
ATOM      9  C   UNL     1       1.683   8.830  19.167  0.00  0.00    +0.000 A 
ATOM     10  C   UNL     1       1.120  10.113  19.301  0.00  0.00    +0.000 A 
ATOM     11  C   UNL     1       0.397  10.435  20.451  0.00  0.00    +0.000 A 
ATOM     12  C   UNL     1       0.242   9.487  21.453  0.00  0.00    +0.000 A 
ATOM     13  C   UNL     1       0.826   8.217  21.325  0.00  0.00    +0.000 A 
ATOM     14  C   UNL     1       1.574   7.869  20.170  0.00  0.00    +0.000 A 
ATOM     15  C   UNL     1       2.289   6.667  19.809  0.00  0.00    +0.000 A 
ATOM     16 CL   UNL     1       2.360   5.316  20.877  0.00  0.00    +0.000 Cl
BRANCH  11  17
ATOM     17  O   UNL     1      -0.101  11.708  20.455  0.00  0.00    +0.000 OA
ATOM     18  C   UNL     1      -1.061  12.029  19.456  0.00  0.00    +0.000 C 
ENDBRANCH  11  17
ENDBRANCH   4   7
BRANCH   1  19
ATOM     19  S   UNL     1       6.640   4.325  15.871  0.00  0.00    +0.000 S 
BRANCH  19  20
ATOM     20  C   UNL     1       5.994   4.174  14.178  0.00  0.00    +0.000 C 
BRANCH  20  21
ATOM     21  C   UNL     1       7.032   4.610  13.165  0.00  0.00    +0.000 C 
ATOM     22  O   UNL     1       7.808   5.553  13.269  0.00  0.00    +0.000 OA
BRANCH  21  24
ATOM     23  C   UNL     1       5.724   3.110  11.930  0.00  0.00    +0.000 C 
ATOM     24  O   UNL     1       6.974   3.790  12.070  0.00  0.00    +0.000 OA
ENDBRANCH  21  24
ENDBRANCH  20  21
ENDBRANCH  19  20
ENDBRANCH   1  19
TORSDOF 6
ENDMDL
MODEL 2
REMARK VINA RESULT:      -6.3      3.442      4.364
REMARK  Name = 
REMARK  9 active torsions:
REMARK  status: ('A' for Active; 'I' for Inactive)
REMARK    1  A    between atoms: C_1  and  O_2
REMARK    2  A    between atoms: O_2  and  C_3
REMARK    3  A    between atoms: C_3  and  C_5
REMARK    4  A    between atoms: C_5  and  S_6
REMARK    5  A    between atoms: S_6  and  C_7
REMARK    6  A    between atoms: C_10  and  C_11
REMARK    7  A    between atoms: C_15  and  O_16
REMARK    8  A    between atoms: O_16  and  C_17
REMARK    9  A    between atoms: N_23  and  C_24
REMARK                            x       y       z     vdW  Elec       q    Type
REMARK                         _______ _______ _______ _____ _____    ______ ____
ROOT
ATOM      1  C   UNL     1       3.835   4.056  17.938  0.00  0.00    +0.000 A 
ATOM      2  N   UNL     1       4.939   4.739  18.108  0.00  0.00    +0.000 NA
ATOM      3  N   UNL     1       4.578   6.035  18.391  0.00  0.00    +0.000 NA
ATOM      4  C   UNL     1       3.258   6.112  18.415  0.00  0.00    +0.000 A 
ATOM      5  N   UNL     1       2.747   4.880  18.067  0.00  0.00    +0.000 N 
ATOM      6  C   UNL     1       1.377   4.485  17.859  0.00  0.00    +0.000 C 
ENDROOT
BRANCH   4   7
ATOM      7  C   UNL     1       2.545   7.301  18.795  0.00  0.00    +0.000 A 
ATOM      8  S   UNL     1       2.477   8.659  17.756  0.00  0.00    +0.000 S 
ATOM      9  C   UNL     1       1.540   9.577  18.853  0.00  0.00    +0.000 A 
ATOM     10  C   UNL     1       1.141  10.917  18.692  0.00  0.00    +0.000 A 
ATOM     11  C   UNL     1       0.322  11.515  19.651  0.00  0.00    +0.000 A 
ATOM     12  C   UNL     1      -0.089  10.783  20.757  0.00  0.00    +0.000 A 
ATOM     13  C   UNL     1       0.331   9.455  20.925  0.00  0.00    +0.000 A 
ATOM     14  C   UNL     1       1.173   8.828  19.969  0.00  0.00    +0.000 A 
ATOM     15  C   UNL     1       1.763   7.510  19.920  0.00  0.00    +0.000 A 
ATOM     16 CL   UNL     1       1.511   6.371  21.189  0.00  0.00    +0.000 Cl
BRANCH  11  17
ATOM     17  O   UNL     1       0.001  12.815  19.374  0.00  0.00    +0.000 OA
ATOM     18  C   UNL     1      -0.712  13.062  18.169  0.00  0.00    +0.000 C 
ENDBRANCH  11  17
ENDBRANCH   4   7
BRANCH   1  19
ATOM     19  S   UNL     1       3.710   2.368  17.613  0.00  0.00    +0.000 S 
BRANCH  19  20
ATOM     20  C   UNL     1       3.028   1.771  19.189  0.00  0.00    +0.000 C 
BRANCH  20  21
ATOM     21  C   UNL     1       3.945   2.125  20.341  0.00  0.00    +0.000 C 
ATOM     22  O   UNL     1       5.159   1.968  20.387  0.00  0.00    +0.000 OA
BRANCH  21  24
ATOM     23  C   UNL     1       1.801   2.677  21.105  0.00  0.00    +0.000 C 
ATOM     24  O   UNL     1       3.206   2.649  21.368  0.00  0.00    +0.000 OA
ENDBRANCH  21  24
ENDBRANCH  20  21
ENDBRANCH  19  20
ENDBRANCH   1  19
TORSDOF 6
ENDMDL
MODEL 3
REMARK VINA RESULT:      -6.3      0.843      1.284
REMARK  Name = 
REMARK  9 active torsions:
REMARK  status: ('A' for Active; 'I' for Inactive)
REMARK    1  A    between atoms: C_1  and  O_2
REMARK    2  A    between atoms: O_2  and  C_3
REMARK    3  A    between atoms: C_3  and  C_5
REMARK    4  A    between atoms: C_5  and  S_6
REMARK    5  A    between atoms: S_6  and  C_7
REMARK    6  A    between atoms: C_10  and  C_11
REMARK    7  A    between atoms: C_15  and  O_16
REMARK    8  A    between atoms: O_16  and  C_17
REMARK    9  A    between atoms: N_23  and  C_24
REMARK                            x       y       z     vdW  Elec       q    Type
REMARK                         _______ _______ _______ _____ _____    ______ ____
ROOT
ATOM      1  C   UNL     1       4.519   4.315  16.846  0.00  0.00    +0.000 A 
ATOM      2  N   UNL     1       3.414   3.650  17.067  0.00  0.00    +0.000 NA
ATOM      3  N   UNL     1       2.591   4.461  17.812  0.00  0.00    +0.000 NA
ATOM      4  C   UNL     1       3.201   5.618  18.008  0.00  0.00    +0.000 A 
ATOM      5  N   UNL     1       4.463   5.540  17.459  0.00  0.00    +0.000 N 
ATOM      6  C   UNL     1       5.536   6.500  17.498  0.00  0.00    +0.000 C 
ENDROOT
BRANCH   4   7
ATOM      7  C   UNL     1       2.573   6.741  18.652  0.00  0.00    +0.000 A 
ATOM      8  S   UNL     1       2.280   8.195  17.799  0.00  0.00    +0.000 S 
ATOM      9  C   UNL     1       1.586   8.968  19.157  0.00  0.00    +0.000 A 
ATOM     10  C   UNL     1       1.153  10.306  19.225  0.00  0.00    +0.000 A 
ATOM     11  C   UNL     1       0.547  10.777  20.391  0.00  0.00    +0.000 A 
ATOM     12  C   UNL     1       0.381   9.925  21.473  0.00  0.00    +0.000 A 
ATOM     13  C   UNL     1       0.837   8.599  21.409  0.00  0.00    +0.000 A 
ATOM     14  C   UNL     1       1.466   8.098  20.239  0.00  0.00    +0.000 A 
ATOM     15  C   UNL     1       2.042   6.811  19.929  0.00  0.00    +0.000 A 
ATOM     16 CL   UNL     1       2.069   5.541  21.095  0.00  0.00    +0.000 Cl
BRANCH  11  17
ATOM     17  O   UNL     1       0.166  12.089  20.325  0.00  0.00    +0.000 OA
ATOM     18  C   UNL     1       1.036  13.045  20.919  0.00  0.00    +0.000 C 
ENDBRANCH  11  17
ENDBRANCH   4   7
BRANCH   1  19
ATOM     19  S   UNL     1       5.871   3.783  15.918  0.00  0.00    +0.000 S 
BRANCH  19  20
ATOM     20  C   UNL     1       5.484   4.526  14.304  0.00  0.00    +0.000 C 
BRANCH  20  21
ATOM     21  C   UNL     1       6.678   4.447  13.376  0.00  0.00    +0.000 C 
ATOM     22  O   UNL     1       6.786   3.747  12.375  0.00  0.00    +0.000 OA
BRANCH  21  24
ATOM     23  C   UNL     1       8.485   5.817  12.789  0.00  0.00    +0.000 C 
ATOM     24  O   UNL     1       7.665   5.280  13.830  0.00  0.00    +0.000 OA
ENDBRANCH  21  24
ENDBRANCH  20  21
ENDBRANCH  19  20
ENDBRANCH   1  19
TORSDOF 6
ENDMDL
MODEL 4
REMARK VINA RESULT:      -6.2      2.388      2.983
REMARK  Name = 
REMARK  9 active torsions:
REMARK  status: ('A' for Active; 'I' for Inactive)
REMARK    1  A    between atoms: C_1  and  O_2
REMARK    2  A    between atoms: O_2  and  C_3
REMARK    3  A    between atoms: C_3  and  C_5
REMARK    4  A    between atoms: C_5  and  S_6
REMARK    5  A    between atoms: S_6  and  C_7
REMARK    6  A    between atoms: C_10  and  C_11
REMARK    7  A    between atoms: C_15  and  O_16
REMARK    8  A    between atoms: O_16  and  C_17
REMARK    9  A    between atoms: N_23  and  C_24
REMARK                            x       y       z     vdW  Elec       q    Type
REMARK                         _______ _______ _______ _____ _____    ______ ____
ROOT
ATOM      1  C   UNL     1       3.638   4.082  17.718  0.00  0.00    +0.000 A 
ATOM      2  N   UNL     1       2.431   3.950  17.230  0.00  0.00    +0.000 NA
ATOM      3  N   UNL     1       1.641   4.901  17.833  0.00  0.00    +0.000 NA
ATOM      4  C   UNL     1       2.390   5.614  18.657  0.00  0.00    +0.000 A 
ATOM      5  N   UNL     1       3.660   5.079  18.659  0.00  0.00    +0.000 N 
ATOM      6  C   UNL     1       4.801   5.440  19.461  0.00  0.00    +0.000 C 
ENDROOT
BRANCH   4   7
ATOM      7  C   UNL     1       1.904   6.769  19.362  0.00  0.00    +0.000 A 
ATOM      8  S   UNL     1       1.389   6.655  20.990  0.00  0.00    +0.000 S 
ATOM      9  C   UNL     1       0.979   8.313  21.080  0.00  0.00    +0.000 A 
ATOM     10  C   UNL     1       0.379   8.967  22.173  0.00  0.00    +0.000 A 
ATOM     11  C   UNL     1       0.163  10.345  22.121  0.00  0.00    +0.000 A 
ATOM     12  C   UNL     1       0.537  11.057  20.990  0.00  0.00    +0.000 A 
ATOM     13  C   UNL     1       1.112  10.397  19.893  0.00  0.00    +0.000 A 
ATOM     14  C   UNL     1       1.334   8.995  19.918  0.00  0.00    +0.000 A 
ATOM     15  C   UNL     1       1.870   8.085  18.932  0.00  0.00    +0.000 A 
ATOM     16 CL   UNL     1       2.361   8.643  17.377  0.00  0.00    +0.000 Cl
BRANCH  11  17
ATOM     17  O   UNL     1      -0.420  10.857  23.247  0.00  0.00    +0.000 OA
ATOM     18  C   UNL     1      -1.454  11.816  23.060  0.00  0.00    +0.000 C 
ENDBRANCH  11  17
ENDBRANCH   4   7
BRANCH   1  19
ATOM     19  S   UNL     1       5.033   3.173  17.270  0.00  0.00    +0.000 S 
BRANCH  19  20
ATOM     20  C   UNL     1       5.626   4.144  15.852  0.00  0.00    +0.000 C 
BRANCH  20  21
ATOM     21  C   UNL     1       6.892   4.896  16.207  0.00  0.00    +0.000 C 
ATOM     22  O   UNL     1       7.994   4.412  16.434  0.00  0.00    +0.000 OA
BRANCH  21  24
ATOM     23  C   UNL     1       7.268   6.907  17.348  0.00  0.00    +0.000 C 
ATOM     24  O   UNL     1       6.625   6.238  16.260  0.00  0.00    +0.000 OA
ENDBRANCH  21  24
ENDBRANCH  20  21
ENDBRANCH  19  20
ENDBRANCH   1  19
TORSDOF 6
ENDMDL
MODEL 5
REMARK VINA RESULT:      -6.2      4.738     10.141
REMARK  Name = 
REMARK  9 active torsions:
REMARK  status: ('A' for Active; 'I' for Inactive)
REMARK    1  A    between atoms: C_1  and  O_2
REMARK    2  A    between atoms: O_2  and  C_3
REMARK    3  A    between atoms: C_3  and  C_5
REMARK    4  A    between atoms: C_5  and  S_6
REMARK    5  A    between atoms: S_6  and  C_7
REMARK    6  A    between atoms: C_10  and  C_11
REMARK    7  A    between atoms: C_15  and  O_16
REMARK    8  A    between atoms: O_16  and  C_17
REMARK    9  A    between atoms: N_23  and  C_24
REMARK                            x       y       z     vdW  Elec       q    Type
REMARK                         _______ _______ _______ _____ _____    ______ ____
ROOT
ATOM      1  C   UNL     1      -0.823  11.640  21.060  0.00  0.00    +0.000 A 
ATOM      2  N   UNL     1       0.006  11.604  22.073  0.00  0.00    +0.000 NA
ATOM      3  N   UNL     1       0.847  10.535  21.873  0.00  0.00    +0.000 NA
ATOM      4  C   UNL     1       0.533   9.957  20.727  0.00  0.00    +0.000 A 
ATOM      5  N   UNL     1      -0.572  10.597  20.208  0.00  0.00    +0.000 N 
ATOM      6  C   UNL     1      -1.344  10.278  19.034  0.00  0.00    +0.000 C 
ENDROOT
BRANCH   4   7
ATOM      7  C   UNL     1       1.291   8.876  20.155  0.00  0.00    +0.000 A 
ATOM      8  S   UNL     1       1.385   7.356  20.935  0.00  0.00    +0.000 S 
ATOM      9  C   UNL     1       2.399   6.689  19.730  0.00  0.00    +0.000 A 
ATOM     10  C   UNL     1       2.981   5.407  19.745  0.00  0.00    +0.000 A 
ATOM     11  C   UNL     1       3.739   4.980  18.653  0.00  0.00    +0.000 A 
ATOM     12  C   UNL     1       3.914   5.823  17.565  0.00  0.00    +0.000 A 
ATOM     13  C   UNL     1       3.352   7.109  17.566  0.00  0.00    +0.000 A 
ATOM     14  C   UNL     1       2.586   7.571  18.668  0.00  0.00    +0.000 A 
ATOM     15  C   UNL     1       1.936   8.835  18.930  0.00  0.00    +0.000 A 
ATOM     16 CL   UNL     1       2.028  10.136  17.803  0.00  0.00    +0.000 Cl
BRANCH  11  17
ATOM     17  O   UNL     1       4.243   3.716  18.790  0.00  0.00    +0.000 OA
ATOM     18  C   UNL     1       3.468   2.788  19.539  0.00  0.00    +0.000 C 
ENDBRANCH  11  17
ENDBRANCH   4   7
BRANCH   1  19
ATOM     19  S   UNL     1      -2.056  12.813  20.783  0.00  0.00    +0.000 S 
BRANCH  19  20
ATOM     20  C   UNL     1      -2.937  12.758  22.373  0.00  0.00    +0.000 C 
BRANCH  20  21
ATOM     21  C   UNL     1      -4.435  12.728  22.156  0.00  0.00    +0.000 C 
ATOM     22  O   UNL     1      -5.031  12.965  21.112  0.00  0.00    +0.000 OA
BRANCH  21  24
ATOM     23  C   UNL     1      -4.221  12.542  24.481  0.00  0.00    +0.000 C 
ATOM     24  O   UNL     1      -5.060  12.406  23.331  0.00  0.00    +0.000 OA
ENDBRANCH  21  24
ENDBRANCH  20  21
ENDBRANCH  19  20
ENDBRANCH   1  19
TORSDOF 6
ENDMDL
MODEL 6
REMARK VINA RESULT:      -6.2      2.849      8.368
REMARK  Name = 
REMARK  9 active torsions:
REMARK  status: ('A' for Active; 'I' for Inactive)
REMARK    1  A    between atoms: C_1  and  O_2
REMARK    2  A    between atoms: O_2  and  C_3
REMARK    3  A    between atoms: C_3  and  C_5
REMARK    4  A    between atoms: C_5  and  S_6
REMARK    5  A    between atoms: S_6  and  C_7
REMARK    6  A    between atoms: C_10  and  C_11
REMARK    7  A    between atoms: C_15  and  O_16
REMARK    8  A    between atoms: O_16  and  C_17
REMARK    9  A    between atoms: N_23  and  C_24
REMARK                            x       y       z     vdW  Elec       q    Type
REMARK                         _______ _______ _______ _____ _____    ______ ____
ROOT
ATOM      1  C   UNL     1       0.742   9.964  20.453  0.00  0.00    +0.000 A 
ATOM      2  N   UNL     1       0.771   9.173  21.496  0.00  0.00    +0.000 NA
ATOM      3  N   UNL     1       1.336   7.986  21.092  0.00  0.00    +0.000 NA
ATOM      4  C   UNL     1       1.668   8.087  19.817  0.00  0.00    +0.000 A 
ATOM      5  N   UNL     1       1.245   9.315  19.355  0.00  0.00    +0.000 N 
ATOM      6  C   UNL     1       1.287   9.853  18.020  0.00  0.00    +0.000 C 
ENDROOT
BRANCH   4   7
ATOM      7  C   UNL     1       2.389   7.065  19.106  0.00  0.00    +0.000 A 
ATOM      8  S   UNL     1       3.547   7.470  17.914  0.00  0.00    +0.000 S 
ATOM      9  C   UNL     1       3.906   5.835  17.564  0.00  0.00    +0.000 A 
ATOM     10  C   UNL     1       4.776   5.367  16.562  0.00  0.00    +0.000 A 
ATOM     11  C   UNL     1       5.015   3.998  16.438  0.00  0.00    +0.000 A 
ATOM     12  C   UNL     1       4.390   3.109  17.302  0.00  0.00    +0.000 A 
ATOM     13  C   UNL     1       3.504   3.579  18.284  0.00  0.00    +0.000 A 
ATOM     14  C   UNL     1       3.236   4.966  18.423  0.00  0.00    +0.000 A 
ATOM     15  C   UNL     1       2.361   5.695  19.312  0.00  0.00    +0.000 A 
ATOM     16 CL   UNL     1       1.376   4.876  20.465  0.00  0.00    +0.000 Cl
BRANCH  11  17
ATOM     17  O   UNL     1       5.883   3.676  15.432  0.00  0.00    +0.000 OA
ATOM     18  C   UNL     1       6.939   4.592  15.170  0.00  0.00    +0.000 C 
ENDBRANCH  11  17
ENDBRANCH   4   7
BRANCH   1  19
ATOM     19  S   UNL     1       0.179  11.593  20.414  0.00  0.00    +0.000 S 
BRANCH  19  20
ATOM     20  C   UNL     1      -1.385  11.387  19.511  0.00  0.00    +0.000 C 
BRANCH  20  21
ATOM     21  C   UNL     1      -1.387  12.214  18.242  0.00  0.00    +0.000 C 
ATOM     22  O   UNL     1      -0.633  13.141  17.970  0.00  0.00    +0.000 OA
BRANCH  21  24
ATOM     23  C   UNL     1      -3.451  11.116  18.107  0.00  0.00    +0.000 C 
ATOM     24  O   UNL     1      -2.391  11.783  17.417  0.00  0.00    +0.000 OA
ENDBRANCH  21  24
ENDBRANCH  20  21
ENDBRANCH  19  20
ENDBRANCH   1  19
TORSDOF 6
ENDMDL
MODEL 7
REMARK VINA RESULT:      -6.1      5.030      9.960
REMARK  Name = 
REMARK  9 active torsions:
REMARK  status: ('A' for Active; 'I' for Inactive)
REMARK    1  A    between atoms: C_1  and  O_2
REMARK    2  A    between atoms: O_2  and  C_3
REMARK    3  A    between atoms: C_3  and  C_5
REMARK    4  A    between atoms: C_5  and  S_6
REMARK    5  A    between atoms: S_6  and  C_7
REMARK    6  A    between atoms: C_10  and  C_11
REMARK    7  A    between atoms: C_15  and  O_16
REMARK    8  A    between atoms: O_16  and  C_17
REMARK    9  A    between atoms: N_23  and  C_24
REMARK                            x       y       z     vdW  Elec       q    Type
REMARK                         _______ _______ _______ _____ _____    ______ ____
ROOT
ATOM      1  C   UNL     1      -0.534  12.160  20.630  0.00  0.00    +0.000 A 
ATOM      2  N   UNL     1       0.328  12.210  21.615  0.00  0.00    +0.000 NA
ATOM      3  N   UNL     1       1.034  11.030  21.599  0.00  0.00    +0.000 NA
ATOM      4  C   UNL     1       0.608  10.294  20.587  0.00  0.00    +0.000 A 
ATOM      5  N   UNL     1      -0.439  10.956  19.981  0.00  0.00    +0.000 N 
ATOM      6  C   UNL     1      -1.292  10.523  18.904  0.00  0.00    +0.000 C 
ENDROOT
BRANCH   4   7
ATOM      7  C   UNL     1       1.214   9.046  20.210  0.00  0.00    +0.000 A 
ATOM      8  S   UNL     1       1.110   7.673  21.227  0.00  0.00    +0.000 S 
ATOM      9  C   UNL     1       2.021   6.692  20.163  0.00  0.00    +0.000 A 
ATOM     10  C   UNL     1       2.429   5.365  20.394  0.00  0.00    +0.000 A 
ATOM     11  C   UNL     1       3.119   4.670  19.398  0.00  0.00    +0.000 A 
ATOM     12  C   UNL     1       3.398   5.296  18.191  0.00  0.00    +0.000 A 
ATOM     13  C   UNL     1       3.011   6.627  17.975  0.00  0.00    +0.000 A 
ATOM     14  C   UNL     1       2.317   7.358  18.975  0.00  0.00    +0.000 A 
ATOM     15  C   UNL     1       1.842   8.722  19.019  0.00  0.00    +0.000 A 
ATOM     16 CL   UNL     1       2.099   9.799  17.698  0.00  0.00    +0.000 Cl
BRANCH  11  17
ATOM     17  O   UNL     1       3.452   3.391  19.746  0.00  0.00    +0.000 OA
ATOM     18  C   UNL     1       2.766   2.822  20.854  0.00  0.00    +0.000 C 
ENDBRANCH  11  17
ENDBRANCH   4   7
BRANCH   1  19
ATOM     19  S   UNL     1      -1.637  13.400  20.166  0.00  0.00    +0.000 S 
BRANCH  19  20
ATOM     20  C   UNL     1      -3.153  12.828  20.991  0.00  0.00    +0.000 C 
BRANCH  20  21
ATOM     21  C   UNL     1      -3.095  13.110  22.478  0.00  0.00    +0.000 C 
ATOM     22  O   UNL     1      -2.459  13.999  23.032  0.00  0.00    +0.000 OA
BRANCH  21  24
ATOM     23  C   UNL     1      -4.185  12.586  24.484  0.00  0.00    +0.000 C 
ATOM     24  O   UNL     1      -3.863  12.195  23.147  0.00  0.00    +0.000 OA
ENDBRANCH  21  24
ENDBRANCH  20  21
ENDBRANCH  19  20
ENDBRANCH   1  19
TORSDOF 6
ENDMDL
MODEL 8
REMARK VINA RESULT:      -6.1      2.689      3.790
REMARK  Name = 
REMARK  9 active torsions:
REMARK  status: ('A' for Active; 'I' for Inactive)
REMARK    1  A    between atoms: C_1  and  O_2
REMARK    2  A    between atoms: O_2  and  C_3
REMARK    3  A    between atoms: C_3  and  C_5
REMARK    4  A    between atoms: C_5  and  S_6
REMARK    5  A    between atoms: S_6  and  C_7
REMARK    6  A    between atoms: C_10  and  C_11
REMARK    7  A    between atoms: C_15  and  O_16
REMARK    8  A    between atoms: O_16  and  C_17
REMARK    9  A    between atoms: N_23  and  C_24
REMARK                            x       y       z     vdW  Elec       q    Type
REMARK                         _______ _______ _______ _____ _____    ______ ____
ROOT
ATOM      1  C   UNL     1       3.789   5.549  18.256  0.00  0.00    +0.000 A 
ATOM      2  N   UNL     1       4.172   6.564  17.523  0.00  0.00    +0.000 NA
ATOM      3  N   UNL     1       3.412   7.647  17.898  0.00  0.00    +0.000 NA
ATOM      4  C   UNL     1       2.599   7.277  18.873  0.00  0.00    +0.000 A 
ATOM      5  N   UNL     1       2.766   5.926  19.087  0.00  0.00    +0.000 N 
ATOM      6  C   UNL     1       2.045   5.045  19.970  0.00  0.00    +0.000 C 
ENDROOT
BRANCH   4   7
ATOM      7  C   UNL     1       1.746   8.196  19.579  0.00  0.00    +0.000 A 
ATOM      8  S   UNL     1       1.344   7.939  21.222  0.00  0.00    +0.000 S 
ATOM      9  C   UNL     1       0.367   9.340  21.305  0.00  0.00    +0.000 A 
ATOM     10  C   UNL     1      -0.403   9.757  22.407  0.00  0.00    +0.000 A 
ATOM     11  C   UNL     1      -1.104  10.963  22.344  0.00  0.00    +0.000 A 
ATOM     12  C   UNL     1      -1.037  11.738  21.195  0.00  0.00    +0.000 A 
ATOM     13  C   UNL     1      -0.288  11.306  20.090  0.00  0.00    +0.000 A 
ATOM     14  C   UNL     1       0.425  10.079  20.125  0.00  0.00    +0.000 A 
ATOM     15  C   UNL     1       1.230   9.401  19.134  0.00  0.00    +0.000 A 
ATOM     16 CL   UNL     1       1.451  10.065  17.559  0.00  0.00    +0.000 Cl
BRANCH  11  17
ATOM     17  O   UNL     1      -1.806  11.256  23.481  0.00  0.00    +0.000 OA
ATOM     18  C   UNL     1      -2.845  12.219  23.368  0.00  0.00    +0.000 C 
ENDBRANCH  11  17
ENDBRANCH   4   7
BRANCH   1  19
ATOM     19  S   UNL     1       4.449   3.956  18.230  0.00  0.00    +0.000 S 
BRANCH  19  20
ATOM     20  C   UNL     1       5.510   4.055  16.757  0.00  0.00    +0.000 C 
BRANCH  20  21
ATOM     21  C   UNL     1       6.834   4.710  17.090  0.00  0.00    +0.000 C 
ATOM     22  O   UNL     1       7.554   5.341  16.326  0.00  0.00    +0.000 OA
BRANCH  21  24
ATOM     23  C   UNL     1       7.701   5.614  19.069  0.00  0.00    +0.000 C 
ATOM     24  O   UNL     1       7.138   4.480  18.405  0.00  0.00    +0.000 OA
ENDBRANCH  21  24
ENDBRANCH  20  21
ENDBRANCH  19  20
ENDBRANCH   1  19
TORSDOF 6
ENDMDL
MODEL 9
REMARK VINA RESULT:      -6.1      3.947      4.828
REMARK  Name = 
REMARK  9 active torsions:
REMARK  status: ('A' for Active; 'I' for Inactive)
REMARK    1  A    between atoms: C_1  and  O_2
REMARK    2  A    between atoms: O_2  and  C_3
REMARK    3  A    between atoms: C_3  and  C_5
REMARK    4  A    between atoms: C_5  and  S_6
REMARK    5  A    between atoms: S_6  and  C_7
REMARK    6  A    between atoms: C_10  and  C_11
REMARK    7  A    between atoms: C_15  and  O_16
REMARK    8  A    between atoms: O_16  and  C_17
REMARK    9  A    between atoms: N_23  and  C_24
REMARK                            x       y       z     vdW  Elec       q    Type
REMARK                         _______ _______ _______ _____ _____    ______ ____
ROOT
ATOM      1  C   UNL     1       3.704   4.369  18.135  0.00  0.00    +0.000 A 
ATOM      2  N   UNL     1       4.721   4.892  18.772  0.00  0.00    +0.000 NA
ATOM      3  N   UNL     1       4.274   6.042  19.380  0.00  0.00    +0.000 NA
ATOM      4  C   UNL     1       2.985   6.183  19.125  0.00  0.00    +0.000 A 
ATOM      5  N   UNL     1       2.598   5.166  18.278  0.00  0.00    +0.000 N 
ATOM      6  C   UNL     1       1.325   4.942  17.642  0.00  0.00    +0.000 C 
ENDROOT
BRANCH   4   7
ATOM      7  C   UNL     1       2.175   7.219  19.707  0.00  0.00    +0.000 A 
ATOM      8  S   UNL     1       1.601   7.092  21.314  0.00  0.00    +0.000 S 
ATOM      9  C   UNL     1       0.775   8.588  21.243  0.00  0.00    +0.000 A 
ATOM     10  C   UNL     1      -0.042   9.139  22.247  0.00  0.00    +0.000 A 
ATOM     11  C   UNL     1      -0.601  10.405  22.067  0.00  0.00    +0.000 A 
ATOM     12  C   UNL     1      -0.349  11.108  20.897  0.00  0.00    +0.000 A 
ATOM     13  C   UNL     1       0.447  10.544  19.887  0.00  0.00    +0.000 A 
ATOM     14  C   UNL     1       1.018   9.254  20.043  0.00  0.00    +0.000 A 
ATOM     15  C   UNL     1       1.832   8.446  19.164  0.00  0.00    +0.000 A 
ATOM     16 CL   UNL     1       2.265   9.000  17.590  0.00  0.00    +0.000 Cl
BRANCH  11  17
ATOM     17  O   UNL     1      -1.367  10.828  23.117  0.00  0.00    +0.000 OA
ATOM     18  C   UNL     1      -2.093  12.038  22.943  0.00  0.00    +0.000 C 
ENDBRANCH  11  17
ENDBRANCH   4   7
BRANCH   1  19
ATOM     19  S   UNL     1       3.698   2.893  17.245  0.00  0.00    +0.000 S 
BRANCH  19  20
ATOM     20  C   UNL     1       3.503   1.688  18.593  0.00  0.00    +0.000 C 
BRANCH  20  21
ATOM     21  C   UNL     1       2.270   1.999  19.417  0.00  0.00    +0.000 C 
ATOM     22  O   UNL     1       1.103   1.849  19.076  0.00  0.00    +0.000 OA
BRANCH  21  24
ATOM     23  C   UNL     1       1.562   2.673  21.545  0.00  0.00    +0.000 C 
ATOM     24  O   UNL     1       2.649   2.504  20.632  0.00  0.00    +0.000 OA
ENDBRANCH  21  24
ENDBRANCH  20  21
ENDBRANCH  19  20
ENDBRANCH   1  19
TORSDOF 6
ENDMDL
