MODEL 1
REMARK VINA RESULT:      -8.2      0.000      0.000
REMARK  Name = 
REMARK  7 active torsions:
REMARK  status: ('A' for Active; 'I' for Inactive)
REMARK    1  A    between atoms: N_12  and  C_13
REMARK    2  A    between atoms: C_13  and  C_14
REMARK    3  A    between atoms: C_14  and  O_15
REMARK    4  A    between atoms: C_14  and  C_16
REMARK    5  A    between atoms: C_16  and  O_17
REMARK    6  A    between atoms: O_17  and  C_18
REMARK    7  A    between atoms: C_18  and  C_19
REMARK                            x       y       z     vdW  Elec       q    Type
REMARK                         _______ _______ _______ _____ _____    ______ ____
ROOT
ATOM      1  C   UNL     1       5.502   5.445  19.120  0.00  0.00    +0.000 C 
ENDROOT
BRANCH   1  13
ATOM      2  O   UNL     1       5.000   2.651  19.891  0.00  0.00    +0.000 OA
ATOM      3  C   UNL     1       4.170   3.345  19.329  0.00  0.00    +0.000 C 
ATOM      4  C   UNL     1       2.878   2.859  18.716  0.00  0.00    +0.000 C 
ATOM      5  C   UNL     1       1.960   1.922  19.513  0.00  0.00    +0.000 C 
ATOM      6  C   UNL     1       1.886   2.363  20.951  0.00  0.00    +0.000 C 
ATOM      7  C   UNL     1       1.272   3.553  20.959  0.00  0.00    +0.000 C 
ATOM      8  C   UNL     1       0.868   3.889  19.531  0.00  0.00    +0.000 C 
ATOM      9  C   UNL     1       0.575   2.447  19.079  0.00  0.00    +0.000 C 
ATOM     10  C   UNL     1       2.051   4.154  18.584  0.00  0.00    +0.000 C 
ATOM     11  C   UNL     1       3.034   5.250  18.818  0.00  0.00    +0.000 C 
ATOM     12  O   UNL     1       2.774   6.447  18.731  0.00  0.00    +0.000 OA
ATOM     13  N   UNL     1       4.255   4.695  19.075  0.00  0.00    +0.000 N 
ENDBRANCH   1  13
BRANCH   1  14
ATOM     14  C   UNL     1       5.908   5.937  17.707  0.00  0.00    +0.000 C 
BRANCH  14  15
ATOM     15  O   UNL     1       5.517   7.299  17.508  0.00  0.00    +0.000 OA
ATOM     16  H   UNL     1       4.751   7.493  18.077  0.00  0.00    +0.000 HD
ENDBRANCH  14  15
BRANCH  14  17
ATOM     17  C   UNL     1       7.414   5.777  17.465  0.00  0.00    +0.000 C 
BRANCH  17  18
ATOM     18  O   UNL     1       7.620   4.636  16.651  0.00  0.00    +0.000 OA
BRANCH  18  19
ATOM     19  C   UNL     1       6.454   4.236  15.938  0.00  0.00    +0.000 C 
BRANCH  19  20
ATOM     20  C   UNL     1       6.720   4.290  14.450  0.00  0.00    +0.000 A 
ATOM     21  C   UNL     1       7.647   5.183  13.889  0.00  0.00    +0.000 A 
ATOM     22  C   UNL     1       7.841   5.235  12.508  0.00  0.00    +0.000 A 
ATOM     23  C   UNL     1       7.120   4.386  11.673  0.00  0.00    +0.000 A 
ATOM     24  C   UNL     1       6.212   3.479  12.217  0.00  0.00    +0.000 A 
ATOM     25  C   UNL     1       6.014   3.430  13.599  0.00  0.00    +0.000 A 
ENDBRANCH  19  20
ENDBRANCH  18  19
ENDBRANCH  17  18
ENDBRANCH  14  17
ENDBRANCH   1  14
TORSDOF 7
ENDMDL
MODEL 2
REMARK VINA RESULT:      -8.1      0.748      1.219
REMARK  Name = 
REMARK  7 active torsions:
REMARK  status: ('A' for Active; 'I' for Inactive)
REMARK    1  A    between atoms: N_12  and  C_13
REMARK    2  A    between atoms: C_13  and  C_14
REMARK    3  A    between atoms: C_14  and  O_15
REMARK    4  A    between atoms: C_14  and  C_16
REMARK    5  A    between atoms: C_16  and  O_17
REMARK    6  A    between atoms: O_17  and  C_18
REMARK    7  A    between atoms: C_18  and  C_19
REMARK                            x       y       z     vdW  Elec       q    Type
REMARK                         _______ _______ _______ _____ _____    ______ ____
ROOT
ATOM      1  C   UNL     1       5.474   5.792  19.045  0.00  0.00    +0.000 C 
ENDROOT
BRANCH   1  13
ATOM      2  O   UNL     1       5.106   2.906  19.487  0.00  0.00    +0.000 OA
ATOM      3  C   UNL     1       4.179   3.671  19.282  0.00  0.00    +0.000 C 
ATOM      4  C   UNL     1       2.755   3.274  18.972  0.00  0.00    +0.000 C 
ATOM      5  C   UNL     1       2.054   2.215  19.834  0.00  0.00    +0.000 C 
ATOM      6  C   UNL     1       2.381   2.425  21.289  0.00  0.00    +0.000 C 
ATOM      7  C   UNL     1       1.831   3.594  21.644  0.00  0.00    +0.000 C 
ATOM      8  C   UNL     1       1.071   4.145  20.446  0.00  0.00    +0.000 C 
ATOM      9  C   UNL     1       0.621   2.787  19.875  0.00  0.00    +0.000 C 
ATOM     10  C   UNL     1       1.966   4.565  19.268  0.00  0.00    +0.000 C 
ATOM     11  C   UNL     1       3.011   5.621  19.393  0.00  0.00    +0.000 C 
ATOM     12  O   UNL     1       2.776   6.815  19.563  0.00  0.00    +0.000 OA
ATOM     13  N   UNL     1       4.237   5.045  19.224  0.00  0.00    +0.000 N 
ENDBRANCH   1  13
BRANCH   1  14
ATOM     14  C   UNL     1       5.627   6.277  17.581  0.00  0.00    +0.000 C 
BRANCH  14  15
ATOM     15  O   UNL     1       4.594   7.209  17.242  0.00  0.00    +0.000 OA
ATOM     16  H   UNL     1       5.003   8.066  17.025  0.00  0.00    +0.000 HD
ENDBRANCH  14  15
BRANCH  14  17
ATOM     17  C   UNL     1       7.005   6.900  17.333  0.00  0.00    +0.000 C 
BRANCH  17  18
ATOM     18  O   UNL     1       7.583   6.276  16.200  0.00  0.00    +0.000 OA
BRANCH  18  19
ATOM     19  C   UNL     1       7.150   4.933  16.015  0.00  0.00    +0.000 C 
BRANCH  19  20
ATOM     20  C   UNL     1       6.994   4.644  14.538  0.00  0.00    +0.000 A 
ATOM     21  C   UNL     1       6.037   3.739  14.052  0.00  0.00    +0.000 A 
ATOM     22  C   UNL     1       5.945   3.465  12.686  0.00  0.00    +0.000 A 
ATOM     23  C   UNL     1       6.800   4.101  11.791  0.00  0.00    +0.000 A 
ATOM     24  C   UNL     1       7.741   5.019  12.257  0.00  0.00    +0.000 A 
ATOM     25  C   UNL     1       7.836   5.289  13.624  0.00  0.00    +0.000 A 
ENDBRANCH  19  20
ENDBRANCH  18  19
ENDBRANCH  17  18
ENDBRANCH  14  17
ENDBRANCH   1  14
TORSDOF 7
ENDMDL
MODEL 3
REMARK VINA RESULT:      -8.0      3.737      5.619
REMARK  Name = 
REMARK  7 active torsions:
REMARK  status: ('A' for Active; 'I' for Inactive)
REMARK    1  A    between atoms: N_12  and  C_13
REMARK    2  A    between atoms: C_13  and  C_14
REMARK    3  A    between atoms: C_14  and  O_15
REMARK    4  A    between atoms: C_14  and  C_16
REMARK    5  A    between atoms: C_16  and  O_17
REMARK    6  A    between atoms: O_17  and  C_18
REMARK    7  A    between atoms: C_18  and  C_19
REMARK                            x       y       z     vdW  Elec       q    Type
REMARK                         _______ _______ _______ _____ _____    ______ ____
ROOT
ATOM      1  C   UNL     1       6.921   5.025  17.670  0.00  0.00    +0.000 C 
ENDROOT
BRANCH   1  13
ATOM      2  O   UNL     1       5.589   3.332  19.675  0.00  0.00    +0.000 OA
ATOM      3  C   UNL     1       5.028   3.743  18.673  0.00  0.00    +0.000 C 
ATOM      4  C   UNL     1       3.687   3.279  18.154  0.00  0.00    +0.000 C 
ATOM      5  C   UNL     1       2.494   3.172  19.114  0.00  0.00    +0.000 C 
ATOM      6  C   UNL     1       2.470   4.350  20.052  0.00  0.00    +0.000 C 
ATOM      7  C   UNL     1       2.228   5.434  19.303  0.00  0.00    +0.000 C 
ATOM      8  C   UNL     1       2.019   4.982  17.865  0.00  0.00    +0.000 C 
ATOM      9  C   UNL     1       1.348   3.636  18.192  0.00  0.00    +0.000 C 
ATOM     10  C   UNL     1       3.279   4.412  17.192  0.00  0.00    +0.000 C 
ATOM     11  C   UNL     1       4.524   5.215  17.012  0.00  0.00    +0.000 C 
ATOM     12  O   UNL     1       4.627   6.177  16.255  0.00  0.00    +0.000 OA
ATOM     13  N   UNL     1       5.514   4.661  17.769  0.00  0.00    +0.000 N 
ENDBRANCH   1  13
BRANCH   1  14
ATOM     14  C   UNL     1       7.228   6.295  18.503  0.00  0.00    +0.000 C 
BRANCH  14  15
ATOM     15  O   UNL     1       8.244   6.034  19.477  0.00  0.00    +0.000 OA
ATOM     16  H   UNL     1       8.210   5.092  19.723  0.00  0.00    +0.000 HD
ENDBRANCH  14  15
BRANCH  14  17
ATOM     17  C   UNL     1       7.640   7.470  17.609  0.00  0.00    +0.000 C 
BRANCH  17  18
ATOM     18  O   UNL     1       8.289   8.440  18.412  0.00  0.00    +0.000 OA
BRANCH  18  19
ATOM     19  C   UNL     1       8.455   9.693  17.757  0.00  0.00    +0.000 C 
BRANCH  19  20
ATOM     20  C   UNL     1       9.392  10.570  18.558  0.00  0.00    +0.000 A 
ATOM     21  C   UNL     1       9.341  10.633  19.960  0.00  0.00    +0.000 A 
ATOM     22  C   UNL     1      10.194  11.481  20.666  0.00  0.00    +0.000 A 
ATOM     23  C   UNL     1      11.117  12.268  19.981  0.00  0.00    +0.000 A 
ATOM     24  C   UNL     1      11.194  12.200  18.591  0.00  0.00    +0.000 A 
ATOM     25  C   UNL     1      10.337  11.354  17.883  0.00  0.00    +0.000 A 
ENDBRANCH  19  20
ENDBRANCH  18  19
ENDBRANCH  17  18
ENDBRANCH  14  17
ENDBRANCH   1  14
TORSDOF 7
ENDMDL
MODEL 4
REMARK VINA RESULT:      -7.9      2.546      5.254
REMARK  Name = 
REMARK  7 active torsions:
REMARK  status: ('A' for Active; 'I' for Inactive)
REMARK    1  A    between atoms: N_12  and  C_13
REMARK    2  A    between atoms: C_13  and  C_14
REMARK    3  A    between atoms: C_14  and  O_15
REMARK    4  A    between atoms: C_14  and  C_16
REMARK    5  A    between atoms: C_16  and  O_17
REMARK    6  A    between atoms: O_17  and  C_18
REMARK    7  A    between atoms: C_18  and  C_19
REMARK                            x       y       z     vdW  Elec       q    Type
REMARK                         _______ _______ _______ _____ _____    ______ ____
ROOT
ATOM      1  C   UNL     1       4.889   3.722  16.927  0.00  0.00    +0.000 C 
ENDROOT
BRANCH   1  13
ATOM      2  O   UNL     1       5.289   3.778  19.842  0.00  0.00    +0.000 OA
ATOM      3  C   UNL     1       4.302   3.293  19.315  0.00  0.00    +0.000 C 
ATOM      4  C   UNL     1       3.262   2.438  20.000  0.00  0.00    +0.000 C 
ATOM      5  C   UNL     1       2.666   2.889  21.341  0.00  0.00    +0.000 C 
ATOM      6  C   UNL     1       2.397   4.370  21.321  0.00  0.00    +0.000 C 
ATOM      7  C   UNL     1       1.431   4.575  20.416  0.00  0.00    +0.000 C 
ATOM      8  C   UNL     1       0.996   3.222  19.870  0.00  0.00    +0.000 C 
ATOM      9  C   UNL     1       1.205   2.425  21.171  0.00  0.00    +0.000 C 
ATOM     10  C   UNL     1       2.067   2.506  19.029  0.00  0.00    +0.000 C 
ATOM     11  C   UNL     1       2.632   3.096  17.781  0.00  0.00    +0.000 C 
ATOM     12  O   UNL     1       2.002   3.251  16.739  0.00  0.00    +0.000 OA
ATOM     13  N   UNL     1       3.955   3.362  17.985  0.00  0.00    +0.000 N 
ENDBRANCH   1  13
BRANCH   1  14
ATOM     14  C   UNL     1       5.452   5.149  17.143  0.00  0.00    +0.000 C 
BRANCH  14  15
ATOM     15  O   UNL     1       6.784   5.257  16.628  0.00  0.00    +0.000 OA
ATOM     16  H   UNL     1       7.382   5.508  17.355  0.00  0.00    +0.000 HD
ENDBRANCH  14  15
BRANCH  14  17
ATOM     17  C   UNL     1       4.551   6.214  16.506  0.00  0.00    +0.000 C 
BRANCH  17  18
ATOM     18  O   UNL     1       4.233   7.181  17.490  0.00  0.00    +0.000 OA
BRANCH  18  19
ATOM     19  C   UNL     1       3.254   6.734  18.422  0.00  0.00    +0.000 C 
BRANCH  19  20
ATOM     20  C   UNL     1       2.289   7.858  18.730  0.00  0.00    +0.000 A 
ATOM     21  C   UNL     1       1.811   8.726  17.736  0.00  0.00    +0.000 A 
ATOM     22  C   UNL     1       0.952   9.776  18.059  0.00  0.00    +0.000 A 
ATOM     23  C   UNL     1       0.551   9.965  19.379  0.00  0.00    +0.000 A 
ATOM     24  C   UNL     1       1.000   9.098  20.375  0.00  0.00    +0.000 A 
ATOM     25  C   UNL     1       1.864   8.049  20.051  0.00  0.00    +0.000 A 
ENDBRANCH  19  20
ENDBRANCH  18  19
ENDBRANCH  17  18
ENDBRANCH  14  17
ENDBRANCH   1  14
TORSDOF 7
ENDMDL
MODEL 5
REMARK VINA RESULT:      -7.8      0.933      1.112
REMARK  Name = 
REMARK  7 active torsions:
REMARK  status: ('A' for Active; 'I' for Inactive)
REMARK    1  A    between atoms: N_12  and  C_13
REMARK    2  A    between atoms: C_13  and  C_14
REMARK    3  A    between atoms: C_14  and  O_15
REMARK    4  A    between atoms: C_14  and  C_16
REMARK    5  A    between atoms: C_16  and  O_17
REMARK    6  A    between atoms: O_17  and  C_18
REMARK    7  A    between atoms: C_18  and  C_19
REMARK                            x       y       z     vdW  Elec       q    Type
REMARK                         _______ _______ _______ _____ _____    ______ ____
ROOT
ATOM      1  C   UNL     1       5.955   5.366  19.535  0.00  0.00    +0.000 C 
ENDROOT
BRANCH   1  13
ATOM      2  O   UNL     1       5.172   2.583  20.082  0.00  0.00    +0.000 OA
ATOM      3  C   UNL     1       4.495   3.345  19.412  0.00  0.00    +0.000 C 
ATOM      4  C   UNL     1       3.310   2.960  18.559  0.00  0.00    +0.000 C 
ATOM      5  C   UNL     1       2.214   2.055  19.138  0.00  0.00    +0.000 C 
ATOM      6  C   UNL     1       1.907   2.451  20.558  0.00  0.00    +0.000 C 
ATOM      7  C   UNL     1       1.368   3.675  20.510  0.00  0.00    +0.000 C 
ATOM      8  C   UNL     1       1.245   4.084  19.049  0.00  0.00    +0.000 C 
ATOM      9  C   UNL     1       0.961   2.678  18.489  0.00  0.00    +0.000 C 
ATOM     10  C   UNL     1       2.592   4.307  18.340  0.00  0.00    +0.000 C 
ATOM     11  C   UNL     1       3.575   5.333  18.792  0.00  0.00    +0.000 C 
ATOM     12  O   UNL     1       3.400   6.546  18.713  0.00  0.00    +0.000 OA
ATOM     13  N   UNL     1       4.698   4.696  19.237  0.00  0.00    +0.000 N 
ENDBRANCH   1  13
BRANCH   1  14
ATOM     14  C   UNL     1       6.924   5.297  18.328  0.00  0.00    +0.000 C 
BRANCH  14  15
ATOM     15  O   UNL     1       6.957   3.977  17.774  0.00  0.00    +0.000 OA
ATOM     16  H   UNL     1       6.618   4.011  16.861  0.00  0.00    +0.000 HD
ENDBRANCH  14  15
BRANCH  14  17
ATOM     17  C   UNL     1       6.552   6.317  17.245  0.00  0.00    +0.000 C 
BRANCH  17  18
ATOM     18  O   UNL     1       6.840   5.754  15.978  0.00  0.00    +0.000 OA
BRANCH  18  19
ATOM     19  C   UNL     1       5.674   5.430  15.228  0.00  0.00    +0.000 C 
BRANCH  19  20
ATOM     20  C   UNL     1       6.066   4.706  13.959  0.00  0.00    +0.000 A 
ATOM     21  C   UNL     1       7.269   4.976  13.286  0.00  0.00    +0.000 A 
ATOM     22  C   UNL     1       7.583   4.318  12.096  0.00  0.00    +0.000 A 
ATOM     23  C   UNL     1       6.705   3.375  11.570  0.00  0.00    +0.000 A 
ATOM     24  C   UNL     1       5.516   3.080  12.238  0.00  0.00    +0.000 A 
ATOM     25  C   UNL     1       5.200   3.742  13.427  0.00  0.00    +0.000 A 
ENDBRANCH  19  20
ENDBRANCH  18  19
ENDBRANCH  17  18
ENDBRANCH  14  17
ENDBRANCH   1  14
TORSDOF 7
ENDMDL
MODEL 6
REMARK VINA RESULT:      -7.8      0.917      1.462
REMARK  Name = 
REMARK  7 active torsions:
REMARK  status: ('A' for Active; 'I' for Inactive)
REMARK    1  A    between atoms: N_12  and  C_13
REMARK    2  A    between atoms: C_13  and  C_14
REMARK    3  A    between atoms: C_14  and  O_15
REMARK    4  A    between atoms: C_14  and  C_16
REMARK    5  A    between atoms: C_16  and  O_17
REMARK    6  A    between atoms: O_17  and  C_18
REMARK    7  A    between atoms: C_18  and  C_19
REMARK                            x       y       z     vdW  Elec       q    Type
REMARK                         _______ _______ _______ _____ _____    ______ ____
ROOT
ATOM      1  C   UNL     1       5.983   5.096  19.336  0.00  0.00    +0.000 C 
ENDROOT
BRANCH   1  13
ATOM      2  O   UNL     1       5.041   2.474  20.282  0.00  0.00    +0.000 OA
ATOM      3  C   UNL     1       4.420   3.156  19.485  0.00  0.00    +0.000 C 
ATOM      4  C   UNL     1       3.233   2.704  18.669  0.00  0.00    +0.000 C 
ATOM      5  C   UNL     1       2.079   1.955  19.350  0.00  0.00    +0.000 C 
ATOM      6  C   UNL     1       1.766   2.581  20.684  0.00  0.00    +0.000 C 
ATOM      7  C   UNL     1       1.294   3.809  20.433  0.00  0.00    +0.000 C 
ATOM      8  C   UNL     1       1.222   3.991  18.924  0.00  0.00    +0.000 C 
ATOM      9  C   UNL     1       0.873   2.532  18.579  0.00  0.00    +0.000 C 
ATOM     10  C   UNL     1       2.592   4.034  18.226  0.00  0.00    +0.000 C 
ATOM     11  C   UNL     1       3.620   5.068  18.543  0.00  0.00    +0.000 C 
ATOM     12  O   UNL     1       3.512   6.261  18.273  0.00  0.00    +0.000 OA
ATOM     13  N   UNL     1       4.698   4.451  19.110  0.00  0.00    +0.000 N 
ENDBRANCH   1  13
BRANCH   1  14
ATOM     14  C   UNL     1       6.944   4.857  18.144  0.00  0.00    +0.000 C 
BRANCH  14  15
ATOM     15  O   UNL     1       6.464   3.802  17.304  0.00  0.00    +0.000 OA
ATOM     16  H   UNL     1       5.538   3.986  17.067  0.00  0.00    +0.000 HD
ENDBRANCH  14  15
BRANCH  14  17
ATOM     17  C   UNL     1       7.154   6.135  17.323  0.00  0.00    +0.000 C 
BRANCH  17  18
ATOM     18  O   UNL     1       7.306   5.774  15.961  0.00  0.00    +0.000 OA
BRANCH  18  19
ATOM     19  C   UNL     1       6.075   5.737  15.248  0.00  0.00    +0.000 C 
BRANCH  19  20
ATOM     20  C   UNL     1       6.232   4.900  13.998  0.00  0.00    +0.000 A 
ATOM     21  C   UNL     1       5.297   3.916  13.635  0.00  0.00    +0.000 A 
ATOM     22  C   UNL     1       5.491   3.134  12.496  0.00  0.00    +0.000 A 
ATOM     23  C   UNL     1       6.615   3.334  11.699  0.00  0.00    +0.000 A 
ATOM     24  C   UNL     1       7.541   4.321  12.035  0.00  0.00    +0.000 A 
ATOM     25  C   UNL     1       7.349   5.100  13.178  0.00  0.00    +0.000 A 
ENDBRANCH  19  20
ENDBRANCH  18  19
ENDBRANCH  17  18
ENDBRANCH  14  17
ENDBRANCH   1  14
TORSDOF 7
ENDMDL
MODEL 7
REMARK VINA RESULT:      -7.7      1.450      2.675
REMARK  Name = 
REMARK  7 active torsions:
REMARK  status: ('A' for Active; 'I' for Inactive)
REMARK    1  A    between atoms: N_12  and  C_13
REMARK    2  A    between atoms: C_13  and  C_14
REMARK    3  A    between atoms: C_14  and  O_15
REMARK    4  A    between atoms: C_14  and  C_16
REMARK    5  A    between atoms: C_16  and  O_17
REMARK    6  A    between atoms: O_17  and  C_18
REMARK    7  A    between atoms: C_18  and  C_19
REMARK                            x       y       z     vdW  Elec       q    Type
REMARK                         _______ _______ _______ _____ _____    ______ ____
ROOT
ATOM      1  C   UNL     1       4.774   4.335  16.945  0.00  0.00    +0.000 C 
ENDROOT
BRANCH   1  13
ATOM      2  O   UNL     1       3.451   6.031  18.953  0.00  0.00    +0.000 OA
ATOM      3  C   UNL     1       3.596   4.829  19.089  0.00  0.00    +0.000 C 
ATOM      4  C   UNL     1       3.370   4.049  20.363  0.00  0.00    +0.000 C 
ATOM      5  C   UNL     1       2.084   4.266  21.173  0.00  0.00    +0.000 C 
ATOM      6  C   UNL     1       0.900   4.385  20.250  0.00  0.00    +0.000 C 
ATOM      7  C   UNL     1       0.750   3.194  19.658  0.00  0.00    +0.000 C 
ATOM      8  C   UNL     1       1.791   2.244  20.231  0.00  0.00    +0.000 C 
ATOM      9  C   UNL     1       1.807   2.827  21.656  0.00  0.00    +0.000 C 
ATOM     10  C   UNL     1       3.241   2.597  19.860  0.00  0.00    +0.000 C 
ATOM     11  C   UNL     1       3.717   2.648  18.447  0.00  0.00    +0.000 C 
ATOM     12  O   UNL     1       3.832   1.668  17.716  0.00  0.00    +0.000 OA
ATOM     13  N   UNL     1       4.053   3.936  18.146  0.00  0.00    +0.000 N 
ENDBRANCH   1  13
BRANCH   1  14
ATOM     14  C   UNL     1       6.175   4.897  17.296  0.00  0.00    +0.000 C 
BRANCH  14  15
ATOM     15  O   UNL     1       6.832   4.067  18.259  0.00  0.00    +0.000 OA
ATOM     16  H   UNL     1       7.702   4.454  18.466  0.00  0.00    +0.000 HD
ENDBRANCH  14  15
BRANCH  14  17
ATOM     17  C   UNL     1       7.050   5.053  16.046  0.00  0.00    +0.000 C 
BRANCH  17  18
ATOM     18  O   UNL     1       6.595   4.141  15.062  0.00  0.00    +0.000 OA
BRANCH  18  19
ATOM     19  C   UNL     1       6.891   4.555  13.733  0.00  0.00    +0.000 C 
BRANCH  19  20
ATOM     20  C   UNL     1       6.162   3.669  12.746  0.00  0.00    +0.000 A 
ATOM     21  C   UNL     1       6.779   2.565  12.136  0.00  0.00    +0.000 A 
ATOM     22  C   UNL     1       6.091   1.790  11.202  0.00  0.00    +0.000 A 
ATOM     23  C   UNL     1       4.774   2.103  10.874  0.00  0.00    +0.000 A 
ATOM     24  C   UNL     1       4.141   3.184  11.487  0.00  0.00    +0.000 A 
ATOM     25  C   UNL     1       4.831   3.961  12.419  0.00  0.00    +0.000 A 
ENDBRANCH  19  20
ENDBRANCH  18  19
ENDBRANCH  17  18
ENDBRANCH  14  17
ENDBRANCH   1  14
TORSDOF 7
ENDMDL
MODEL 8
REMARK VINA RESULT:      -7.6      0.979      1.701
REMARK  Name = 
REMARK  7 active torsions:
REMARK  status: ('A' for Active; 'I' for Inactive)
REMARK    1  A    between atoms: N_12  and  C_13
REMARK    2  A    between atoms: C_13  and  C_14
REMARK    3  A    between atoms: C_14  and  O_15
REMARK    4  A    between atoms: C_14  and  C_16
REMARK    5  A    between atoms: C_16  and  O_17
REMARK    6  A    between atoms: O_17  and  C_18
REMARK    7  A    between atoms: C_18  and  C_19
REMARK                            x       y       z     vdW  Elec       q    Type
REMARK                         _______ _______ _______ _____ _____    ______ ____
ROOT
ATOM      1  C   UNL     1       5.772   5.500  18.762  0.00  0.00    +0.000 C 
ENDROOT
BRANCH   1  13
ATOM      2  O   UNL     1       5.212   2.818  19.833  0.00  0.00    +0.000 OA
ATOM      3  C   UNL     1       4.407   3.452  19.173  0.00  0.00    +0.000 C 
ATOM      4  C   UNL     1       3.124   2.914  18.585  0.00  0.00    +0.000 C 
ATOM      5  C   UNL     1       2.173   2.084  19.458  0.00  0.00    +0.000 C 
ATOM      6  C   UNL     1       2.068   2.687  20.834  0.00  0.00    +0.000 C 
ATOM      7  C   UNL     1       1.471   3.877  20.690  0.00  0.00    +0.000 C 
ATOM      8  C   UNL     1       1.108   4.052  19.223  0.00  0.00    +0.000 C 
ATOM      9  C   UNL     1       0.807   2.571  18.930  0.00  0.00    +0.000 C 
ATOM     10  C   UNL     1       2.319   4.194  18.285  0.00  0.00    +0.000 C 
ATOM     11  C   UNL     1       3.311   5.299  18.419  0.00  0.00    +0.000 C 
ATOM     12  O   UNL     1       3.070   6.481  18.189  0.00  0.00    +0.000 OA
ATOM     13  N   UNL     1       4.517   4.764  18.769  0.00  0.00    +0.000 N 
ENDBRANCH   1  13
BRANCH   1  14
ATOM     14  C   UNL     1       6.675   5.052  17.586  0.00  0.00    +0.000 C 
BRANCH  14  15
ATOM     15  O   UNL     1       7.633   4.080  18.018  0.00  0.00    +0.000 OA
ATOM     16  H   UNL     1       8.379   4.540  18.443  0.00  0.00    +0.000 HD
ENDBRANCH  14  15
BRANCH  14  17
ATOM     17  C   UNL     1       5.849   4.498  16.419  0.00  0.00    +0.000 C 
BRANCH  17  18
ATOM     18  O   UNL     1       6.026   5.348  15.300  0.00  0.00    +0.000 OA
BRANCH  18  19
ATOM     19  C   UNL     1       7.038   4.898  14.406  0.00  0.00    +0.000 C 
BRANCH  19  20
ATOM     20  C   UNL     1       6.415   4.075  13.300  0.00  0.00    +0.000 A 
ATOM     21  C   UNL     1       5.025   3.992  13.122  0.00  0.00    +0.000 A 
ATOM     22  C   UNL     1       4.481   3.192  12.116  0.00  0.00    +0.000 A 
ATOM     23  C   UNL     1       5.321   2.475  11.268  0.00  0.00    +0.000 A 
ATOM     24  C   UNL     1       6.704   2.564  11.418  0.00  0.00    +0.000 A 
ATOM     25  C   UNL     1       7.248   3.361  12.428  0.00  0.00    +0.000 A 
ENDBRANCH  19  20
ENDBRANCH  18  19
ENDBRANCH  17  18
ENDBRANCH  14  17
ENDBRANCH   1  14
TORSDOF 7
ENDMDL
MODEL 9
REMARK VINA RESULT:      -7.6      1.571      2.235
REMARK  Name = 
REMARK  7 active torsions:
REMARK  status: ('A' for Active; 'I' for Inactive)
REMARK    1  A    between atoms: N_12  and  C_13
REMARK    2  A    between atoms: C_13  and  C_14
REMARK    3  A    between atoms: C_14  and  O_15
REMARK    4  A    between atoms: C_14  and  C_16
REMARK    5  A    between atoms: C_16  and  O_17
REMARK    6  A    between atoms: O_17  and  C_18
REMARK    7  A    between atoms: C_18  and  C_19
REMARK                            x       y       z     vdW  Elec       q    Type
REMARK                         _______ _______ _______ _____ _____    ______ ____
ROOT
ATOM      1  C   UNL     1       4.484   3.822  16.743  0.00  0.00    +0.000 C 
ENDROOT
BRANCH   1  13
ATOM      2  O   UNL     1       5.187   3.498  19.582  0.00  0.00    +0.000 OA
ATOM      3  C   UNL     1       4.082   3.238  19.136  0.00  0.00    +0.000 C 
ATOM      4  C   UNL     1       2.987   2.492  19.862  0.00  0.00    +0.000 C 
ATOM      5  C   UNL     1       2.620   2.886  21.299  0.00  0.00    +0.000 C 
ATOM      6  C   UNL     1       2.608   4.385  21.443  0.00  0.00    +0.000 C 
ATOM      7  C   UNL     1       1.603   4.838  20.683  0.00  0.00    +0.000 C 
ATOM      8  C   UNL     1       0.889   3.640  20.075  0.00  0.00    +0.000 C 
ATOM      9  C   UNL     1       1.090   2.684  21.265  0.00  0.00    +0.000 C 
ATOM     10  C   UNL     1       1.727   2.856  19.052  0.00  0.00    +0.000 C 
ATOM     11  C   UNL     1       2.253   3.478  17.802  0.00  0.00    +0.000 C 
ATOM     12  O   UNL     1       1.555   3.844  16.861  0.00  0.00    +0.000 OA
ATOM     13  N   UNL     1       3.616   3.505  17.868  0.00  0.00    +0.000 N 
ENDBRANCH   1  13
BRANCH   1  14
ATOM     14  C   UNL     1       4.735   5.348  16.644  0.00  0.00    +0.000 C 
BRANCH  14  15
ATOM     15  O   UNL     1       5.444   5.824  17.793  0.00  0.00    +0.000 OA
ATOM     16  H   UNL     1       5.946   5.085  18.181  0.00  0.00    +0.000 HD
ENDBRANCH  14  15
BRANCH  14  17
ATOM     17  C   UNL     1       5.493   5.714  15.363  0.00  0.00    +0.000 C 
BRANCH  17  18
ATOM     18  O   UNL     1       6.410   4.674  15.071  0.00  0.00    +0.000 OA
BRANCH  18  19
ATOM     19  C   UNL     1       7.040   4.819  13.802  0.00  0.00    +0.000 C 
BRANCH  19  20
ATOM     20  C   UNL     1       6.416   3.863  12.809  0.00  0.00    +0.000 A 
ATOM     21  C   UNL     1       5.033   3.828  12.573  0.00  0.00    +0.000 A 
ATOM     22  C   UNL     1       4.486   2.908  11.679  0.00  0.00    +0.000 A 
ATOM     23  C   UNL     1       5.315   2.018  11.001  0.00  0.00    +0.000 A 
ATOM     24  C   UNL     1       6.694   2.055  11.210  0.00  0.00    +0.000 A 
ATOM     25  C   UNL     1       7.241   2.973  12.108  0.00  0.00    +0.000 A 
ENDBRANCH  19  20
ENDBRANCH  18  19
ENDBRANCH  17  18
ENDBRANCH  14  17
ENDBRANCH   1  14
TORSDOF 7
ENDMDL
