MODEL 1
REMARK VINA RESULT:      -8.7      0.000      0.000
REMARK  Name = 
REMARK  8 active torsions:
REMARK  status: ('A' for Active; 'I' for Inactive)
REMARK    1  A    between atoms: C_1  and  O_2
REMARK    2  A    between atoms: O_2  and  C_3
REMARK    3  A    between atoms: C_5  and  N_6
REMARK    4  A    between atoms: C_7  and  C_9
REMARK    5  A    between atoms: C_12  and  C_13
REMARK    6  A    between atoms: C_21  and  C_22
REMARK    7  A    between atoms: N_24  and  C_25
REMARK    8  A    between atoms: C_29  and  C_30
REMARK                            x       y       z     vdW  Elec       q    Type
REMARK                         _______ _______ _______ _____ _____    ______ ____
ROOT
ATOM      1  C   UNL     1       2.595   4.995  20.191  0.00  0.00    +0.000 A 
ATOM      2  C   UNL     1       1.949   6.202  20.494  0.00  0.00    +0.000 A 
ATOM      3  C   UNL     1       2.066   7.334  19.677  0.00  0.00    +0.000 A 
ATOM      4  C   UNL     1       2.833   7.221  18.520  0.00  0.00    +0.000 A 
ATOM      5  C   UNL     1       3.484   6.011  18.201  0.00  0.00    +0.000 A 
ATOM      6  C   UNL     1       3.376   4.898  19.042  0.00  0.00    +0.000 A 
ENDROOT
BRANCH   3   7
ATOM      7  N   UNL     1       1.441   8.573  19.962  0.00  0.00    +0.000 N 
ATOM      8  C   UNL     1       1.227   9.084  21.232  0.00  0.00    +0.000 C 
ATOM      9  O   UNL     1       1.623   8.572  22.272  0.00  0.00    +0.000 OA
ATOM     10  H   UNL     1       1.183   9.182  19.193  0.00  0.00    +0.000 HD
BRANCH   8  11
ATOM     11  C   UNL     1       0.487  10.354  21.287  0.00  0.00    +0.000 A 
ATOM     12  C   UNL     1       0.607  11.277  20.259  0.00  0.00    +0.000 A 
ATOM     13  S   UNL     1      -0.320  12.657  20.573  0.00  0.00    +0.000 S 
ATOM     14  C   UNL     1      -0.789  11.996  22.101  0.00  0.00    +0.000 A 
ATOM     15  N   UNL     1      -0.353  10.763  22.333  0.00  0.00    +0.000 NA
BRANCH  14  16
ATOM     16  C   UNL     1      -1.637  12.805  22.997  0.00  0.00    +0.000 A 
ATOM     17  C   UNL     1      -2.895  12.342  23.386  0.00  0.00    +0.000 A 
ATOM     18  C   UNL     1      -3.672  13.141  24.211  0.00  0.00    +0.000 A 
ATOM     19  N   UNL     1      -3.285  14.352  24.674  0.00  0.00    +0.000 NA
ATOM     20  C   UNL     1      -2.066  14.780  24.302  0.00  0.00    +0.000 A 
ATOM     21  C   UNL     1      -1.218  14.055  23.481  0.00  0.00    +0.000 A 
ENDBRANCH  14  16
ENDBRANCH   8  11
ENDBRANCH   3   7
BRANCH   5  22
ATOM     22  C   UNL     1       4.347   6.000  16.994  0.00  0.00    +0.000 C 
ATOM     23  O   UNL     1       4.573   7.087  16.473  0.00  0.00    +0.000 OA
ATOM     24  N   UNL     1       4.758   4.758  16.522  0.00  0.00    +0.000 N 
ATOM     25  H   UNL     1       4.339   3.934  16.933  0.00  0.00    +0.000 HD
BRANCH  24  26
ATOM     26  C   UNL     1       5.525   4.564  15.345  0.00  0.00    +0.000 A 
ATOM     27  C   UNL     1       6.852   4.988  15.234  0.00  0.00    +0.000 A 
ATOM     28  C   UNL     1       7.555   4.857  14.038  0.00  0.00    +0.000 A 
ATOM     29  C   UNL     1       6.941   4.287  12.929  0.00  0.00    +0.000 A 
ATOM     30  C   UNL     1       5.621   3.822  13.016  0.00  0.00    +0.000 A 
ATOM     31  C   UNL     1       4.925   3.946  14.237  0.00  0.00    +0.000 A 
BRANCH  30  32
ATOM     32  C   UNL     1       4.950   3.223  11.804  0.00  0.00    +0.000 C 
ATOM     33  F   UNL     1       5.476   2.024  11.424  0.00  0.00    +0.000 F 
ATOM     34  F   UNL     1       3.621   3.001  11.998  0.00  0.00    +0.000 F 
ATOM     35  F   UNL     1       5.039   4.028  10.708  0.00  0.00    +0.000 F 
ENDBRANCH  30  32
ENDBRANCH  24  26
ENDBRANCH   5  22
BRANCH   1  37
ATOM     36  C   UNL     1       1.394   3.021  20.789  0.00  0.00    +0.000 C 
ATOM     37  O   UNL     1       2.371   4.001  21.105  0.00  0.00    +0.000 OA
ENDBRANCH   1  37
TORSDOF 7
ENDMDL
MODEL 2
REMARK VINA RESULT:      -8.5      0.950      1.099
REMARK  Name = 
REMARK  8 active torsions:
REMARK  status: ('A' for Active; 'I' for Inactive)
REMARK    1  A    between atoms: C_1  and  O_2
REMARK    2  A    between atoms: O_2  and  C_3
REMARK    3  A    between atoms: C_5  and  N_6
REMARK    4  A    between atoms: C_7  and  C_9
REMARK    5  A    between atoms: C_12  and  C_13
REMARK    6  A    between atoms: C_21  and  C_22
REMARK    7  A    between atoms: N_24  and  C_25
REMARK    8  A    between atoms: C_29  and  C_30
REMARK                            x       y       z     vdW  Elec       q    Type
REMARK                         _______ _______ _______ _____ _____    ______ ____
ROOT
ATOM      1  C   UNL     1       3.163   4.667  19.467  0.00  0.00    +0.000 A 
ATOM      2  C   UNL     1       2.509   5.861  19.802  0.00  0.00    +0.000 A 
ATOM      3  C   UNL     1       2.611   7.012  19.012  0.00  0.00    +0.000 A 
ATOM      4  C   UNL     1       3.370   6.934  17.847  0.00  0.00    +0.000 A 
ATOM      5  C   UNL     1       4.029   5.737  17.496  0.00  0.00    +0.000 A 
ATOM      6  C   UNL     1       3.936   4.604  18.311  0.00  0.00    +0.000 A 
ENDROOT
BRANCH   3   7
ATOM      7  N   UNL     1       1.977   8.240  19.330  0.00  0.00    +0.000 N 
ATOM      8  C   UNL     1       1.395   8.542  20.550  0.00  0.00    +0.000 C 
ATOM      9  O   UNL     1       1.423   7.822  21.541  0.00  0.00    +0.000 OA
ATOM     10  H   UNL     1       1.998   8.994  18.653  0.00  0.00    +0.000 HD
BRANCH   8  11
ATOM     11  C   UNL     1       0.725   9.849  20.626  0.00  0.00    +0.000 A 
ATOM     12  C   UNL     1       0.859  10.763  19.591  0.00  0.00    +0.000 A 
ATOM     13  S   UNL     1       0.018  12.191  19.930  0.00  0.00    +0.000 S 
ATOM     14  C   UNL     1      -0.434  11.558  21.475  0.00  0.00    +0.000 A 
ATOM     15  N   UNL     1      -0.057  10.305  21.697  0.00  0.00    +0.000 NA
BRANCH  14  16
ATOM     16  C   UNL     1      -1.208  12.413  22.396  0.00  0.00    +0.000 A 
ATOM     17  C   UNL     1      -2.439  11.982  22.892  0.00  0.00    +0.000 A 
ATOM     18  C   UNL     1      -3.147  12.823  23.737  0.00  0.00    +0.000 A 
ATOM     19  N   UNL     1      -2.716  14.045  24.122  0.00  0.00    +0.000 NA
ATOM     20  C   UNL     1      -1.522  14.443  23.647  0.00  0.00    +0.000 A 
ATOM     21  C   UNL     1      -0.743  13.676  22.798  0.00  0.00    +0.000 A 
ENDBRANCH  14  16
ENDBRANCH   8  11
ENDBRANCH   3   7
BRANCH   5  22
ATOM     22  C   UNL     1       4.883   5.761  16.283  0.00  0.00    +0.000 C 
ATOM     23  O   UNL     1       5.161   6.868  15.831  0.00  0.00    +0.000 OA
ATOM     24  N   UNL     1       5.229   4.534  15.728  0.00  0.00    +0.000 N 
ATOM     25  H   UNL     1       4.772   3.707  16.089  0.00  0.00    +0.000 HD
BRANCH  24  26
ATOM     26  C   UNL     1       5.979   4.379  14.533  0.00  0.00    +0.000 A 
ATOM     27  C   UNL     1       7.048   5.217  14.203  0.00  0.00    +0.000 A 
ATOM     28  C   UNL     1       7.714   5.093  12.985  0.00  0.00    +0.000 A 
ATOM     29  C   UNL     1       7.326   4.115  12.078  0.00  0.00    +0.000 A 
ATOM     30  C   UNL     1       6.279   3.237  12.391  0.00  0.00    +0.000 A 
ATOM     31  C   UNL     1       5.622   3.363  13.634  0.00  0.00    +0.000 A 
BRANCH  30  32
ATOM     32  C   UNL     1       5.845   2.190  11.394  0.00  0.00    +0.000 C 
ATOM     33  F   UNL     1       6.748   1.982  10.393  0.00  0.00    +0.000 F 
ATOM     34  F   UNL     1       5.639   0.974  11.968  0.00  0.00    +0.000 F 
ATOM     35  F   UNL     1       4.677   2.515  10.774  0.00  0.00    +0.000 F 
ENDBRANCH  30  32
ENDBRANCH  24  26
ENDBRANCH   5  22
BRANCH   1  37
ATOM     36  C   UNL     1       1.818   3.739  21.206  0.00  0.00    +0.000 C 
ATOM     37  O   UNL     1       2.954   3.651  20.359  0.00  0.00    +0.000 OA
ENDBRANCH   1  37
TORSDOF 7
ENDMDL
MODEL 3
REMARK VINA RESULT:      -8.5      0.884      1.066
REMARK  Name = 
REMARK  8 active torsions:
REMARK  status: ('A' for Active; 'I' for Inactive)
REMARK    1  A    between atoms: C_1  and  O_2
REMARK    2  A    between atoms: O_2  and  C_3
REMARK    3  A    between atoms: C_5  and  N_6
REMARK    4  A    between atoms: C_7  and  C_9
REMARK    5  A    between atoms: C_12  and  C_13
REMARK    6  A    between atoms: C_21  and  C_22
REMARK    7  A    between atoms: N_24  and  C_25
REMARK    8  A    between atoms: C_29  and  C_30
REMARK                            x       y       z     vdW  Elec       q    Type
REMARK                         _______ _______ _______ _____ _____    ______ ____
ROOT
ATOM      1  C   UNL     1       2.229   5.122  20.429  0.00  0.00    +0.000 A 
ATOM      2  C   UNL     1       1.575   6.334  20.689  0.00  0.00    +0.000 A 
ATOM      3  C   UNL     1       1.798   7.480  19.917  0.00  0.00    +0.000 A 
ATOM      4  C   UNL     1       2.682   7.379  18.846  0.00  0.00    +0.000 A 
ATOM      5  C   UNL     1       3.344   6.163  18.571  0.00  0.00    +0.000 A 
ATOM      6  C   UNL     1       3.127   5.035  19.369  0.00  0.00    +0.000 A 
ENDROOT
BRANCH   3   7
ATOM      7  N   UNL     1       1.166   8.726  20.162  0.00  0.00    +0.000 N 
ATOM      8  C   UNL     1       1.133   9.375  21.386  0.00  0.00    +0.000 C 
ATOM      9  O   UNL     1       1.714   8.999  22.397  0.00  0.00    +0.000 OA
ATOM     10  H   UNL     1       0.760   9.232  19.383  0.00  0.00    +0.000 HD
BRANCH   8  11
ATOM     11  C   UNL     1       0.351  10.619  21.421  0.00  0.00    +0.000 A 
ATOM     12  C   UNL     1       0.850  11.774  20.838  0.00  0.00    +0.000 A 
ATOM     13  S   UNL     1      -0.224  13.067  21.036  0.00  0.00    +0.000 S 
ATOM     14  C   UNL     1      -1.280  12.048  21.952  0.00  0.00    +0.000 A 
ATOM     15  N   UNL     1      -0.901  10.779  22.032  0.00  0.00    +0.000 NA
BRANCH  14  16
ATOM     16  C   UNL     1      -2.503  12.633  22.535  0.00  0.00    +0.000 A 
ATOM     17  C   UNL     1      -3.055  12.098  23.701  0.00  0.00    +0.000 A 
ATOM     18  C   UNL     1      -4.217  12.661  24.206  0.00  0.00    +0.000 A 
ATOM     19  N   UNL     1      -4.857  13.710  23.641  0.00  0.00    +0.000 NA
ATOM     20  C   UNL     1      -4.308  14.223  22.525  0.00  0.00    +0.000 A 
ATOM     21  C   UNL     1      -3.151  13.730  21.945  0.00  0.00    +0.000 A 
ENDBRANCH  14  16
ENDBRANCH   8  11
ENDBRANCH   3   7
BRANCH   5  22
ATOM     22  C   UNL     1       4.331   6.161  17.463  0.00  0.00    +0.000 C 
ATOM     23  O   UNL     1       4.690   7.258  17.049  0.00  0.00    +0.000 OA
ATOM     24  N   UNL     1       4.702   4.923  16.949  0.00  0.00    +0.000 N 
ATOM     25  H   UNL     1       4.182   4.111  17.253  0.00  0.00    +0.000 HD
BRANCH  24  26
ATOM     26  C   UNL     1       5.578   4.745  15.847  0.00  0.00    +0.000 A 
ATOM     27  C   UNL     1       6.900   5.201  15.857  0.00  0.00    +0.000 A 
ATOM     28  C   UNL     1       7.712   5.084  14.731  0.00  0.00    +0.000 A 
ATOM     29  C   UNL     1       7.216   4.497  13.573  0.00  0.00    +0.000 A 
ATOM     30  C   UNL     1       5.905   4.001  13.540  0.00  0.00    +0.000 A 
ATOM     31  C   UNL     1       5.096   4.111  14.692  0.00  0.00    +0.000 A 
BRANCH  30  32
ATOM     32  C   UNL     1       5.362   3.384  12.274  0.00  0.00    +0.000 C 
ATOM     33  F   UNL     1       5.894   3.915  11.136  0.00  0.00    +0.000 F 
ATOM     34  F   UNL     1       5.593   2.045  12.203  0.00  0.00    +0.000 F 
ATOM     35  F   UNL     1       4.014   3.538  12.157  0.00  0.00    +0.000 F 
ENDBRANCH  30  32
ENDBRANCH  24  26
ENDBRANCH   5  22
BRANCH   1  37
ATOM     36  C   UNL     1       1.162   3.013  20.767  0.00  0.00    +0.000 C 
ATOM     37  O   UNL     1       1.891   4.113  21.291  0.00  0.00    +0.000 OA
ENDBRANCH   1  37
TORSDOF 7
ENDMDL
MODEL 4
REMARK VINA RESULT:      -8.4      1.054      1.219
REMARK  Name = 
REMARK  8 active torsions:
REMARK  status: ('A' for Active; 'I' for Inactive)
REMARK    1  A    between atoms: C_1  and  O_2
REMARK    2  A    between atoms: O_2  and  C_3
REMARK    3  A    between atoms: C_5  and  N_6
REMARK    4  A    between atoms: C_7  and  C_9
REMARK    5  A    between atoms: C_12  and  C_13
REMARK    6  A    between atoms: C_21  and  C_22
REMARK    7  A    between atoms: N_24  and  C_25
REMARK    8  A    between atoms: C_29  and  C_30
REMARK                            x       y       z     vdW  Elec       q    Type
REMARK                         _______ _______ _______ _____ _____    ______ ____
ROOT
ATOM      1  C   UNL     1       1.878   4.927  20.126  0.00  0.00    +0.000 A 
ATOM      2  C   UNL     1       1.391   6.166  20.565  0.00  0.00    +0.000 A 
ATOM      3  C   UNL     1       1.797   7.373  19.985  0.00  0.00    +0.000 A 
ATOM      4  C   UNL     1       2.693   7.312  18.920  0.00  0.00    +0.000 A 
ATOM      5  C   UNL     1       3.187   6.071  18.466  0.00  0.00    +0.000 A 
ATOM      6  C   UNL     1       2.790   4.876  19.075  0.00  0.00    +0.000 A 
ENDROOT
BRANCH   3   7
ATOM      7  N   UNL     1       1.337   8.643  20.414  0.00  0.00    +0.000 N 
ATOM      8  C   UNL     1       0.835   9.631  19.582  0.00  0.00    +0.000 C 
ATOM      9  O   UNL     1       0.647   9.508  18.378  0.00  0.00    +0.000 OA
ATOM     10  H   UNL     1       1.298   8.842  21.407  0.00  0.00    +0.000 HD
BRANCH   8  11
ATOM     11  C   UNL     1       0.491  10.900  20.241  0.00  0.00    +0.000 A 
ATOM     12  C   UNL     1       1.362  11.977  20.180  0.00  0.00    +0.000 A 
ATOM     13  S   UNL     1       0.748  13.302  21.035  0.00  0.00    +0.000 S 
ATOM     14  C   UNL     1      -0.623  12.361  21.510  0.00  0.00    +0.000 A 
ATOM     15  N   UNL     1      -0.674  11.144  20.983  0.00  0.00    +0.000 NA
BRANCH  14  16
ATOM     16  C   UNL     1      -1.623  12.966  22.411  0.00  0.00    +0.000 A 
ATOM     17  C   UNL     1      -2.495  12.157  23.141  0.00  0.00    +0.000 A 
ATOM     18  C   UNL     1      -3.435  12.762  23.961  0.00  0.00    +0.000 A 
ATOM     19  N   UNL     1      -3.562  14.100  24.105  0.00  0.00    +0.000 NA
ATOM     20  C   UNL     1      -2.708  14.868  23.405  0.00  0.00    +0.000 A 
ATOM     21  C   UNL     1      -1.736  14.357  22.561  0.00  0.00    +0.000 A 
ENDBRANCH  14  16
ENDBRANCH   8  11
ENDBRANCH   3   7
BRANCH   5  22
ATOM     22  C   UNL     1       4.201   6.097  17.382  0.00  0.00    +0.000 C 
ATOM     23  O   UNL     1       4.566   7.205  17.002  0.00  0.00    +0.000 OA
ATOM     24  N   UNL     1       4.588   4.873  16.849  0.00  0.00    +0.000 N 
ATOM     25  H   UNL     1       4.065   4.052  17.121  0.00  0.00    +0.000 HD
BRANCH  24  26
ATOM     26  C   UNL     1       5.491   4.724  15.764  0.00  0.00    +0.000 A 
ATOM     27  C   UNL     1       6.801   5.210  15.805  0.00  0.00    +0.000 A 
ATOM     28  C   UNL     1       7.640   5.120  14.695  0.00  0.00    +0.000 A 
ATOM     29  C   UNL     1       7.182   4.530  13.523  0.00  0.00    +0.000 A 
ATOM     30  C   UNL     1       5.884   4.004  13.459  0.00  0.00    +0.000 A 
ATOM     31  C   UNL     1       5.049   4.087  14.595  0.00  0.00    +0.000 A 
BRANCH  30  32
ATOM     32  C   UNL     1       5.382   3.384  12.178  0.00  0.00    +0.000 C 
ATOM     33  F   UNL     1       5.757   4.064  11.058  0.00  0.00    +0.000 F 
ATOM     34  F   UNL     1       5.825   2.109  12.005  0.00  0.00    +0.000 F 
ATOM     35  F   UNL     1       4.022   3.317  12.131  0.00  0.00    +0.000 F 
ENDBRANCH  30  32
ENDBRANCH  24  26
ENDBRANCH   5  22
BRANCH   1  37
ATOM     36  C   UNL     1       2.238   3.190  21.724  0.00  0.00    +0.000 C 
ATOM     37  O   UNL     1       1.374   3.857  20.815  0.00  0.00    +0.000 OA
ENDBRANCH   1  37
TORSDOF 7
ENDMDL
MODEL 5
REMARK VINA RESULT:      -8.4      1.265      1.445
REMARK  Name = 
REMARK  8 active torsions:
REMARK  status: ('A' for Active; 'I' for Inactive)
REMARK    1  A    between atoms: C_1  and  O_2
REMARK    2  A    between atoms: O_2  and  C_3
REMARK    3  A    between atoms: C_5  and  N_6
REMARK    4  A    between atoms: C_7  and  C_9
REMARK    5  A    between atoms: C_12  and  C_13
REMARK    6  A    between atoms: C_21  and  C_22
REMARK    7  A    between atoms: N_24  and  C_25
REMARK    8  A    between atoms: C_29  and  C_30
REMARK                            x       y       z     vdW  Elec       q    Type
REMARK                         _______ _______ _______ _____ _____    ______ ____
ROOT
ATOM      1  C   UNL     1       2.766   4.866  20.175  0.00  0.00    +0.000 A 
ATOM      2  C   UNL     1       2.108   6.066  20.481  0.00  0.00    +0.000 A 
ATOM      3  C   UNL     1       2.200   7.196  19.660  0.00  0.00    +0.000 A 
ATOM      4  C   UNL     1       2.955   7.090  18.493  0.00  0.00    +0.000 A 
ATOM      5  C   UNL     1       3.618   5.887  18.172  0.00  0.00    +0.000 A 
ATOM      6  C   UNL     1       3.535   4.776  19.018  0.00  0.00    +0.000 A 
ENDROOT
BRANCH   3   7
ATOM      7  N   UNL     1       1.561   8.428  19.947  0.00  0.00    +0.000 N 
ATOM      8  C   UNL     1       1.200   9.376  19.003  0.00  0.00    +0.000 C 
ATOM      9  O   UNL     1       1.311   9.240  17.791  0.00  0.00    +0.000 OA
ATOM     10  H   UNL     1       1.275   8.623  20.899  0.00  0.00    +0.000 HD
BRANCH   8  11
ATOM     11  C   UNL     1       0.619  10.615  19.541  0.00  0.00    +0.000 A 
ATOM     12  C   UNL     1       1.216  11.839  19.277  0.00  0.00    +0.000 A 
ATOM     13  S   UNL     1       0.373  13.100  20.027  0.00  0.00    +0.000 S 
ATOM     14  C   UNL     1      -0.715  11.954  20.730  0.00  0.00    +0.000 A 
ATOM     15  N   UNL     1      -0.521  10.696  20.354  0.00  0.00    +0.000 NA
BRANCH  14  16
ATOM     16  C   UNL     1      -1.767  12.440  21.644  0.00  0.00    +0.000 A 
ATOM     17  C   UNL     1      -2.046  11.754  22.827  0.00  0.00    +0.000 A 
ATOM     18  C   UNL     1      -3.056  12.229  23.649  0.00  0.00    +0.000 A 
ATOM     19  N   UNL     1      -3.795  13.329  23.380  0.00  0.00    +0.000 NA
ATOM     20  C   UNL     1      -3.507  13.989  22.244  0.00  0.00    +0.000 A 
ATOM     21  C   UNL     1      -2.518  13.592  21.360  0.00  0.00    +0.000 A 
ENDBRANCH  14  16
ENDBRANCH   8  11
ENDBRANCH   3   7
BRANCH   5  22
ATOM     22  C   UNL     1       4.467   5.883  16.955  0.00  0.00    +0.000 C 
ATOM     23  O   UNL     1       4.767   6.980  16.493  0.00  0.00    +0.000 OA
ATOM     24  N   UNL     1       4.783   4.644  16.408  0.00  0.00    +0.000 N 
ATOM     25  H   UNL     1       4.309   3.831  16.777  0.00  0.00    +0.000 HD
BRANCH  24  26
ATOM     26  C   UNL     1       5.523   4.463  15.211  0.00  0.00    +0.000 A 
ATOM     27  C   UNL     1       6.847   4.891  15.075  0.00  0.00    +0.000 A 
ATOM     28  C   UNL     1       7.524   4.773  13.862  0.00  0.00    +0.000 A 
ATOM     29  C   UNL     1       6.885   4.213  12.762  0.00  0.00    +0.000 A 
ATOM     30  C   UNL     1       5.568   3.745  12.873  0.00  0.00    +0.000 A 
ATOM     31  C   UNL     1       4.899   3.856  14.112  0.00  0.00    +0.000 A 
BRANCH  30  32
ATOM     32  C   UNL     1       4.870   3.158  11.671  0.00  0.00    +0.000 C 
ATOM     33  F   UNL     1       3.554   2.874  11.888  0.00  0.00    +0.000 F 
ATOM     34  F   UNL     1       4.899   3.987  10.592  0.00  0.00    +0.000 F 
ATOM     35  F   UNL     1       5.436   1.989  11.260  0.00  0.00    +0.000 F 
ENDBRANCH  30  32
ENDBRANCH  24  26
ENDBRANCH   5  22
BRANCH   1  37
ATOM     36  C   UNL     1       1.673   2.824  20.751  0.00  0.00    +0.000 C 
ATOM     37  O   UNL     1       2.566   3.873  21.095  0.00  0.00    +0.000 OA
ENDBRANCH   1  37
TORSDOF 7
ENDMDL
MODEL 6
REMARK VINA RESULT:      -8.4      0.783      1.051
REMARK  Name = 
REMARK  8 active torsions:
REMARK  status: ('A' for Active; 'I' for Inactive)
REMARK    1  A    between atoms: C_1  and  O_2
REMARK    2  A    between atoms: O_2  and  C_3
REMARK    3  A    between atoms: C_5  and  N_6
REMARK    4  A    between atoms: C_7  and  C_9
REMARK    5  A    between atoms: C_12  and  C_13
REMARK    6  A    between atoms: C_21  and  C_22
REMARK    7  A    between atoms: N_24  and  C_25
REMARK    8  A    between atoms: C_29  and  C_30
REMARK                            x       y       z     vdW  Elec       q    Type
REMARK                         _______ _______ _______ _____ _____    ______ ____
ROOT
ATOM      1  C   UNL     1       1.947   4.638  20.599  0.00  0.00    +0.000 A 
ATOM      2  C   UNL     1       1.352   5.892  20.802  0.00  0.00    +0.000 A 
ATOM      3  C   UNL     1       1.789   7.040  20.130  0.00  0.00    +0.000 A 
ATOM      4  C   UNL     1       2.831   6.900  19.217  0.00  0.00    +0.000 A 
ATOM      5  C   UNL     1       3.435   5.643  19.001  0.00  0.00    +0.000 A 
ATOM      6  C   UNL     1       3.002   4.512  19.700  0.00  0.00    +0.000 A 
ENDROOT
BRANCH   3   7
ATOM      7  N   UNL     1       1.221   8.325  20.323  0.00  0.00    +0.000 N 
ATOM      8  C   UNL     1       1.264   9.045  21.506  0.00  0.00    +0.000 C 
ATOM      9  O   UNL     1       1.868   8.702  22.516  0.00  0.00    +0.000 OA
ATOM     10  H   UNL     1       0.807   8.803  19.531  0.00  0.00    +0.000 HD
BRANCH   8  11
ATOM     11  C   UNL     1       0.539  10.323  21.496  0.00  0.00    +0.000 A 
ATOM     12  C   UNL     1       0.681  11.198  20.429  0.00  0.00    +0.000 A 
ATOM     13  S   UNL     1      -0.234  12.601  20.670  0.00  0.00    +0.000 S 
ATOM     14  C   UNL     1      -0.729  12.013  22.219  0.00  0.00    +0.000 A 
ATOM     15  N   UNL     1      -0.310  10.788  22.512  0.00  0.00    +0.000 NA
BRANCH  14  16
ATOM     16  C   UNL     1      -1.578  12.871  23.068  0.00  0.00    +0.000 A 
ATOM     17  C   UNL     1      -2.876  12.475  23.396  0.00  0.00    +0.000 A 
ATOM     18  C   UNL     1      -3.651  13.318  24.177  0.00  0.00    +0.000 A 
ATOM     19  N   UNL     1      -3.227  14.511  24.653  0.00  0.00    +0.000 NA
ATOM     20  C   UNL     1      -1.970  14.874  24.340  0.00  0.00    +0.000 A 
ATOM     21  C   UNL     1      -1.121  14.102  23.566  0.00  0.00    +0.000 A 
ENDBRANCH  14  16
ENDBRANCH   8  11
ENDBRANCH   3   7
BRANCH   5  22
ATOM     22  C   UNL     1       4.593   5.595  18.074  0.00  0.00    +0.000 C 
ATOM     23  O   UNL     1       5.565   6.281  18.376  0.00  0.00    +0.000 OA
ATOM     24  N   UNL     1       4.445   4.839  16.916  0.00  0.00    +0.000 N 
ATOM     25  H   UNL     1       3.523   4.484  16.699  0.00  0.00    +0.000 HD
BRANCH  24  26
ATOM     26  C   UNL     1       5.424   4.743  15.893  0.00  0.00    +0.000 A 
ATOM     27  C   UNL     1       6.705   5.285  16.027  0.00  0.00    +0.000 A 
ATOM     28  C   UNL     1       7.619   5.246  14.975  0.00  0.00    +0.000 A 
ATOM     29  C   UNL     1       7.267   4.652  13.770  0.00  0.00    +0.000 A 
ATOM     30  C   UNL     1       6.001   4.070  13.613  0.00  0.00    +0.000 A 
ATOM     31  C   UNL     1       5.089   4.102  14.691  0.00  0.00    +0.000 A 
BRANCH  30  32
ATOM     32  C   UNL     1       5.614   3.445  12.296  0.00  0.00    +0.000 C 
ATOM     33  F   UNL     1       4.302   3.625  11.970  0.00  0.00    +0.000 F 
ATOM     34  F   UNL     1       6.328   3.943  11.250  0.00  0.00    +0.000 F 
ATOM     35  F   UNL     1       5.816   2.098  12.279  0.00  0.00    +0.000 F 
ENDBRANCH  30  32
ENDBRANCH  24  26
ENDBRANCH   5  22
BRANCH   1  37
ATOM     36  C   UNL     1       2.221   2.535  21.693  0.00  0.00    +0.000 C 
ATOM     37  O   UNL     1       1.392   3.634  21.345  0.00  0.00    +0.000 OA
ENDBRANCH   1  37
TORSDOF 7
ENDMDL
MODEL 7
REMARK VINA RESULT:      -8.3      1.075      1.517
REMARK  Name = 
REMARK  8 active torsions:
REMARK  status: ('A' for Active; 'I' for Inactive)
REMARK    1  A    between atoms: C_1  and  O_2
REMARK    2  A    between atoms: O_2  and  C_3
REMARK    3  A    between atoms: C_5  and  N_6
REMARK    4  A    between atoms: C_7  and  C_9
REMARK    5  A    between atoms: C_12  and  C_13
REMARK    6  A    between atoms: C_21  and  C_22
REMARK    7  A    between atoms: N_24  and  C_25
REMARK    8  A    between atoms: C_29  and  C_30
REMARK                            x       y       z     vdW  Elec       q    Type
REMARK                         _______ _______ _______ _____ _____    ______ ____
ROOT
ATOM      1  C   UNL     1       2.603   5.084  20.261  0.00  0.00    +0.000 A 
ATOM      2  C   UNL     1       1.930   6.286  20.523  0.00  0.00    +0.000 A 
ATOM      3  C   UNL     1       2.041   7.399  19.681  0.00  0.00    +0.000 A 
ATOM      4  C   UNL     1       2.829   7.273  18.539  0.00  0.00    +0.000 A 
ATOM      5  C   UNL     1       3.508   6.068  18.262  0.00  0.00    +0.000 A 
ATOM      6  C   UNL     1       3.406   4.974  19.129  0.00  0.00    +0.000 A 
ENDROOT
BRANCH   3   7
ATOM      7  N   UNL     1       1.387   8.633  19.923  0.00  0.00    +0.000 N 
ATOM      8  C   UNL     1       1.176   9.622  18.976  0.00  0.00    +0.000 C 
ATOM      9  O   UNL     1       1.453   9.527  17.786  0.00  0.00    +0.000 OA
ATOM     10  H   UNL     1       0.973   8.800  20.833  0.00  0.00    +0.000 HD
BRANCH   8  11
ATOM     11  C   UNL     1       0.546  10.853  19.475  0.00  0.00    +0.000 A 
ATOM     12  C   UNL     1       0.691  12.043  18.778  0.00  0.00    +0.000 A 
ATOM     13  S   UNL     1      -0.106  13.310  19.570  0.00  0.00    +0.000 S 
ATOM     14  C   UNL     1      -0.554  12.231  20.845  0.00  0.00    +0.000 A 
ATOM     15  N   UNL     1      -0.208  10.964  20.652  0.00  0.00    +0.000 NA
BRANCH  14  16
ATOM     16  C   UNL     1      -1.290  12.768  22.006  0.00  0.00    +0.000 A 
ATOM     17  C   UNL     1      -0.756  13.816  22.757  0.00  0.00    +0.000 A 
ATOM     18  C   UNL     1      -1.467  14.279  23.853  0.00  0.00    +0.000 A 
ATOM     19  N   UNL     1      -2.661  13.780  24.245  0.00  0.00    +0.000 NA
ATOM     20  C   UNL     1      -3.171  12.779  23.505  0.00  0.00    +0.000 A 
ATOM     21  C   UNL     1      -2.536  12.249  22.395  0.00  0.00    +0.000 A 
ENDBRANCH  14  16
ENDBRANCH   8  11
ENDBRANCH   3   7
BRANCH   5  22
ATOM     22  C   UNL     1       4.391   6.042  17.071  0.00  0.00    +0.000 C 
ATOM     23  O   UNL     1       4.697   7.131  16.594  0.00  0.00    +0.000 OA
ATOM     24  N   UNL     1       4.731   4.794  16.561  0.00  0.00    +0.000 N 
ATOM     25  H   UNL     1       4.252   3.985  16.935  0.00  0.00    +0.000 HD
BRANCH  24  26
ATOM     26  C   UNL     1       5.507   4.592  15.391  0.00  0.00    +0.000 A 
ATOM     27  C   UNL     1       6.836   5.013  15.289  0.00  0.00    +0.000 A 
ATOM     28  C   UNL     1       7.549   4.874  14.099  0.00  0.00    +0.000 A 
ATOM     29  C   UNL     1       6.942   4.299  12.988  0.00  0.00    +0.000 A 
ATOM     30  C   UNL     1       5.621   3.837  13.067  0.00  0.00    +0.000 A 
ATOM     31  C   UNL     1       4.915   3.969  14.282  0.00  0.00    +0.000 A 
BRANCH  30  32
ATOM     32  C   UNL     1       4.958   3.233  11.853  0.00  0.00    +0.000 C 
ATOM     33  F   UNL     1       5.051   4.010  10.736  0.00  0.00    +0.000 F 
ATOM     34  F   UNL     1       5.489   2.027  11.512  0.00  0.00    +0.000 F 
ATOM     35  F   UNL     1       3.626   3.016  12.041  0.00  0.00    +0.000 F 
ENDBRANCH  30  32
ENDBRANCH  24  26
ENDBRANCH   5  22
BRANCH   1  37
ATOM     36  C   UNL     1       1.351   3.168  20.937  0.00  0.00    +0.000 C 
ATOM     37  O   UNL     1       2.382   4.109  21.196  0.00  0.00    +0.000 OA
ENDBRANCH   1  37
TORSDOF 7
ENDMDL
MODEL 8
REMARK VINA RESULT:      -8.3      2.751      3.362
REMARK  Name = 
REMARK  8 active torsions:
REMARK  status: ('A' for Active; 'I' for Inactive)
REMARK    1  A    between atoms: C_1  and  O_2
REMARK    2  A    between atoms: O_2  and  C_3
REMARK    3  A    between atoms: C_5  and  N_6
REMARK    4  A    between atoms: C_7  and  C_9
REMARK    5  A    between atoms: C_12  and  C_13
REMARK    6  A    between atoms: C_21  and  C_22
REMARK    7  A    between atoms: N_24  and  C_25
REMARK    8  A    between atoms: C_29  and  C_30
REMARK                            x       y       z     vdW  Elec       q    Type
REMARK                         _______ _______ _______ _____ _____    ______ ____
ROOT
ATOM      1  C   UNL     1       1.762   4.325  20.458  0.00  0.00    +0.000 A 
ATOM      2  C   UNL     1       1.387   5.662  20.657  0.00  0.00    +0.000 A 
ATOM      3  C   UNL     1       2.044   6.721  20.019  0.00  0.00    +0.000 A 
ATOM      4  C   UNL     1       3.081   6.408  19.143  0.00  0.00    +0.000 A 
ATOM      5  C   UNL     1       3.465   5.067  18.931  0.00  0.00    +0.000 A 
ATOM      6  C   UNL     1       2.814   4.023  19.597  0.00  0.00    +0.000 A 
ENDROOT
BRANCH   3   7
ATOM      7  N   UNL     1       1.701   8.083  20.208  0.00  0.00    +0.000 N 
ATOM      8  C   UNL     1       1.448   8.990  19.191  0.00  0.00    +0.000 C 
ATOM      9  O   UNL     1       1.407   8.714  17.998  0.00  0.00    +0.000 OA
ATOM     10  H   UNL     1       1.557   8.427  21.151  0.00  0.00    +0.000 HD
BRANCH   8  11
ATOM     11  C   UNL     1       1.189  10.371  19.624  0.00  0.00    +0.000 A 
ATOM     12  C   UNL     1       0.492  10.615  20.798  0.00  0.00    +0.000 A 
ATOM     13  S   UNL     1       0.305  12.277  21.057  0.00  0.00    +0.000 S 
ATOM     14  C   UNL     1       1.103  12.601  19.557  0.00  0.00    +0.000 A 
ATOM     15  N   UNL     1       1.571  11.528  18.930  0.00  0.00    +0.000 NA
BRANCH  14  16
ATOM     16  C   UNL     1       1.231  14.000  19.106  0.00  0.00    +0.000 A 
ATOM     17  C   UNL     1       2.479  14.517  18.754  0.00  0.00    +0.000 A 
ATOM     18  C   UNL     1       2.562  15.842  18.356  0.00  0.00    +0.000 A 
ATOM     19  N   UNL     1       1.501  16.677  18.282  0.00  0.00    +0.000 NA
ATOM     20  C   UNL     1       0.303  16.164  18.612  0.00  0.00    +0.000 A 
ATOM     21  C   UNL     1       0.119  14.854  19.021  0.00  0.00    +0.000 A 
ENDBRANCH  14  16
ENDBRANCH   8  11
ENDBRANCH   3   7
BRANCH   5  22
ATOM     22  C   UNL     1       4.632   4.824  18.047  0.00  0.00    +0.000 C 
ATOM     23  O   UNL     1       5.700   4.592  18.604  0.00  0.00    +0.000 OA
ATOM     24  N   UNL     1       4.426   4.954  16.678  0.00  0.00    +0.000 N 
ATOM     25  H   UNL     1       3.544   5.340  16.368  0.00  0.00    +0.000 HD
BRANCH  24  26
ATOM     26  C   UNL     1       5.446   4.826  15.701  0.00  0.00    +0.000 A 
ATOM     27  C   UNL     1       6.713   5.397  15.858  0.00  0.00    +0.000 A 
ATOM     28  C   UNL     1       7.669   5.323  14.846  0.00  0.00    +0.000 A 
ATOM     29  C   UNL     1       7.374   4.664  13.658  0.00  0.00    +0.000 A 
ATOM     30  C   UNL     1       6.125   4.053  13.481  0.00  0.00    +0.000 A 
ATOM     31  C   UNL     1       5.170   4.121  14.519  0.00  0.00    +0.000 A 
BRANCH  30  32
ATOM     32  C   UNL     1       5.800   3.358  12.181  0.00  0.00    +0.000 C 
ATOM     33  F   UNL     1       4.525   3.575  11.750  0.00  0.00    +0.000 F 
ATOM     34  F   UNL     1       6.610   3.752  11.161  0.00  0.00    +0.000 F 
ATOM     35  F   UNL     1       5.936   2.005  12.267  0.00  0.00    +0.000 F 
ENDBRANCH  30  32
ENDBRANCH  24  26
ENDBRANCH   5  22
BRANCH   1  37
ATOM     36  C   UNL     1       1.701   2.416  21.890  0.00  0.00    +0.000 C 
ATOM     37  O   UNL     1       1.012   3.428  21.169  0.00  0.00    +0.000 OA
ENDBRANCH   1  37
TORSDOF 7
ENDMDL
MODEL 9
REMARK VINA RESULT:      -8.2      2.847      3.315
REMARK  Name = 
REMARK  8 active torsions:
REMARK  status: ('A' for Active; 'I' for Inactive)
REMARK    1  A    between atoms: C_1  and  O_2
REMARK    2  A    between atoms: O_2  and  C_3
REMARK    3  A    between atoms: C_5  and  N_6
REMARK    4  A    between atoms: C_7  and  C_9
REMARK    5  A    between atoms: C_12  and  C_13
REMARK    6  A    between atoms: C_21  and  C_22
REMARK    7  A    between atoms: N_24  and  C_25
REMARK    8  A    between atoms: C_29  and  C_30
REMARK                            x       y       z     vdW  Elec       q    Type
REMARK                         _______ _______ _______ _____ _____    ______ ____
ROOT
ATOM      1  C   UNL     1       3.013   3.520  20.100  0.00  0.00    +0.000 A 
ATOM      2  C   UNL     1       2.461   4.778  20.379  0.00  0.00    +0.000 A 
ATOM      3  C   UNL     1       2.825   5.925  19.665  0.00  0.00    +0.000 A 
ATOM      4  C   UNL     1       3.747   5.780  18.631  0.00  0.00    +0.000 A 
ATOM      5  C   UNL     1       4.306   4.519  18.337  0.00  0.00    +0.000 A 
ATOM      6  C   UNL     1       3.949   3.388  19.078  0.00  0.00    +0.000 A 
ENDROOT
BRANCH   3   7
ATOM      7  N   UNL     1       2.298   7.214  19.931  0.00  0.00    +0.000 N 
ATOM      8  C   UNL     1       1.897   8.125  18.966  0.00  0.00    +0.000 C 
ATOM      9  O   UNL     1       1.868   7.906  17.761  0.00  0.00    +0.000 OA
ATOM     10  H   UNL     1       2.129   7.487  20.892  0.00  0.00    +0.000 HD
BRANCH   8  11
ATOM     11  C   UNL     1       1.456   9.432  19.474  0.00  0.00    +0.000 A 
ATOM     12  C   UNL     1       0.707   9.512  20.639  0.00  0.00    +0.000 A 
ATOM     13  S   UNL     1       0.306  11.117  20.993  0.00  0.00    +0.000 S 
ATOM     14  C   UNL     1       1.092  11.634  19.541  0.00  0.00    +0.000 A 
ATOM     15  N   UNL     1       1.706  10.671  18.865  0.00  0.00    +0.000 NA
BRANCH  14  16
ATOM     16  C   UNL     1       1.053  13.065  19.182  0.00  0.00    +0.000 A 
ATOM     17  C   UNL     1       2.233  13.753  18.895  0.00  0.00    +0.000 A 
ATOM     18  C   UNL     1       2.158  15.101  18.583  0.00  0.00    +0.000 A 
ATOM     19  N   UNL     1       1.002  15.802  18.532  0.00  0.00    +0.000 NA
ATOM     20  C   UNL     1      -0.128  15.125  18.797  0.00  0.00    +0.000 A 
ATOM     21  C   UNL     1      -0.156  13.778  19.119  0.00  0.00    +0.000 A 
ENDBRANCH  14  16
ENDBRANCH   8  11
ENDBRANCH   3   7
BRANCH   5  22
ATOM     22  C   UNL     1       5.342   4.464  17.275  0.00  0.00    +0.000 C 
ATOM     23  O   UNL     1       6.503   4.625  17.635  0.00  0.00    +0.000 OA
ATOM     24  N   UNL     1       4.898   4.309  15.966  0.00  0.00    +0.000 N 
ATOM     25  H   UNL     1       3.905   4.384  15.793  0.00  0.00    +0.000 HD
BRANCH  24  26
ATOM     26  C   UNL     1       5.747   4.308  14.829  0.00  0.00    +0.000 A 
ATOM     27  C   UNL     1       6.788   5.227  14.668  0.00  0.00    +0.000 A 
ATOM     28  C   UNL     1       7.554   5.254  13.504  0.00  0.00    +0.000 A 
ATOM     29  C   UNL     1       7.296   4.348  12.481  0.00  0.00    +0.000 A 
ATOM     30  C   UNL     1       6.281   3.393  12.624  0.00  0.00    +0.000 A 
ATOM     31  C   UNL     1       5.521   3.366  13.815  0.00  0.00    +0.000 A 
BRANCH  30  32
ATOM     32  C   UNL     1       5.989   2.426  11.503  0.00  0.00    +0.000 C 
ATOM     33  F   UNL     1       4.919   2.784  10.737  0.00  0.00    +0.000 F 
ATOM     34  F   UNL     1       7.034   2.292  10.642  0.00  0.00    +0.000 F 
ATOM     35  F   UNL     1       5.713   1.171  11.956  0.00  0.00    +0.000 F 
ENDBRANCH  30  32
ENDBRANCH  24  26
ENDBRANCH   5  22
BRANCH   1  37
ATOM     36  C   UNL     1       1.402   2.791  21.703  0.00  0.00    +0.000 C 
ATOM     37  O   UNL     1       2.543   2.517  20.904  0.00  0.00    +0.000 OA
ENDBRANCH   1  37
TORSDOF 7
ENDMDL
