MODEL 1
REMARK VINA RESULT:      -7.5      0.000      0.000
REMARK  Name = 
REMARK  10 active torsions:
REMARK  status: ('A' for Active; 'I' for Inactive)
REMARK    1  A    between atoms: C_1  and  C_2
REMARK    2  A    between atoms: C_2  and  C_3
REMARK    3  A    between atoms: C_3  and  C_4
REMARK    4  A    between atoms: C_4  and  N_5
REMARK    5  A    between atoms: N_8  and  C_9
REMARK    6  A    between atoms: C_12  and  S_13
REMARK    7  A    between atoms: S_13  and  O_16
REMARK    8  A    between atoms: O_16  and  C_17
REMARK    9  A    between atoms: C_20  and  O_21
REMARK   10  A    between atoms: O_21  and  C_22
REMARK                            x       y       z     vdW  Elec       q    Type
REMARK                         _______ _______ _______ _____ _____    ______ ____
ROOT
ATOM      1  C   UNL     1       2.522   7.090  18.708  0.00  0.00    +0.000 A 
ATOM      2  C   UNL     1       2.112   7.128  20.047  0.00  0.00    +0.000 A 
ATOM      3  C   UNL     1       1.396   8.214  20.550  0.00  0.00    +0.000 A 
ATOM      4  C   UNL     1       1.057   9.266  19.701  0.00  0.00    +0.000 A 
ATOM      5  C   UNL     1       1.420   9.235  18.353  0.00  0.00    +0.000 A 
ATOM      6  C   UNL     1       2.158   8.149  17.864  0.00  0.00    +0.000 A 
ENDROOT
BRANCH   1  10
ATOM      7  N   UNL     1       4.915   4.884  17.106  0.00  0.00    +0.000 N 
ATOM      8  C   UNL     1       3.888   3.928  17.438  0.00  0.00    +0.000 C 
ATOM      9  C   UNL     1       3.103   4.641  18.531  0.00  0.00    +0.000 C 
ATOM     10  N   UNL     1       3.347   6.040  18.252  0.00  0.00    +0.000 N 
ATOM     11  C   UNL     1       4.507   6.175  17.458  0.00  0.00    +0.000 C 
ATOM     12  O   UNL     1       5.087   7.202  17.130  0.00  0.00    +0.000 OA
BRANCH   7  13
ATOM     13  C   UNL     1       6.028   4.600  16.221  0.00  0.00    +0.000 C 
BRANCH  13  14
ATOM     14  C   UNL     1       5.595   4.060  14.859  0.00  0.00    +0.000 C 
BRANCH  14  16
ATOM     15  C   UNL     1       6.373   3.609  12.501  0.00  0.00    +0.000 C 
ATOM     16  C   UNL     1       6.669   4.331  13.805  0.00  0.00    +0.000 C 
ENDBRANCH  14  16
ENDBRANCH  13  14
ENDBRANCH   7  13
ENDBRANCH   1  10
BRANCH   4  17
ATOM     17  S   UNL     1       0.383  10.751  20.420  0.00  0.00    +0.000 S 
ATOM     18  O   UNL     1      -0.653  10.295  21.329  0.00  0.00    +0.000 OA
ATOM     19  O   UNL     1       1.507  11.528  20.913  0.00  0.00    +0.000 OA
BRANCH  17  20
ATOM     20  O   UNL     1      -0.297  11.550  19.163  0.00  0.00    +0.000 OA
BRANCH  20  21
ATOM     21  C   UNL     1      -1.594  11.285  18.787  0.00  0.00    +0.000 A 
ATOM     22  C   UNL     1      -2.578  12.155  19.255  0.00  0.00    +0.000 A 
ATOM     23  C   UNL     1      -3.920  11.963  18.893  0.00  0.00    +0.000 A 
ATOM     24  C   UNL     1      -4.279  10.923  18.036  0.00  0.00    +0.000 A 
ATOM     25  C   UNL     1      -3.297  10.048  17.578  0.00  0.00    +0.000 A 
ATOM     26  C   UNL     1      -1.962  10.234  17.947  0.00  0.00    +0.000 A 
BRANCH  24  27
ATOM     27  O   UNL     1      -5.608  10.826  17.726  0.00  0.00    +0.000 OA
ATOM     28  C   UNL     1      -6.371  12.009  17.961  0.00  0.00    +0.000 C 
ENDBRANCH  24  27
ENDBRANCH  20  21
ENDBRANCH  17  20
ENDBRANCH   4  17
TORSDOF 8
ENDMDL
MODEL 2
REMARK VINA RESULT:      -7.5      0.761      1.196
REMARK  Name = 
REMARK  10 active torsions:
REMARK  status: ('A' for Active; 'I' for Inactive)
REMARK    1  A    between atoms: C_1  and  C_2
REMARK    2  A    between atoms: C_2  and  C_3
REMARK    3  A    between atoms: C_3  and  C_4
REMARK    4  A    between atoms: C_4  and  N_5
REMARK    5  A    between atoms: N_8  and  C_9
REMARK    6  A    between atoms: C_12  and  S_13
REMARK    7  A    between atoms: S_13  and  O_16
REMARK    8  A    between atoms: O_16  and  C_17
REMARK    9  A    between atoms: C_20  and  O_21
REMARK   10  A    between atoms: O_21  and  C_22
REMARK                            x       y       z     vdW  Elec       q    Type
REMARK                         _______ _______ _______ _____ _____    ______ ____
ROOT
ATOM      1  C   UNL     1       2.418   6.953  18.834  0.00  0.00    +0.000 A 
ATOM      2  C   UNL     1       2.217   8.071  18.013  0.00  0.00    +0.000 A 
ATOM      3  C   UNL     1       1.643   9.238  18.515  0.00  0.00    +0.000 A 
ATOM      4  C   UNL     1       1.288   9.305  19.861  0.00  0.00    +0.000 A 
ATOM      5  C   UNL     1       1.513   8.219  20.710  0.00  0.00    +0.000 A 
ATOM      6  C   UNL     1       2.070   7.044  20.189  0.00  0.00    +0.000 A 
ENDROOT
BRANCH   1  10
ATOM      7  N   UNL     1       4.174   4.241  17.183  0.00  0.00    +0.000 N 
ATOM      8  C   UNL     1       2.817   3.775  17.039  0.00  0.00    +0.000 C 
ATOM      9  C   UNL     1       2.075   4.559  18.114  0.00  0.00    +0.000 C 
ATOM     10  N   UNL     1       2.889   5.744  18.277  0.00  0.00    +0.000 N 
ATOM     11  C   UNL     1       4.191   5.503  17.787  0.00  0.00    +0.000 C 
ATOM     12  O   UNL     1       5.178   6.223  17.867  0.00  0.00    +0.000 OA
BRANCH   7  13
ATOM     13  C   UNL     1       5.305   3.664  16.484  0.00  0.00    +0.000 C 
BRANCH  13  14
ATOM     14  C   UNL     1       5.525   4.257  15.094  0.00  0.00    +0.000 C 
BRANCH  14  16
ATOM     15  C   UNL     1       7.302   4.993  13.460  0.00  0.00    +0.000 C 
ATOM     16  C   UNL     1       6.983   4.681  14.912  0.00  0.00    +0.000 C 
ENDBRANCH  14  16
ENDBRANCH  13  14
ENDBRANCH   7  13
ENDBRANCH   1  10
BRANCH   4  17
ATOM     17  S   UNL     1       0.320  10.695  20.414  0.00  0.00    +0.000 S 
ATOM     18  O   UNL     1      -0.754  10.119  21.203  0.00  0.00    +0.000 OA
ATOM     19  O   UNL     1       1.245  11.644  21.009  0.00  0.00    +0.000 OA
BRANCH  17  20
ATOM     20  O   UNL     1      -0.292  11.347  19.043  0.00  0.00    +0.000 OA
BRANCH  20  21
ATOM     21  C   UNL     1      -1.615  11.161  18.710  0.00  0.00    +0.000 A 
ATOM     22  C   UNL     1      -2.523  12.115  19.165  0.00  0.00    +0.000 A 
ATOM     23  C   UNL     1      -3.884  12.004  18.845  0.00  0.00    +0.000 A 
ATOM     24  C   UNL     1      -4.338  10.959  18.040  0.00  0.00    +0.000 A 
ATOM     25  C   UNL     1      -3.432  10.000  17.596  0.00  0.00    +0.000 A 
ATOM     26  C   UNL     1      -2.078  10.106  17.924  0.00  0.00    +0.000 A 
BRANCH  24  27
ATOM     27  O   UNL     1      -5.679  10.944  17.767  0.00  0.00    +0.000 OA
ATOM     28  C   UNL     1      -6.496  10.373  18.788  0.00  0.00    +0.000 C 
ENDBRANCH  24  27
ENDBRANCH  20  21
ENDBRANCH  17  20
ENDBRANCH   4  17
TORSDOF 8
ENDMDL
MODEL 3
REMARK VINA RESULT:      -7.4      0.623      1.100
REMARK  Name = 
REMARK  10 active torsions:
REMARK  status: ('A' for Active; 'I' for Inactive)
REMARK    1  A    between atoms: C_1  and  C_2
REMARK    2  A    between atoms: C_2  and  C_3
REMARK    3  A    between atoms: C_3  and  C_4
REMARK    4  A    between atoms: C_4  and  N_5
REMARK    5  A    between atoms: N_8  and  C_9
REMARK    6  A    between atoms: C_12  and  S_13
REMARK    7  A    between atoms: S_13  and  O_16
REMARK    8  A    between atoms: O_16  and  C_17
REMARK    9  A    between atoms: C_20  and  O_21
REMARK   10  A    between atoms: O_21  and  C_22
REMARK                            x       y       z     vdW  Elec       q    Type
REMARK                         _______ _______ _______ _____ _____    ______ ____
ROOT
ATOM      1  C   UNL     1       2.928   6.909  18.515  0.00  0.00    +0.000 A 
ATOM      2  C   UNL     1       2.398   6.746  19.802  0.00  0.00    +0.000 A 
ATOM      3  C   UNL     1       1.597   7.729  20.379  0.00  0.00    +0.000 A 
ATOM      4  C   UNL     1       1.292   8.881  19.656  0.00  0.00    +0.000 A 
ATOM      5  C   UNL     1       1.775   9.050  18.356  0.00  0.00    +0.000 A 
ATOM      6  C   UNL     1       2.598   8.066  17.795  0.00  0.00    +0.000 A 
ENDROOT
BRANCH   1  10
ATOM      7  N   UNL     1       5.538   5.017  16.850  0.00  0.00    +0.000 N 
ATOM      8  C   UNL     1       4.532   3.991  16.969  0.00  0.00    +0.000 C 
ATOM      9  C   UNL     1       3.633   4.526  18.075  0.00  0.00    +0.000 C 
ATOM     10  N   UNL     1       3.833   5.957  17.999  0.00  0.00    +0.000 N 
ATOM     11  C   UNL     1       5.045   6.236  17.329  0.00  0.00    +0.000 C 
ATOM     12  O   UNL     1       5.601   7.316  17.185  0.00  0.00    +0.000 OA
BRANCH   7  13
ATOM     13  C   UNL     1       6.728   4.891  16.032  0.00  0.00    +0.000 C 
BRANCH  13  14
ATOM     14  C   UNL     1       6.441   4.953  14.532  0.00  0.00    +0.000 C 
BRANCH  14  16
ATOM     15  C   UNL     1       5.848   3.578  12.501  0.00  0.00    +0.000 C 
ATOM     16  C   UNL     1       6.296   3.546  13.952  0.00  0.00    +0.000 C 
ENDBRANCH  14  16
ENDBRANCH  13  14
ENDBRANCH   7  13
ENDBRANCH   1  10
BRANCH   4  17
ATOM     17  S   UNL     1       0.496  10.230  20.505  0.00  0.00    +0.000 S 
ATOM     18  O   UNL     1      -0.653   9.636  21.164  0.00  0.00    +0.000 OA
ATOM     19  O   UNL     1       1.523  10.905  21.279  0.00  0.00    +0.000 OA
BRANCH  17  20
ATOM     20  O   UNL     1      -0.009  11.232  19.313  0.00  0.00    +0.000 OA
BRANCH  20  21
ATOM     21  C   UNL     1      -1.323  11.228  18.906  0.00  0.00    +0.000 A 
ATOM     22  C   UNL     1      -1.679  10.302  17.927  0.00  0.00    +0.000 A 
ATOM     23  C   UNL     1      -3.006  10.222  17.479  0.00  0.00    +0.000 A 
ATOM     24  C   UNL     1      -3.990  11.043  18.032  0.00  0.00    +0.000 A 
ATOM     25  C   UNL     1      -3.631  11.976  19.002  0.00  0.00    +0.000 A 
ATOM     26  C   UNL     1      -2.306  12.061  19.440  0.00  0.00    +0.000 A 
BRANCH  24  27
ATOM     27  O   UNL     1      -5.258  10.881  17.545  0.00  0.00    +0.000 OA
ATOM     28  C   UNL     1      -6.293  10.938  18.525  0.00  0.00    +0.000 C 
ENDBRANCH  24  27
ENDBRANCH  20  21
ENDBRANCH  17  20
ENDBRANCH   4  17
TORSDOF 8
ENDMDL
MODEL 4
REMARK VINA RESULT:      -7.4      1.224      1.791
REMARK  Name = 
REMARK  10 active torsions:
REMARK  status: ('A' for Active; 'I' for Inactive)
REMARK    1  A    between atoms: C_1  and  C_2
REMARK    2  A    between atoms: C_2  and  C_3
REMARK    3  A    between atoms: C_3  and  C_4
REMARK    4  A    between atoms: C_4  and  N_5
REMARK    5  A    between atoms: N_8  and  C_9
REMARK    6  A    between atoms: C_12  and  S_13
REMARK    7  A    between atoms: S_13  and  O_16
REMARK    8  A    between atoms: O_16  and  C_17
REMARK    9  A    between atoms: C_20  and  O_21
REMARK   10  A    between atoms: O_21  and  C_22
REMARK                            x       y       z     vdW  Elec       q    Type
REMARK                         _______ _______ _______ _____ _____    ______ ____
ROOT
ATOM      1  C   UNL     1       2.565   7.154  18.664  0.00  0.00    +0.000 A 
ATOM      2  C   UNL     1       2.544   8.271  17.819  0.00  0.00    +0.000 A 
ATOM      3  C   UNL     1       1.981   9.477  18.233  0.00  0.00    +0.000 A 
ATOM      4  C   UNL     1       1.454   9.583  19.519  0.00  0.00    +0.000 A 
ATOM      5  C   UNL     1       1.497   8.497  20.396  0.00  0.00    +0.000 A 
ATOM      6  C   UNL     1       2.045   7.283  19.960  0.00  0.00    +0.000 A 
ENDROOT
BRANCH   1  10
ATOM      7  N   UNL     1       4.307   4.341  17.176  0.00  0.00    +0.000 N 
ATOM      8  C   UNL     1       2.948   3.869  17.070  0.00  0.00    +0.000 C 
ATOM      9  C   UNL     1       2.214   4.720  18.098  0.00  0.00    +0.000 C 
ATOM     10  N   UNL     1       3.030   5.912  18.182  0.00  0.00    +0.000 N 
ATOM     11  C   UNL     1       4.329   5.638  17.700  0.00  0.00    +0.000 C 
ATOM     12  O   UNL     1       5.317   6.360  17.729  0.00  0.00    +0.000 OA
BRANCH   7  13
ATOM     13  C   UNL     1       5.433   3.719  16.508  0.00  0.00    +0.000 C 
BRANCH  13  14
ATOM     14  C   UNL     1       6.027   4.579  15.394  0.00  0.00    +0.000 C 
BRANCH  14  16
ATOM     15  C   UNL     1       6.170   3.580  13.082  0.00  0.00    +0.000 C 
ATOM     16  C   UNL     1       5.298   4.331  14.073  0.00  0.00    +0.000 C 
ENDBRANCH  14  16
ENDBRANCH  13  14
ENDBRANCH   7  13
ENDBRANCH   1  10
BRANCH   4  17
ATOM     17  S   UNL     1       0.508  11.036  19.930  0.00  0.00    +0.000 S 
ATOM     18  O   UNL     1       0.886  11.361  21.294  0.00  0.00    +0.000 OA
ATOM     19  O   UNL     1       0.720  11.994  18.858  0.00  0.00    +0.000 OA
BRANCH  17  20
ATOM     20  O   UNL     1      -1.052  10.542  19.892  0.00  0.00    +0.000 OA
BRANCH  20  21
ATOM     21  C   UNL     1      -1.759  10.549  18.712  0.00  0.00    +0.000 A 
ATOM     22  C   UNL     1      -2.782  11.488  18.592  0.00  0.00    +0.000 A 
ATOM     23  C   UNL     1      -3.529  11.571  17.408  0.00  0.00    +0.000 A 
ATOM     24  C   UNL     1      -3.237  10.740  16.327  0.00  0.00    +0.000 A 
ATOM     25  C   UNL     1      -2.223   9.793  16.452  0.00  0.00    +0.000 A 
ATOM     26  C   UNL     1      -1.484   9.705  17.635  0.00  0.00    +0.000 A 
BRANCH  24  27
ATOM     27  O   UNL     1      -4.009  10.905  15.210  0.00  0.00    +0.000 OA
ATOM     28  C   UNL     1      -3.611  10.128  14.081  0.00  0.00    +0.000 C 
ENDBRANCH  24  27
ENDBRANCH  20  21
ENDBRANCH  17  20
ENDBRANCH   4  17
TORSDOF 8
ENDMDL
MODEL 5
REMARK VINA RESULT:      -7.4      3.093      9.125
REMARK  Name = 
REMARK  10 active torsions:
REMARK  status: ('A' for Active; 'I' for Inactive)
REMARK    1  A    between atoms: C_1  and  C_2
REMARK    2  A    between atoms: C_2  and  C_3
REMARK    3  A    between atoms: C_3  and  C_4
REMARK    4  A    between atoms: C_4  and  N_5
REMARK    5  A    between atoms: N_8  and  C_9
REMARK    6  A    between atoms: C_12  and  S_13
REMARK    7  A    between atoms: S_13  and  O_16
REMARK    8  A    between atoms: O_16  and  C_17
REMARK    9  A    between atoms: C_20  and  O_21
REMARK   10  A    between atoms: O_21  and  C_22
REMARK                            x       y       z     vdW  Elec       q    Type
REMARK                         _______ _______ _______ _____ _____    ______ ____
ROOT
ATOM      1  C   UNL     1       1.739   7.496  19.752  0.00  0.00    +0.000 A 
ATOM      2  C   UNL     1       1.683   6.413  20.639  0.00  0.00    +0.000 A 
ATOM      3  C   UNL     1       2.082   5.138  20.243  0.00  0.00    +0.000 A 
ATOM      4  C   UNL     1       2.571   4.940  18.953  0.00  0.00    +0.000 A 
ATOM      5  C   UNL     1       2.674   6.010  18.062  0.00  0.00    +0.000 A 
ATOM      6  C   UNL     1       2.249   7.283  18.464  0.00  0.00    +0.000 A 
ENDROOT
BRANCH   1  10
ATOM      7  N   UNL     1       0.483  10.886  20.055  0.00  0.00    +0.000 N 
ATOM      8  C   UNL     1       1.016  10.705  21.383  0.00  0.00    +0.000 C 
ATOM      9  C   UNL     1       1.098   9.189  21.510  0.00  0.00    +0.000 C 
ATOM     10  N   UNL     1       1.218   8.750  20.136  0.00  0.00    +0.000 N 
ATOM     11  C   UNL     1       0.754   9.762  19.267  0.00  0.00    +0.000 C 
ATOM     12  O   UNL     1       0.589   9.706  18.056  0.00  0.00    +0.000 OA
BRANCH   7  13
ATOM     13  C   UNL     1       0.064  12.167  19.521  0.00  0.00    +0.000 C 
BRANCH  13  14
ATOM     14  C   UNL     1      -1.453  12.303  19.396  0.00  0.00    +0.000 C 
BRANCH  14  16
ATOM     15  C   UNL     1      -2.933  10.828  17.982  0.00  0.00    +0.000 C 
ATOM     16  C   UNL     1      -1.912  11.952  17.980  0.00  0.00    +0.000 C 
ENDBRANCH  14  16
ENDBRANCH  13  14
ENDBRANCH   7  13
ENDBRANCH   1  10
BRANCH   4  17
ATOM     17  S   UNL     1       2.820   3.268  18.388  0.00  0.00    +0.000 S 
ATOM     18  O   UNL     1       2.165   2.433  19.378  0.00  0.00    +0.000 OA
ATOM     19  O   UNL     1       2.403   3.227  16.997  0.00  0.00    +0.000 OA
BRANCH  17  20
ATOM     20  O   UNL     1       4.440   3.042  18.459  0.00  0.00    +0.000 OA
BRANCH  20  21
ATOM     21  C   UNL     1       5.303   4.059  18.121  0.00  0.00    +0.000 A 
ATOM     22  C   UNL     1       5.503   4.294  16.762  0.00  0.00    +0.000 A 
ATOM     23  C   UNL     1       6.349   5.330  16.341  0.00  0.00    +0.000 A 
ATOM     24  C   UNL     1       6.974   6.157  17.276  0.00  0.00    +0.000 A 
ATOM     25  C   UNL     1       6.783   5.914  18.634  0.00  0.00    +0.000 A 
ATOM     26  C   UNL     1       5.946   4.875  19.051  0.00  0.00    +0.000 A 
BRANCH  24  27
ATOM     27  O   UNL     1       7.767   7.150  16.771  0.00  0.00    +0.000 OA
ATOM     28  C   UNL     1       7.921   8.288  17.617  0.00  0.00    +0.000 C 
ENDBRANCH  24  27
ENDBRANCH  20  21
ENDBRANCH  17  20
ENDBRANCH   4  17
TORSDOF 8
ENDMDL
MODEL 6
REMARK VINA RESULT:      -7.4      1.284      2.114
REMARK  Name = 
REMARK  10 active torsions:
REMARK  status: ('A' for Active; 'I' for Inactive)
REMARK    1  A    between atoms: C_1  and  C_2
REMARK    2  A    between atoms: C_2  and  C_3
REMARK    3  A    between atoms: C_3  and  C_4
REMARK    4  A    between atoms: C_4  and  N_5
REMARK    5  A    between atoms: N_8  and  C_9
REMARK    6  A    between atoms: C_12  and  S_13
REMARK    7  A    between atoms: S_13  and  O_16
REMARK    8  A    between atoms: O_16  and  C_17
REMARK    9  A    between atoms: C_20  and  O_21
REMARK   10  A    between atoms: O_21  and  C_22
REMARK                            x       y       z     vdW  Elec       q    Type
REMARK                         _______ _______ _______ _____ _____    ______ ____
ROOT
ATOM      1  C   UNL     1       2.532   7.362  18.602  0.00  0.00    +0.000 A 
ATOM      2  C   UNL     1       2.397   8.417  17.690  0.00  0.00    +0.000 A 
ATOM      3  C   UNL     1       1.743   9.596  18.045  0.00  0.00    +0.000 A 
ATOM      4  C   UNL     1       1.240   9.741  19.337  0.00  0.00    +0.000 A 
ATOM      5  C   UNL     1       1.395   8.721  20.277  0.00  0.00    +0.000 A 
ATOM      6  C   UNL     1       2.034   7.531  19.902  0.00  0.00    +0.000 A 
ENDROOT
BRANCH   1  10
ATOM      7  N   UNL     1       4.425   4.616  17.175  0.00  0.00    +0.000 N 
ATOM      8  C   UNL     1       3.134   3.984  17.297  0.00  0.00    +0.000 C 
ATOM      9  C   UNL     1       2.427   4.857  18.327  0.00  0.00    +0.000 C 
ATOM     10  N   UNL     1       3.089   6.135  18.185  0.00  0.00    +0.000 N 
ATOM     11  C   UNL     1       4.345   5.958  17.563  0.00  0.00    +0.000 C 
ATOM     12  O   UNL     1       5.230   6.786  17.391  0.00  0.00    +0.000 OA
BRANCH   7  13
ATOM     13  C   UNL     1       5.531   4.054  16.427  0.00  0.00    +0.000 C 
BRANCH  13  14
ATOM     14  C   UNL     1       5.222   3.860  14.944  0.00  0.00    +0.000 C 
BRANCH  14  16
ATOM     15  C   UNL     1       7.411   5.113  14.858  0.00  0.00    +0.000 C 
ATOM     16  C   UNL     1       6.424   4.256  14.085  0.00  0.00    +0.000 C 
ENDBRANCH  14  16
ENDBRANCH  13  14
ENDBRANCH   7  13
ENDBRANCH   1  10
BRANCH   4  17
ATOM     17  S   UNL     1       0.183  11.134  19.683  0.00  0.00    +0.000 S 
ATOM     18  O   UNL     1       0.485  11.505  21.054  0.00  0.00    +0.000 OA
ATOM     19  O   UNL     1       0.374  12.086  18.603  0.00  0.00    +0.000 OA
BRANCH  17  20
ATOM     20  O   UNL     1      -1.337  10.535  19.595  0.00  0.00    +0.000 OA
BRANCH  20  21
ATOM     21  C   UNL     1      -2.066  10.648  18.433  0.00  0.00    +0.000 A 
ATOM     22  C   UNL     1      -1.695   9.825  17.371  0.00  0.00    +0.000 A 
ATOM     23  C   UNL     1      -2.407   9.866  16.163  0.00  0.00    +0.000 A 
ATOM     24  C   UNL     1      -3.513  10.704  16.022  0.00  0.00    +0.000 A 
ATOM     25  C   UNL     1      -3.876  11.535  17.079  0.00  0.00    +0.000 A 
ATOM     26  C   UNL     1      -3.160  11.500  18.279  0.00  0.00    +0.000 A 
BRANCH  24  27
ATOM     27  O   UNL     1      -4.154  10.663  14.814  0.00  0.00    +0.000 OA
ATOM     28  C   UNL     1      -3.444   9.986  13.778  0.00  0.00    +0.000 C 
ENDBRANCH  24  27
ENDBRANCH  20  21
ENDBRANCH  17  20
ENDBRANCH   4  17
TORSDOF 8
ENDMDL
MODEL 7
REMARK VINA RESULT:      -7.3      3.490      9.525
REMARK  Name = 
REMARK  10 active torsions:
REMARK  status: ('A' for Active; 'I' for Inactive)
REMARK    1  A    between atoms: C_1  and  C_2
REMARK    2  A    between atoms: C_2  and  C_3
REMARK    3  A    between atoms: C_3  and  C_4
REMARK    4  A    between atoms: C_4  and  N_5
REMARK    5  A    between atoms: N_8  and  C_9
REMARK    6  A    between atoms: C_12  and  S_13
REMARK    7  A    between atoms: S_13  and  O_16
REMARK    8  A    between atoms: O_16  and  C_17
REMARK    9  A    between atoms: C_20  and  O_21
REMARK   10  A    between atoms: O_21  and  C_22
REMARK                            x       y       z     vdW  Elec       q    Type
REMARK                         _______ _______ _______ _____ _____    ______ ____
ROOT
ATOM      1  C   UNL     1       1.709   7.913  19.353  0.00  0.00    +0.000 A 
ATOM      2  C   UNL     1       1.784   7.010  20.422  0.00  0.00    +0.000 A 
ATOM      3  C   UNL     1       2.150   5.681  20.217  0.00  0.00    +0.000 A 
ATOM      4  C   UNL     1       2.473   5.247  18.932  0.00  0.00    +0.000 A 
ATOM      5  C   UNL     1       2.444   6.136  17.855  0.00  0.00    +0.000 A 
ATOM      6  C   UNL     1       2.053   7.464  18.070  0.00  0.00    +0.000 A 
ENDROOT
BRANCH   1  10
ATOM      7  N   UNL     1      -0.058  10.947  20.265  0.00  0.00    +0.000 N 
ATOM      8  C   UNL     1       0.528  11.372  19.018  0.00  0.00    +0.000 C 
ATOM      9  C   UNL     1       1.666  10.379  18.823  0.00  0.00    +0.000 C 
ATOM     10  N   UNL     1       1.221   9.220  19.566  0.00  0.00    +0.000 N 
ATOM     11  C   UNL     1       0.236   9.600  20.504  0.00  0.00    +0.000 C 
ATOM     12  O   UNL     1      -0.277   8.921  21.383  0.00  0.00    +0.000 OA
BRANCH   7  13
ATOM     13  C   UNL     1      -1.085  11.688  20.970  0.00  0.00    +0.000 C 
BRANCH  13  14
ATOM     14  C   UNL     1      -0.604  12.283  22.292  0.00  0.00    +0.000 C 
BRANCH  14  16
ATOM     15  C   UNL     1      -2.904  12.137  23.321  0.00  0.00    +0.000 C 
ATOM     16  C   UNL     1      -1.735  13.046  22.984  0.00  0.00    +0.000 C 
ENDBRANCH  14  16
ENDBRANCH  13  14
ENDBRANCH   7  13
ENDBRANCH   1  10
BRANCH   4  17
ATOM     17  S   UNL     1       2.675   3.499  18.653  0.00  0.00    +0.000 S 
ATOM     18  O   UNL     1       2.116   2.861  19.832  0.00  0.00    +0.000 OA
ATOM     19  O   UNL     1       2.132   3.217  17.335  0.00  0.00    +0.000 OA
BRANCH  17  20
ATOM     20  O   UNL     1       4.294   3.267  18.615  0.00  0.00    +0.000 OA
BRANCH  20  21
ATOM     21  C   UNL     1       5.124   4.223  18.077  0.00  0.00    +0.000 A 
ATOM     22  C   UNL     1       5.873   4.988  18.971  0.00  0.00    +0.000 A 
ATOM     23  C   UNL     1       6.759   5.965  18.495  0.00  0.00    +0.000 A 
ATOM     24  C   UNL     1       6.927   6.159  17.123  0.00  0.00    +0.000 A 
ATOM     25  C   UNL     1       6.171   5.404  16.231  0.00  0.00    +0.000 A 
ATOM     26  C   UNL     1       5.281   4.437  16.707  0.00  0.00    +0.000 A 
BRANCH  24  27
ATOM     27  O   UNL     1       7.826   7.123  16.754  0.00  0.00    +0.000 OA
ATOM     28  C   UNL     1       7.859   8.272  17.599  0.00  0.00    +0.000 C 
ENDBRANCH  24  27
ENDBRANCH  20  21
ENDBRANCH  17  20
ENDBRANCH   4  17
TORSDOF 8
ENDMDL
MODEL 8
REMARK VINA RESULT:      -7.2      3.572      9.132
REMARK  Name = 
REMARK  10 active torsions:
REMARK  status: ('A' for Active; 'I' for Inactive)
REMARK    1  A    between atoms: C_1  and  C_2
REMARK    2  A    between atoms: C_2  and  C_3
REMARK    3  A    between atoms: C_3  and  C_4
REMARK    4  A    between atoms: C_4  and  N_5
REMARK    5  A    between atoms: N_8  and  C_9
REMARK    6  A    between atoms: C_12  and  S_13
REMARK    7  A    between atoms: S_13  and  O_16
REMARK    8  A    between atoms: O_16  and  C_17
REMARK    9  A    between atoms: C_20  and  O_21
REMARK   10  A    between atoms: O_21  and  C_22
REMARK                            x       y       z     vdW  Elec       q    Type
REMARK                         _______ _______ _______ _____ _____    ______ ____
ROOT
ATOM      1  C   UNL     1       1.693   7.649  19.687  0.00  0.00    +0.000 A 
ATOM      2  C   UNL     1       1.693   6.636  20.655  0.00  0.00    +0.000 A 
ATOM      3  C   UNL     1       2.072   5.334  20.334  0.00  0.00    +0.000 A 
ATOM      4  C   UNL     1       2.485   5.038  19.036  0.00  0.00    +0.000 A 
ATOM      5  C   UNL     1       2.531   6.037  18.061  0.00  0.00    +0.000 A 
ATOM      6  C   UNL     1       2.127   7.338  18.390  0.00  0.00    +0.000 A 
ENDROOT
BRANCH   1  10
ATOM      7  N   UNL     1       0.488  11.069  19.812  0.00  0.00    +0.000 N 
ATOM      8  C   UNL     1       1.024  10.951  21.146  0.00  0.00    +0.000 C 
ATOM      9  C   UNL     1       1.084   9.443  21.353  0.00  0.00    +0.000 C 
ATOM     10  N   UNL     1       1.192   8.929  20.005  0.00  0.00    +0.000 N 
ATOM     11  C   UNL     1       0.739   9.900  19.084  0.00  0.00    +0.000 C 
ATOM     12  O   UNL     1       0.568   9.781  17.878  0.00  0.00    +0.000 OA
BRANCH   7  13
ATOM     13  C   UNL     1       0.085  12.325  19.211  0.00  0.00    +0.000 C 
BRANCH  13  14
ATOM     14  C   UNL     1       1.254  13.128  18.645  0.00  0.00    +0.000 C 
BRANCH  14  16
ATOM     15  C   UNL     1      -0.227  15.151  18.932  0.00  0.00    +0.000 C 
ATOM     16  C   UNL     1       1.174  14.588  19.093  0.00  0.00    +0.000 C 
ENDBRANCH  14  16
ENDBRANCH  13  14
ENDBRANCH   7  13
ENDBRANCH   1  10
BRANCH   4  17
ATOM     17  S   UNL     1       2.705   3.328  18.585  0.00  0.00    +0.000 S 
ATOM     18  O   UNL     1       2.169   2.571  19.702  0.00  0.00    +0.000 OA
ATOM     19  O   UNL     1       2.150   3.169  17.252  0.00  0.00    +0.000 OA
BRANCH  17  20
ATOM     20  O   UNL     1       4.327   3.124  18.507  0.00  0.00    +0.000 OA
BRANCH  20  21
ATOM     21  C   UNL     1       5.131   4.110  17.983  0.00  0.00    +0.000 A 
ATOM     22  C   UNL     1       5.850   4.888  18.889  0.00  0.00    +0.000 A 
ATOM     23  C   UNL     1       6.709   5.897  18.429  0.00  0.00    +0.000 A 
ATOM     24  C   UNL     1       6.880   6.109  17.061  0.00  0.00    +0.000 A 
ATOM     25  C   UNL     1       6.153   5.339  16.156  0.00  0.00    +0.000 A 
ATOM     26  C   UNL     1       5.290   4.341  16.617  0.00  0.00    +0.000 A 
BRANCH  24  27
ATOM     27  O   UNL     1       7.751   7.103  16.707  0.00  0.00    +0.000 OA
ATOM     28  C   UNL     1       7.859   8.173  17.644  0.00  0.00    +0.000 C 
ENDBRANCH  24  27
ENDBRANCH  20  21
ENDBRANCH  17  20
ENDBRANCH   4  17
TORSDOF 8
ENDMDL
MODEL 9
REMARK VINA RESULT:      -7.2      1.827      2.948
REMARK  Name = 
REMARK  10 active torsions:
REMARK  status: ('A' for Active; 'I' for Inactive)
REMARK    1  A    between atoms: C_1  and  C_2
REMARK    2  A    between atoms: C_2  and  C_3
REMARK    3  A    between atoms: C_3  and  C_4
REMARK    4  A    between atoms: C_4  and  N_5
REMARK    5  A    between atoms: N_8  and  C_9
REMARK    6  A    between atoms: C_12  and  S_13
REMARK    7  A    between atoms: S_13  and  O_16
REMARK    8  A    between atoms: O_16  and  C_17
REMARK    9  A    between atoms: C_20  and  O_21
REMARK   10  A    between atoms: O_21  and  C_22
REMARK                            x       y       z     vdW  Elec       q    Type
REMARK                         _______ _______ _______ _____ _____    ______ ____
ROOT
ATOM      1  C   UNL     1       2.471   7.363  18.747  0.00  0.00    +0.000 A 
ATOM      2  C   UNL     1       2.231   8.504  17.969  0.00  0.00    +0.000 A 
ATOM      3  C   UNL     1       1.581   9.615  18.504  0.00  0.00    +0.000 A 
ATOM      4  C   UNL     1       1.189   9.606  19.841  0.00  0.00    +0.000 A 
ATOM      5  C   UNL     1       1.451   8.497  20.649  0.00  0.00    +0.000 A 
ATOM      6  C   UNL     1       2.084   7.376  20.095  0.00  0.00    +0.000 A 
ENDROOT
BRANCH   1  10
ATOM      7  N   UNL     1       3.297   4.073  17.462  0.00  0.00    +0.000 N 
ATOM      8  C   UNL     1       4.626   4.593  17.671  0.00  0.00    +0.000 C 
ATOM      9  C   UNL     1       4.396   6.098  17.718  0.00  0.00    +0.000 C 
ATOM     10  N   UNL     1       3.020   6.207  18.154  0.00  0.00    +0.000 N 
ATOM     11  C   UNL     1       2.341   4.993  17.906  0.00  0.00    +0.000 C 
ATOM     12  O   UNL     1       1.148   4.753  18.028  0.00  0.00    +0.000 OA
BRANCH   7  13
ATOM     13  C   UNL     1       3.009   2.680  17.181  0.00  0.00    +0.000 C 
BRANCH  13  14
ATOM     14  C   UNL     1       3.191   1.768  18.392  0.00  0.00    +0.000 C 
BRANCH  14  16
ATOM     15  C   UNL     1       2.195   2.504  20.591  0.00  0.00    +0.000 C 
ATOM     16  C   UNL     1       1.943   1.787  19.275  0.00  0.00    +0.000 C 
ENDBRANCH  14  16
ENDBRANCH  13  14
ENDBRANCH   7  13
ENDBRANCH   1  10
BRANCH   4  17
ATOM     17  S   UNL     1       0.133  10.917  20.424  0.00  0.00    +0.000 S 
ATOM     18  O   UNL     1      -0.911  10.252  21.184  0.00  0.00    +0.000 OA
ATOM     19  O   UNL     1       0.994  11.901  21.059  0.00  0.00    +0.000 OA
BRANCH  17  20
ATOM     20  O   UNL     1      -0.505  11.573  19.067  0.00  0.00    +0.000 OA
BRANCH  20  21
ATOM     21  C   UNL     1      -1.819  11.341  18.730  0.00  0.00    +0.000 A 
ATOM     22  C   UNL     1      -2.780  12.148  19.337  0.00  0.00    +0.000 A 
ATOM     23  C   UNL     1      -4.137  11.987  19.024  0.00  0.00    +0.000 A 
ATOM     24  C   UNL     1      -4.538  11.043  18.079  0.00  0.00    +0.000 A 
ATOM     25  C   UNL     1      -3.579  10.229  17.481  0.00  0.00    +0.000 A 
ATOM     26  C   UNL     1      -2.227  10.384  17.801  0.00  0.00    +0.000 A 
BRANCH  24  27
ATOM     27  O   UNL     1      -5.881  10.971  17.827  0.00  0.00    +0.000 OA
ATOM     28  C   UNL     1      -6.493  12.206  17.458  0.00  0.00    +0.000 C 
ENDBRANCH  24  27
ENDBRANCH  20  21
ENDBRANCH  17  20
ENDBRANCH   4  17
TORSDOF 8
ENDMDL
