MODEL 1
REMARK VINA RESULT:      -8.4      0.000      0.000
REMARK  Name = 
REMARK  6 active torsions:
REMARK  status: ('A' for Active; 'I' for Inactive)
REMARK    1  A    between atoms: C_1  and  N_2
REMARK    2  A    between atoms: N_2  and  C_3
REMARK    3  A    between atoms: C_3  and  C_4
REMARK    4  A    between atoms: C_7  and  C_8
REMARK    5  A    between atoms: C_14  and  C_16
REMARK    6  A    between atoms: N_23  and  C_24
REMARK                            x       y       z     vdW  Elec       q    Type
REMARK                         _______ _______ _______ _____ _____    ______ ____
ROOT
ATOM      1  C   UNL     1       3.915   4.728  18.678  0.00  0.00    +0.000 C 
ATOM      2  C   UNL     1       3.486   3.260  18.625  0.00  0.00    +0.000 C 
ATOM      3  C   UNL     1       2.979   2.970  20.034  0.00  0.00    +0.000 C 
ATOM      4  C   UNL     1       2.374   4.287  20.490  0.00  0.00    +0.000 C 
ATOM      5  N   UNL     1       3.024   5.311  19.689  0.00  0.00    +0.000 N 
ATOM      6  C   UNL     1       2.746   6.662  19.673  0.00  0.00    +0.000 C 
ATOM      7  O   UNL     1       3.286   7.396  18.847  0.00  0.00    +0.000 OA
ATOM      8  N   UNL     1       1.811   7.064  20.604  0.00  0.00    +0.000 N 
ATOM      9  H   UNL     1       1.673   6.437  21.380  0.00  0.00    +0.000 HD
ENDROOT
BRANCH   8  10
ATOM     10  C   UNL     1       1.220   8.339  20.719  0.00  0.00    +0.000 A 
ATOM     11  C   UNL     1       1.023   9.194  19.632  0.00  0.00    +0.000 A 
ATOM     12  C   UNL     1       0.468  10.464  19.814  0.00  0.00    +0.000 A 
ATOM     13  C   UNL     1       0.096  10.884  21.087  0.00  0.00    +0.000 A 
ATOM     14 CL   UNL     1      -0.549  12.461  21.315  0.00  0.00    +0.000 Cl
ATOM     15  C   UNL     1       0.249  10.029  22.177  0.00  0.00    +0.000 A 
ATOM     16  C   UNL     1       0.803   8.757  21.991  0.00  0.00    +0.000 A 
ENDBRANCH   8  10
BRANCH   1  19
ATOM     17  C   UNL     1       7.619   5.828  18.641  0.00  0.00    +0.000 C 
ATOM     18  N   UNL     1       6.235   5.646  18.225  0.00  0.00    +0.000 N 
ATOM     19  C   UNL     1       5.416   4.874  19.053  0.00  0.00    +0.000 C 
ATOM     20  O   UNL     1       5.889   4.271  20.024  0.00  0.00    +0.000 OA
BRANCH  18  21
ATOM     21  C   UNL     1       5.821   6.286  16.978  0.00  0.00    +0.000 C 
BRANCH  21  22
ATOM     22  C   UNL     1       5.975   5.476  15.710  0.00  0.00    +0.000 A 
ATOM     23  C   UNL     1       7.134   5.465  14.925  0.00  0.00    +0.000 A 
ATOM     24  C   UNL     1       7.194   4.709  13.747  0.00  0.00    +0.000 A 
ATOM     25  C   UNL     1       6.097   3.943  13.327  0.00  0.00    +0.000 A 
ATOM     26  C   UNL     1       4.939   3.945  14.114  0.00  0.00    +0.000 A 
ATOM     27  C   UNL     1       4.882   4.697  15.291  0.00  0.00    +0.000 A 
BRANCH  25  28
ATOM     28  C   UNL     1       6.143   3.131  12.056  0.00  0.00    +0.000 C 
ATOM     29  F   UNL     1       5.892   1.805  12.238  0.00  0.00    +0.000 F 
ATOM     30  F   UNL     1       5.232   3.558  11.136  0.00  0.00    +0.000 F 
ATOM     31  F   UNL     1       7.355   3.201  11.436  0.00  0.00    +0.000 F 
ENDBRANCH  25  28
ENDBRANCH  21  22
ENDBRANCH  18  21
ENDBRANCH   1  19
TORSDOF 5
ENDMDL
MODEL 2
REMARK VINA RESULT:      -8.3      0.745      1.156
REMARK  Name = 
REMARK  6 active torsions:
REMARK  status: ('A' for Active; 'I' for Inactive)
REMARK    1  A    between atoms: C_1  and  N_2
REMARK    2  A    between atoms: N_2  and  C_3
REMARK    3  A    between atoms: C_3  and  C_4
REMARK    4  A    between atoms: C_7  and  C_8
REMARK    5  A    between atoms: C_14  and  C_16
REMARK    6  A    between atoms: N_23  and  C_24
REMARK                            x       y       z     vdW  Elec       q    Type
REMARK                         _______ _______ _______ _____ _____    ______ ____
ROOT
ATOM      1  C   UNL     1       3.180   4.312  18.790  0.00  0.00    +0.000 C 
ATOM      2  C   UNL     1       2.481   2.964  18.608  0.00  0.00    +0.000 C 
ATOM      3  C   UNL     1       1.847   2.686  19.967  0.00  0.00    +0.000 C 
ATOM      4  C   UNL     1       1.480   4.064  20.494  0.00  0.00    +0.000 C 
ATOM      5  N   UNL     1       2.359   4.991  19.801  0.00  0.00    +0.000 N 
ATOM      6  C   UNL     1       2.346   6.368  19.874  0.00  0.00    +0.000 C 
ATOM      7  O   UNL     1       3.064   7.036  19.131  0.00  0.00    +0.000 OA
ATOM      8  N   UNL     1       1.453   6.883  20.791  0.00  0.00    +0.000 N 
ATOM      9  H   UNL     1       1.152   6.247  21.510  0.00  0.00    +0.000 HD
ENDROOT
BRANCH   8  10
ATOM     10  C   UNL     1       1.112   8.239  20.974  0.00  0.00    +0.000 A 
ATOM     11  C   UNL     1       0.782   8.786  22.216  0.00  0.00    +0.000 A 
ATOM     12  C   UNL     1       0.414  10.130  22.330  0.00  0.00    +0.000 A 
ATOM     13  C   UNL     1       0.383  10.940  21.199  0.00  0.00    +0.000 A 
ATOM     14 CL   UNL     1      -0.109  12.581  21.334  0.00  0.00    +0.000 Cl
ATOM     15  C   UNL     1       0.748  10.421  19.959  0.00  0.00    +0.000 A 
ATOM     16  C   UNL     1       1.118   9.075  19.848  0.00  0.00    +0.000 A 
ENDBRANCH   8  10
BRANCH   1  19
ATOM     17  C   UNL     1       7.009   4.748  19.073  0.00  0.00    +0.000 C 
ATOM     18  N   UNL     1       5.644   4.873  18.580  0.00  0.00    +0.000 N 
ATOM     19  C   UNL     1       4.656   4.139  19.242  0.00  0.00    +0.000 C 
ATOM     20  O   UNL     1       4.959   3.324  20.121  0.00  0.00    +0.000 OA
BRANCH  18  21
ATOM     21  C   UNL     1       5.423   5.756  17.435  0.00  0.00    +0.000 C 
BRANCH  21  22
ATOM     22  C   UNL     1       5.767   5.203  16.070  0.00  0.00    +0.000 A 
ATOM     23  C   UNL     1       7.017   5.355  15.457  0.00  0.00    +0.000 A 
ATOM     24  C   UNL     1       7.254   4.837  14.177  0.00  0.00    +0.000 A 
ATOM     25  C   UNL     1       6.248   4.153  13.480  0.00  0.00    +0.000 A 
ATOM     26  C   UNL     1       4.999   3.992  14.093  0.00  0.00    +0.000 A 
ATOM     27  C   UNL     1       4.766   4.506  15.372  0.00  0.00    +0.000 A 
BRANCH  25  28
ATOM     28  C   UNL     1       6.485   3.598  12.097  0.00  0.00    +0.000 C 
ATOM     29  F   UNL     1       7.073   2.370  12.088  0.00  0.00    +0.000 F 
ATOM     30  F   UNL     1       5.327   3.461  11.388  0.00  0.00    +0.000 F 
ATOM     31  F   UNL     1       7.286   4.402  11.342  0.00  0.00    +0.000 F 
ENDBRANCH  25  28
ENDBRANCH  21  22
ENDBRANCH  18  21
ENDBRANCH   1  19
TORSDOF 5
ENDMDL
MODEL 3
REMARK VINA RESULT:      -8.3      0.733      1.039
REMARK  Name = 
REMARK  6 active torsions:
REMARK  status: ('A' for Active; 'I' for Inactive)
REMARK    1  A    between atoms: C_1  and  N_2
REMARK    2  A    between atoms: N_2  and  C_3
REMARK    3  A    between atoms: C_3  and  C_4
REMARK    4  A    between atoms: C_7  and  C_8
REMARK    5  A    between atoms: C_14  and  C_16
REMARK    6  A    between atoms: N_23  and  C_24
REMARK                            x       y       z     vdW  Elec       q    Type
REMARK                         _______ _______ _______ _____ _____    ______ ____
ROOT
ATOM      1  C   UNL     1       3.172   4.417  18.780  0.00  0.00    +0.000 C 
ATOM      2  C   UNL     1       2.509   3.054  18.574  0.00  0.00    +0.000 C 
ATOM      3  C   UNL     1       1.852   2.751  19.917  0.00  0.00    +0.000 C 
ATOM      4  C   UNL     1       1.443   4.116  20.446  0.00  0.00    +0.000 C 
ATOM      5  N   UNL     1       2.316   5.068  19.779  0.00  0.00    +0.000 N 
ATOM      6  C   UNL     1       2.270   6.444  19.863  0.00  0.00    +0.000 C 
ATOM      7  O   UNL     1       2.988   7.134  19.139  0.00  0.00    +0.000 OA
ATOM      8  N   UNL     1       1.346   6.932  20.764  0.00  0.00    +0.000 N 
ATOM      9  H   UNL     1       1.046   6.283  21.472  0.00  0.00    +0.000 HD
ENDROOT
BRANCH   8  10
ATOM     10  C   UNL     1       0.971   8.278  20.951  0.00  0.00    +0.000 A 
ATOM     11  C   UNL     1       1.107   9.256  19.964  0.00  0.00    +0.000 A 
ATOM     12  C   UNL     1       0.753  10.585  20.221  0.00  0.00    +0.000 A 
ATOM     13  C   UNL     1       0.251  10.941  21.469  0.00  0.00    +0.000 A 
ATOM     14 CL   UNL     1      -0.145  12.581  21.796  0.00  0.00    +0.000 Cl
ATOM     15  C   UNL     1       0.071   9.970  22.452  0.00  0.00    +0.000 A 
ATOM     16  C   UNL     1       0.424   8.640  22.191  0.00  0.00    +0.000 A 
ENDBRANCH   8  10
BRANCH   1  19
ATOM     17  C   UNL     1       6.988   4.919  19.130  0.00  0.00    +0.000 C 
ATOM     18  N   UNL     1       5.631   5.016  18.611  0.00  0.00    +0.000 N 
ATOM     19  C   UNL     1       4.643   4.272  19.262  0.00  0.00    +0.000 C 
ATOM     20  O   UNL     1       4.942   3.472  20.155  0.00  0.00    +0.000 OA
BRANCH  18  21
ATOM     21  C   UNL     1       5.417   5.882  17.452  0.00  0.00    +0.000 C 
BRANCH  21  22
ATOM     22  C   UNL     1       5.749   5.303  16.095  0.00  0.00    +0.000 A 
ATOM     23  C   UNL     1       6.973   5.493  15.442  0.00  0.00    +0.000 A 
ATOM     24  C   UNL     1       7.199   4.947  14.171  0.00  0.00    +0.000 A 
ATOM     25  C   UNL     1       6.207   4.194  13.526  0.00  0.00    +0.000 A 
ATOM     26  C   UNL     1       4.986   3.994  14.179  0.00  0.00    +0.000 A 
ATOM     27  C   UNL     1       4.763   4.537  15.448  0.00  0.00    +0.000 A 
BRANCH  25  28
ATOM     28  C   UNL     1       6.432   3.607  12.154  0.00  0.00    +0.000 C 
ATOM     29  F   UNL     1       7.301   4.319  11.384  0.00  0.00    +0.000 F 
ATOM     30  F   UNL     1       6.937   2.341  12.209  0.00  0.00    +0.000 F 
ATOM     31  F   UNL     1       5.281   3.514  11.430  0.00  0.00    +0.000 F 
ENDBRANCH  25  28
ENDBRANCH  21  22
ENDBRANCH  18  21
ENDBRANCH   1  19
TORSDOF 5
ENDMDL
MODEL 4
REMARK VINA RESULT:      -8.2      0.324      1.162
REMARK  Name = 
REMARK  6 active torsions:
REMARK  status: ('A' for Active; 'I' for Inactive)
REMARK    1  A    between atoms: C_1  and  N_2
REMARK    2  A    between atoms: N_2  and  C_3
REMARK    3  A    between atoms: C_3  and  C_4
REMARK    4  A    between atoms: C_7  and  C_8
REMARK    5  A    between atoms: C_14  and  C_16
REMARK    6  A    between atoms: N_23  and  C_24
REMARK                            x       y       z     vdW  Elec       q    Type
REMARK                         _______ _______ _______ _____ _____    ______ ____
ROOT
ATOM      1  C   UNL     1       3.689   4.520  18.598  0.00  0.00    +0.000 C 
ATOM      2  C   UNL     1       3.105   3.114  18.448  0.00  0.00    +0.000 C 
ATOM      3  C   UNL     1       2.493   2.816  19.813  0.00  0.00    +0.000 C 
ATOM      4  C   UNL     1       2.011   4.171  20.306  0.00  0.00    +0.000 C 
ATOM      5  N   UNL     1       2.812   5.151  19.593  0.00  0.00    +0.000 N 
ATOM      6  C   UNL     1       2.684   6.524  19.634  0.00  0.00    +0.000 C 
ATOM      7  O   UNL     1       3.346   7.231  18.875  0.00  0.00    +0.000 OA
ATOM      8  N   UNL     1       1.749   6.984  20.537  0.00  0.00    +0.000 N 
ATOM      9  H   UNL     1       1.500   6.342  21.271  0.00  0.00    +0.000 HD
ENDROOT
BRANCH   8  10
ATOM     10  C   UNL     1       1.296   8.311  20.689  0.00  0.00    +0.000 A 
ATOM     11  C   UNL     1       1.135   9.194  19.619  0.00  0.00    +0.000 A 
ATOM     12  C   UNL     1       0.720  10.511  19.836  0.00  0.00    +0.000 A 
ATOM     13  C   UNL     1       0.451  10.951  21.128  0.00  0.00    +0.000 A 
ATOM     14 CL   UNL     1      -0.020  12.582  21.397  0.00  0.00    +0.000 Cl
ATOM     15  C   UNL     1       0.567  10.072  22.203  0.00  0.00    +0.000 A 
ATOM     16  C   UNL     1       0.982   8.753  21.982  0.00  0.00    +0.000 A 
ENDBRANCH   8  10
BRANCH   1  19
ATOM     17  C   UNL     1       7.477   5.244  18.842  0.00  0.00    +0.000 C 
ATOM     18  N   UNL     1       6.107   5.241  18.347  0.00  0.00    +0.000 N 
ATOM     19  C   UNL     1       5.173   4.480  19.055  0.00  0.00    +0.000 C 
ATOM     20  O   UNL     1       5.532   3.744  19.982  0.00  0.00    +0.000 OA
BRANCH  18  21
ATOM     21  C   UNL     1       5.825   6.034  17.151  0.00  0.00    +0.000 C 
BRANCH  21  22
ATOM     22  C   UNL     1       5.848   5.303  15.826  0.00  0.00    +0.000 A 
ATOM     23  C   UNL     1       4.786   4.531  15.341  0.00  0.00    +0.000 A 
ATOM     24  C   UNL     1       4.890   3.861  14.115  0.00  0.00    +0.000 A 
ATOM     25  C   UNL     1       6.058   3.950  13.343  0.00  0.00    +0.000 A 
ATOM     26  C   UNL     1       7.119   4.727  13.822  0.00  0.00    +0.000 A 
ATOM     27  C   UNL     1       7.012   5.399  15.044  0.00  0.00    +0.000 A 
BRANCH  25  28
ATOM     28  C   UNL     1       6.188   3.226  12.026  0.00  0.00    +0.000 C 
ATOM     29  F   UNL     1       5.321   3.659  11.069  0.00  0.00    +0.000 F 
ATOM     30  F   UNL     1       7.433   3.357  11.484  0.00  0.00    +0.000 F 
ATOM     31  F   UNL     1       5.976   1.885  12.143  0.00  0.00    +0.000 F 
ENDBRANCH  25  28
ENDBRANCH  21  22
ENDBRANCH  18  21
ENDBRANCH   1  19
TORSDOF 5
ENDMDL
MODEL 5
REMARK VINA RESULT:      -8.2      0.250      1.441
REMARK  Name = 
REMARK  6 active torsions:
REMARK  status: ('A' for Active; 'I' for Inactive)
REMARK    1  A    between atoms: C_1  and  N_2
REMARK    2  A    between atoms: N_2  and  C_3
REMARK    3  A    between atoms: C_3  and  C_4
REMARK    4  A    between atoms: C_7  and  C_8
REMARK    5  A    between atoms: C_14  and  C_16
REMARK    6  A    between atoms: N_23  and  C_24
REMARK                            x       y       z     vdW  Elec       q    Type
REMARK                         _______ _______ _______ _____ _____    ______ ____
ROOT
ATOM      1  C   UNL     1       3.741   4.581  18.562  0.00  0.00    +0.000 C 
ATOM      2  C   UNL     1       3.194   3.164  18.380  0.00  0.00    +0.000 C 
ATOM      3  C   UNL     1       2.600   2.816  19.741  0.00  0.00    +0.000 C 
ATOM      4  C   UNL     1       2.086   4.145  20.272  0.00  0.00    +0.000 C 
ATOM      5  N   UNL     1       2.855   5.164  19.578  0.00  0.00    +0.000 N 
ATOM      6  C   UNL     1       2.692   6.531  19.654  0.00  0.00    +0.000 C 
ATOM      7  O   UNL     1       3.329   7.274  18.909  0.00  0.00    +0.000 OA
ATOM      8  N   UNL     1       1.752   6.944  20.575  0.00  0.00    +0.000 N 
ATOM      9  H   UNL     1       1.526   6.277  21.294  0.00  0.00    +0.000 HD
ENDROOT
BRANCH   8  10
ATOM     10  C   UNL     1       1.265   8.254  20.763  0.00  0.00    +0.000 A 
ATOM     11  C   UNL     1       0.954   8.784  22.017  0.00  0.00    +0.000 A 
ATOM     12  C   UNL     1       0.437  10.078  22.137  0.00  0.00    +0.000 A 
ATOM     13  C   UNL     1       0.238  10.855  21.000  0.00  0.00    +0.000 A 
ATOM     14 CL   UNL     1      -0.436  12.429  21.146  0.00  0.00    +0.000 Cl
ATOM     15  C   UNL     1       0.580  10.356  19.745  0.00  0.00    +0.000 A 
ATOM     16  C   UNL     1       1.099   9.061  19.628  0.00  0.00    +0.000 A 
ENDBRANCH   8  10
BRANCH   1  19
ATOM     17  C   UNL     1       7.522   5.356  18.758  0.00  0.00    +0.000 C 
ATOM     18  N   UNL     1       6.148   5.326  18.275  0.00  0.00    +0.000 N 
ATOM     19  C   UNL     1       5.230   4.569  19.007  0.00  0.00    +0.000 C 
ATOM     20  O   UNL     1       5.605   3.858  19.947  0.00  0.00    +0.000 OA
BRANCH  18  21
ATOM     21  C   UNL     1       5.847   6.088  17.064  0.00  0.00    +0.000 C 
BRANCH  21  22
ATOM     22  C   UNL     1       5.870   5.330  15.755  0.00  0.00    +0.000 A 
ATOM     23  C   UNL     1       4.801   4.561  15.279  0.00  0.00    +0.000 A 
ATOM     24  C   UNL     1       4.905   3.863  14.068  0.00  0.00    +0.000 A 
ATOM     25  C   UNL     1       6.079   3.921  13.303  0.00  0.00    +0.000 A 
ATOM     26  C   UNL     1       7.147   4.696  13.772  0.00  0.00    +0.000 A 
ATOM     27  C   UNL     1       7.040   5.395  14.979  0.00  0.00    +0.000 A 
BRANCH  25  28
ATOM     28  C   UNL     1       6.209   3.168  12.002  0.00  0.00    +0.000 C 
ATOM     29  F   UNL     1       7.444   3.256  11.434  0.00  0.00    +0.000 F 
ATOM     30  F   UNL     1       5.963   1.835  12.149  0.00  0.00    +0.000 F 
ATOM     31  F   UNL     1       5.331   3.604  11.056  0.00  0.00    +0.000 F 
ENDBRANCH  25  28
ENDBRANCH  21  22
ENDBRANCH  18  21
ENDBRANCH   1  19
TORSDOF 5
ENDMDL
MODEL 6
REMARK VINA RESULT:      -8.1      4.955      7.074
REMARK  Name = 
REMARK  6 active torsions:
REMARK  status: ('A' for Active; 'I' for Inactive)
REMARK    1  A    between atoms: C_1  and  N_2
REMARK    2  A    between atoms: N_2  and  C_3
REMARK    3  A    between atoms: C_3  and  C_4
REMARK    4  A    between atoms: C_7  and  C_8
REMARK    5  A    between atoms: C_14  and  C_16
REMARK    6  A    between atoms: N_23  and  C_24
REMARK                            x       y       z     vdW  Elec       q    Type
REMARK                         _______ _______ _______ _____ _____    ______ ____
ROOT
ATOM      1  C   UNL     1       6.656   5.979  18.129  0.00  0.00    +0.000 C 
ATOM      2  C   UNL     1       6.386   5.071  19.330  0.00  0.00    +0.000 C 
ATOM      3  C   UNL     1       7.731   4.991  20.046  0.00  0.00    +0.000 C 
ATOM      4  C   UNL     1       8.362   6.352  19.804  0.00  0.00    +0.000 C 
ATOM      5  N   UNL     1       7.726   6.866  18.602  0.00  0.00    +0.000 N 
ATOM      6  C   UNL     1       7.900   8.110  18.031  0.00  0.00    +0.000 C 
ATOM      7  O   UNL     1       7.197   8.461  17.085  0.00  0.00    +0.000 OA
ATOM      8  N   UNL     1       8.865   8.887  18.638  0.00  0.00    +0.000 N 
ATOM      9  H   UNL     1       9.540   8.388  19.193  0.00  0.00    +0.000 HD
ENDROOT
BRANCH   8  10
ATOM     10  C   UNL     1       9.152  10.242  18.375  0.00  0.00    +0.000 A 
ATOM     11  C   UNL     1       8.233  11.124  17.803  0.00  0.00    +0.000 A 
ATOM     12  C   UNL     1       8.589  12.449  17.529  0.00  0.00    +0.000 A 
ATOM     13  C   UNL     1       9.868  12.902  17.838  0.00  0.00    +0.000 A 
ATOM     14 CL   UNL     1      10.317  14.519  17.464  0.00  0.00    +0.000 Cl
ATOM     15  C   UNL     1      10.784  12.047  18.446  0.00  0.00    +0.000 A 
ATOM     16  C   UNL     1      10.424  10.722  18.720  0.00  0.00    +0.000 A 
ENDBRANCH   8  10
BRANCH   1  19
ATOM     17  C   UNL     1       6.602   4.342  14.628  0.00  0.00    +0.000 C 
ATOM     18  N   UNL     1       6.158   5.049  15.822  0.00  0.00    +0.000 N 
ATOM     19  C   UNL     1       7.072   5.163  16.874  0.00  0.00    +0.000 C 
ATOM     20  O   UNL     1       8.159   4.575  16.831  0.00  0.00    +0.000 OA
BRANCH  18  21
ATOM     21  C   UNL     1       4.795   5.578  15.821  0.00  0.00    +0.000 C 
BRANCH  21  22
ATOM     22  C   UNL     1       3.835   4.997  16.835  0.00  0.00    +0.000 A 
ATOM     23  C   UNL     1       3.054   5.770  17.703  0.00  0.00    +0.000 A 
ATOM     24  C   UNL     1       2.205   5.159  18.637  0.00  0.00    +0.000 A 
ATOM     25  C   UNL     1       2.115   3.762  18.721  0.00  0.00    +0.000 A 
ATOM     26  C   UNL     1       2.889   2.987  17.849  0.00  0.00    +0.000 A 
ATOM     27  C   UNL     1       3.732   3.598  16.916  0.00  0.00    +0.000 A 
BRANCH  25  28
ATOM     28  C   UNL     1       1.213   3.091  19.727  0.00  0.00    +0.000 C 
ATOM     29  F   UNL     1       0.658   3.947  20.629  0.00  0.00    +0.000 F 
ATOM     30  F   UNL     1       0.167   2.446  19.135  0.00  0.00    +0.000 F 
ATOM     31  F   UNL     1       1.863   2.144  20.461  0.00  0.00    +0.000 F 
ENDBRANCH  25  28
ENDBRANCH  21  22
ENDBRANCH  18  21
ENDBRANCH   1  19
TORSDOF 5
ENDMDL
MODEL 7
REMARK VINA RESULT:      -7.9      4.972      7.101
REMARK  Name = 
REMARK  6 active torsions:
REMARK  status: ('A' for Active; 'I' for Inactive)
REMARK    1  A    between atoms: C_1  and  N_2
REMARK    2  A    between atoms: N_2  and  C_3
REMARK    3  A    between atoms: C_3  and  C_4
REMARK    4  A    between atoms: C_7  and  C_8
REMARK    5  A    between atoms: C_14  and  C_16
REMARK    6  A    between atoms: N_23  and  C_24
REMARK                            x       y       z     vdW  Elec       q    Type
REMARK                         _______ _______ _______ _____ _____    ______ ____
ROOT
ATOM      1  C   UNL     1       6.637   6.042  18.061  0.00  0.00    +0.000 C 
ATOM      2  C   UNL     1       6.359   5.136  19.262  0.00  0.00    +0.000 C 
ATOM      3  C   UNL     1       7.702   5.041  19.977  0.00  0.00    +0.000 C 
ATOM      4  C   UNL     1       8.348   6.396  19.736  0.00  0.00    +0.000 C 
ATOM      5  N   UNL     1       7.717   6.917  18.535  0.00  0.00    +0.000 N 
ATOM      6  C   UNL     1       7.904   8.159  17.964  0.00  0.00    +0.000 C 
ATOM      7  O   UNL     1       7.204   8.519  17.019  0.00  0.00    +0.000 OA
ATOM      8  N   UNL     1       8.877   8.926  18.571  0.00  0.00    +0.000 N 
ATOM      9  H   UNL     1       9.547   8.419  19.125  0.00  0.00    +0.000 HD
ENDROOT
BRANCH   8  10
ATOM     10  C   UNL     1       9.179  10.279  18.309  0.00  0.00    +0.000 A 
ATOM     11  C   UNL     1      10.433  10.845  18.547  0.00  0.00    +0.000 A 
ATOM     12  C   UNL     1      10.661  12.203  18.304  0.00  0.00    +0.000 A 
ATOM     13  C   UNL     1       9.635  13.002  17.810  0.00  0.00    +0.000 A 
ATOM     14 CL   UNL     1       9.905  14.679  17.550  0.00  0.00    +0.000 Cl
ATOM     15  C   UNL     1       8.390  12.444  17.528  0.00  0.00    +0.000 A 
ATOM     16  C   UNL     1       8.164  11.084  17.771  0.00  0.00    +0.000 A 
ENDBRANCH   8  10
BRANCH   1  19
ATOM     17  C   UNL     1       6.519   4.315  14.605  0.00  0.00    +0.000 C 
ATOM     18  N   UNL     1       6.089   5.022  15.804  0.00  0.00    +0.000 N 
ATOM     19  C   UNL     1       7.044   5.223  16.805  0.00  0.00    +0.000 C 
ATOM     20  O   UNL     1       8.164   4.706  16.720  0.00  0.00    +0.000 OA
BRANCH  18  21
ATOM     21  C   UNL     1       4.696   5.462  15.860  0.00  0.00    +0.000 C 
BRANCH  21  22
ATOM     22  C   UNL     1       3.806   4.786  16.880  0.00  0.00    +0.000 A 
ATOM     23  C   UNL     1       3.712   3.398  17.037  0.00  0.00    +0.000 A 
ATOM     24  C   UNL     1       2.845   2.842  17.988  0.00  0.00    +0.000 A 
ATOM     25  C   UNL     1       2.053   3.662  18.805  0.00  0.00    +0.000 A 
ATOM     26  C   UNL     1       2.151   5.050  18.656  0.00  0.00    +0.000 A 
ATOM     27  C   UNL     1       3.019   5.603  17.710  0.00  0.00    +0.000 A 
BRANCH  25  28
ATOM     28  C   UNL     1       1.108   3.078  19.826  0.00  0.00    +0.000 C 
ATOM     29  F   UNL     1       0.560   4.002  20.663  0.00  0.00    +0.000 F 
ATOM     30  F   UNL     1       0.055   2.432  19.247  0.00  0.00    +0.000 F 
ATOM     31  F   UNL     1       1.710   2.156  20.629  0.00  0.00    +0.000 F 
ENDBRANCH  25  28
ENDBRANCH  21  22
ENDBRANCH  18  21
ENDBRANCH   1  19
TORSDOF 5
ENDMDL
MODEL 8
REMARK VINA RESULT:      -7.7      4.935      7.083
REMARK  Name = 
REMARK  6 active torsions:
REMARK  status: ('A' for Active; 'I' for Inactive)
REMARK    1  A    between atoms: C_1  and  N_2
REMARK    2  A    between atoms: N_2  and  C_3
REMARK    3  A    between atoms: C_3  and  C_4
REMARK    4  A    between atoms: C_7  and  C_8
REMARK    5  A    between atoms: C_14  and  C_16
REMARK    6  A    between atoms: N_23  and  C_24
REMARK                            x       y       z     vdW  Elec       q    Type
REMARK                         _______ _______ _______ _____ _____    ______ ____
ROOT
ATOM      1  C   UNL     1       6.653   6.094  18.136  0.00  0.00    +0.000 C 
ATOM      2  C   UNL     1       6.288   5.051  19.194  0.00  0.00    +0.000 C 
ATOM      3  C   UNL     1       7.600   4.790  19.928  0.00  0.00    +0.000 C 
ATOM      4  C   UNL     1       8.319   6.128  19.891  0.00  0.00    +0.000 C 
ATOM      5  N   UNL     1       7.758   6.839  18.754  0.00  0.00    +0.000 N 
ATOM      6  C   UNL     1       8.025   8.134  18.363  0.00  0.00    +0.000 C 
ATOM      7  O   UNL     1       7.378   8.654  17.455  0.00  0.00    +0.000 OA
ATOM      8  N   UNL     1       9.013   8.759  19.095  0.00  0.00    +0.000 N 
ATOM      9  H   UNL     1       9.637   8.148  19.594  0.00  0.00    +0.000 HD
ENDROOT
BRANCH   8  10
ATOM     10  C   UNL     1       9.390  10.117  19.027  0.00  0.00    +0.000 A 
ATOM     11  C   UNL     1       9.482  10.944  20.148  0.00  0.00    +0.000 A 
ATOM     12  C   UNL     1       9.823  12.293  20.014  0.00  0.00    +0.000 A 
ATOM     13  C   UNL     1      10.085  12.822  18.754  0.00  0.00    +0.000 A 
ATOM     14 CL   UNL     1      10.464  14.490  18.586  0.00  0.00    +0.000 Cl
ATOM     15  C   UNL     1      10.037  12.001  17.629  0.00  0.00    +0.000 A 
ATOM     16  C   UNL     1       9.697  10.650  17.767  0.00  0.00    +0.000 A 
ENDBRANCH   8  10
BRANCH   1  19
ATOM     17  C   UNL     1       6.550   4.804  14.494  0.00  0.00    +0.000 C 
ATOM     18  N   UNL     1       6.116   5.364  15.767  0.00  0.00    +0.000 N 
ATOM     19  C   UNL     1       7.063   5.429  16.792  0.00  0.00    +0.000 C 
ATOM     20  O   UNL     1       8.179   4.913  16.655  0.00  0.00    +0.000 OA
BRANCH  18  21
ATOM     21  C   UNL     1       4.727   5.810  15.864  0.00  0.00    +0.000 C 
BRANCH  21  22
ATOM     22  C   UNL     1       3.824   5.034  16.798  0.00  0.00    +0.000 A 
ATOM     23  C   UNL     1       3.728   3.638  16.810  0.00  0.00    +0.000 A 
ATOM     24  C   UNL     1       2.848   2.989  17.687  0.00  0.00    +0.000 A 
ATOM     25  C   UNL     1       2.046   3.722  18.574  0.00  0.00    +0.000 A 
ATOM     26  C   UNL     1       2.146   5.118  18.570  0.00  0.00    +0.000 A 
ATOM     27  C   UNL     1       3.027   5.764  17.697  0.00  0.00    +0.000 A 
BRANCH  25  28
ATOM     28  C   UNL     1       1.087   3.038  19.518  0.00  0.00    +0.000 C 
ATOM     29  F   UNL     1       0.136   2.291  18.893  0.00  0.00    +0.000 F 
ATOM     30  F   UNL     1       1.722   2.189  20.376  0.00  0.00    +0.000 F 
ATOM     31  F   UNL     1       0.412   3.921  20.306  0.00  0.00    +0.000 F 
ENDBRANCH  25  28
ENDBRANCH  21  22
ENDBRANCH  18  21
ENDBRANCH   1  19
TORSDOF 5
ENDMDL
MODEL 9
REMARK VINA RESULT:      -7.6      0.844      1.444
REMARK  Name = 
REMARK  6 active torsions:
REMARK  status: ('A' for Active; 'I' for Inactive)
REMARK    1  A    between atoms: C_1  and  N_2
REMARK    2  A    between atoms: N_2  and  C_3
REMARK    3  A    between atoms: C_3  and  C_4
REMARK    4  A    between atoms: C_7  and  C_8
REMARK    5  A    between atoms: C_14  and  C_16
REMARK    6  A    between atoms: N_23  and  C_24
REMARK                            x       y       z     vdW  Elec       q    Type
REMARK                         _______ _______ _______ _____ _____    ______ ____
ROOT
ATOM      1  C   UNL     1       3.251   4.591  19.105  0.00  0.00    +0.000 C 
ATOM      2  C   UNL     1       2.670   3.180  18.992  0.00  0.00    +0.000 C 
ATOM      3  C   UNL     1       2.073   2.912  20.370  0.00  0.00    +0.000 C 
ATOM      4  C   UNL     1       1.592   4.275  20.838  0.00  0.00    +0.000 C 
ATOM      5  N   UNL     1       2.383   5.242  20.095  0.00  0.00    +0.000 N 
ATOM      6  C   UNL     1       2.252   6.615  20.106  0.00  0.00    +0.000 C 
ATOM      7  O   UNL     1       2.903   7.306  19.324  0.00  0.00    +0.000 OA
ATOM      8  N   UNL     1       1.325   7.093  21.009  0.00  0.00    +0.000 N 
ATOM      9  H   UNL     1       1.086   6.467  21.759  0.00  0.00    +0.000 HD
ENDROOT
BRANCH   8  10
ATOM     10  C   UNL     1       0.870   8.422  21.135  0.00  0.00    +0.000 A 
ATOM     11  C   UNL     1       0.465   8.982  22.349  0.00  0.00    +0.000 A 
ATOM     12  C   UNL     1      -0.015  10.294  22.405  0.00  0.00    +0.000 A 
ATOM     13  C   UNL     1      -0.082  11.059  21.245  0.00  0.00    +0.000 A 
ATOM     14 CL   UNL     1      -0.710  12.658  21.310  0.00  0.00    +0.000 Cl
ATOM     15  C   UNL     1       0.356  10.530  20.033  0.00  0.00    +0.000 A 
ATOM     16  C   UNL     1       0.837   9.216  19.980  0.00  0.00    +0.000 A 
ENDBRANCH   8  10
BRANCH   1  19
ATOM     17  C   UNL     1       7.039   5.332  19.292  0.00  0.00    +0.000 C 
ATOM     18  N   UNL     1       5.664   5.314  18.812  0.00  0.00    +0.000 N 
ATOM     19  C   UNL     1       4.741   4.565  19.547  0.00  0.00    +0.000 C 
ATOM     20  O   UNL     1       5.112   3.850  20.485  0.00  0.00    +0.000 OA
BRANCH  18  21
ATOM     21  C   UNL     1       5.367   6.080  17.603  0.00  0.00    +0.000 C 
BRANCH  21  22
ATOM     22  C   UNL     1       5.501   5.353  16.283  0.00  0.00    +0.000 A 
ATOM     23  C   UNL     1       5.708   3.974  16.168  0.00  0.00    +0.000 A 
ATOM     24  C   UNL     1       5.849   3.373  14.910  0.00  0.00    +0.000 A 
ATOM     25  C   UNL     1       5.783   4.139  13.737  0.00  0.00    +0.000 A 
ATOM     26  C   UNL     1       5.568   5.517  13.847  0.00  0.00    +0.000 A 
ATOM     27  C   UNL     1       5.424   6.114  15.104  0.00  0.00    +0.000 A 
BRANCH  25  28
ATOM     28  C   UNL     1       5.943   3.508  12.375  0.00  0.00    +0.000 C 
ATOM     29  F   UNL     1       4.851   3.641  11.573  0.00  0.00    +0.000 F 
ATOM     30  F   UNL     1       6.984   4.043  11.676  0.00  0.00    +0.000 F 
ATOM     31  F   UNL     1       6.195   2.170  12.446  0.00  0.00    +0.000 F 
ENDBRANCH  25  28
ENDBRANCH  21  22
ENDBRANCH  18  21
ENDBRANCH   1  19
TORSDOF 5
ENDMDL
