MODEL 1
REMARK VINA RESULT:      -7.6      0.000      0.000
REMARK  Name = 
REMARK  13 active torsions:
REMARK  status: ('A' for Active; 'I' for Inactive)
REMARK    1  A    between atoms: C_1  and  C_2
REMARK    2  A    between atoms: C_2  and  C_3
REMARK    3  A    between atoms: C_6  and  C_7
REMARK    4  A    between atoms: C_7  and  N_8
REMARK    5  A    between atoms: N_8  and  C_9
REMARK    6  A    between atoms: C_11  and  N_12
REMARK    7  A    between atoms: C_13  and  O_15
REMARK    8  A    between atoms: O_15  and  C_16
REMARK    9  A    between atoms: C_16  and  C_17
REMARK   10  A    between atoms: C_16  and  C_18
REMARK   11  A    between atoms: C_16  and  C_19
REMARK   12  A    between atoms: C_22  and  C_23
REMARK   13  A    between atoms: N_24  and  C_25
REMARK                            x       y       z     vdW  Elec       q    Type
REMARK                         _______ _______ _______ _____ _____    ______ ____
ROOT
ATOM      1  C   UNL     1       3.853   3.766  19.465  0.00  0.00    +0.000 A 
ATOM      2  C   UNL     1       3.523   5.038  19.957  0.00  0.00    +0.000 A 
ATOM      3  C   UNL     1       2.223   5.427  20.310  0.00  0.00    +0.000 A 
ATOM      4  C   UNL     1       1.180   4.554  20.024  0.00  0.00    +0.000 A 
ATOM      5  C   UNL     1       1.463   3.307  19.451  0.00  0.00    +0.000 A 
ATOM      6  C   UNL     1       2.787   2.896  19.174  0.00  0.00    +0.000 A 
ATOM      7  C   UNL     1       2.997   1.535  18.572  0.00  0.00    +0.000 C 
ENDROOT
BRANCH   3   8
ATOM      8  N   UNL     1       1.951   6.661  20.965  0.00  0.00    +0.000 N 
ATOM      9  C   UNL     1       1.850   7.859  20.294  0.00  0.00    +0.000 C 
ATOM     10  O   UNL     1       1.980   7.996  19.082  0.00  0.00    +0.000 OA
ATOM     11  H   UNL     1       1.986   6.709  21.968  0.00  0.00    +0.000 HD
BRANCH   9  12
ATOM     12  O   UNL     1       1.623   8.923  21.125  0.00  0.00    +0.000 OA
BRANCH  12  13
ATOM     13  C   UNL     1       0.249   9.428  21.150  0.00  0.00    +0.000 C 
ATOM     14  C   UNL     1      -0.208   9.887  19.752  0.00  0.00    +0.000 C 
ATOM     15  C   UNL     1      -0.671   8.275  21.588  0.00  0.00    +0.000 C 
ATOM     16  C   UNL     1       0.087  10.542  22.203  0.00  0.00    +0.000 C 
ENDBRANCH  12  13
ENDBRANCH   9  12
ENDBRANCH   3   8
BRANCH   1  17
ATOM     17  N   UNL     1       5.202   3.432  19.169  0.00  0.00    +0.000 N 
ATOM     18  H   UNL     1       5.797   3.654  19.961  0.00  0.00    +0.000 HD
BRANCH  17  19
ATOM     19  C   UNL     1       5.748   4.050  17.938  0.00  0.00    +0.000 C 
BRANCH  19  23
ATOM     20  C   UNL     1       7.552   7.229  18.014  0.00  0.00    +0.000 A 
ATOM     21  N   UNL     1       8.221   6.526  18.902  0.00  0.00    +0.000 NA
ATOM     22  N   UNL     1       7.648   5.289  18.984  0.00  0.00    +0.000 NA
ATOM     23  C   UNL     1       6.628   5.243  18.147  0.00  0.00    +0.000 A 
ATOM     24  N   UNL     1       6.515   6.464  17.534  0.00  0.00    +0.000 N 
ATOM     25  C   UNL     1       5.538   6.896  16.570  0.00  0.00    +0.000 C 
BRANCH  20  27
ATOM     26  C   UNL     1       8.692   9.393  18.560  0.00  0.00    +0.000 C 
ATOM     27  C   UNL     1       7.849   8.617  17.559  0.00  0.00    +0.000 C 
ENDBRANCH  20  27
ENDBRANCH  19  23
ENDBRANCH  17  19
ENDBRANCH   1  17
TORSDOF 7
ENDMDL
MODEL 2
REMARK VINA RESULT:      -7.5      1.874      2.813
REMARK  Name = 
REMARK  13 active torsions:
REMARK  status: ('A' for Active; 'I' for Inactive)
REMARK    1  A    between atoms: C_1  and  C_2
REMARK    2  A    between atoms: C_2  and  C_3
REMARK    3  A    between atoms: C_6  and  C_7
REMARK    4  A    between atoms: C_7  and  N_8
REMARK    5  A    between atoms: N_8  and  C_9
REMARK    6  A    between atoms: C_11  and  N_12
REMARK    7  A    between atoms: C_13  and  O_15
REMARK    8  A    between atoms: O_15  and  C_16
REMARK    9  A    between atoms: C_16  and  C_17
REMARK   10  A    between atoms: C_16  and  C_18
REMARK   11  A    between atoms: C_16  and  C_19
REMARK   12  A    between atoms: C_22  and  C_23
REMARK   13  A    between atoms: N_24  and  C_25
REMARK                            x       y       z     vdW  Elec       q    Type
REMARK                         _______ _______ _______ _____ _____    ______ ____
ROOT
ATOM      1  C   UNL     1       4.075   4.060  19.437  0.00  0.00    +0.000 A 
ATOM      2  C   UNL     1       3.671   5.336  19.859  0.00  0.00    +0.000 A 
ATOM      3  C   UNL     1       2.373   5.641  20.295  0.00  0.00    +0.000 A 
ATOM      4  C   UNL     1       1.395   4.662  20.168  0.00  0.00    +0.000 A 
ATOM      5  C   UNL     1       1.744   3.401  19.668  0.00  0.00    +0.000 A 
ATOM      6  C   UNL     1       3.073   3.082  19.308  0.00  0.00    +0.000 A 
ATOM      7  C   UNL     1       3.358   1.698  18.794  0.00  0.00    +0.000 C 
ENDROOT
BRANCH   3   8
ATOM      8  N   UNL     1       2.043   6.898  20.876  0.00  0.00    +0.000 N 
ATOM      9  C   UNL     1       1.819   8.033  20.130  0.00  0.00    +0.000 C 
ATOM     10  O   UNL     1       1.877   8.089  18.906  0.00  0.00    +0.000 OA
ATOM     11  H   UNL     1       2.125   7.022  21.870  0.00  0.00    +0.000 HD
BRANCH   9  12
ATOM     12  O   UNL     1       1.556   9.136  20.896  0.00  0.00    +0.000 OA
BRANCH  12  13
ATOM     13  C   UNL     1       0.140   9.474  21.060  0.00  0.00    +0.000 C 
ATOM     14  C   UNL     1      -0.676   8.259  21.545  0.00  0.00    +0.000 C 
ATOM     15  C   UNL     1       0.036  10.568  22.137  0.00  0.00    +0.000 C 
ATOM     16  C   UNL     1      -0.440  10.077  19.765  0.00  0.00    +0.000 C 
ENDBRANCH  12  13
ENDBRANCH   9  12
ENDBRANCH   3   8
BRANCH   1  17
ATOM     17  N   UNL     1       5.420   3.819  19.049  0.00  0.00    +0.000 N 
ATOM     18  H   UNL     1       5.958   3.488  19.844  0.00  0.00    +0.000 HD
BRANCH  17  19
ATOM     19  C   UNL     1       6.109   4.969  18.417  0.00  0.00    +0.000 C 
BRANCH  19  23
ATOM     20  C   UNL     1       6.371   4.361  14.822  0.00  0.00    +0.000 A 
ATOM     21  N   UNL     1       7.585   4.779  15.106  0.00  0.00    +0.000 NA
ATOM     22  N   UNL     1       7.638   5.052  16.444  0.00  0.00    +0.000 NA
ATOM     23  C   UNL     1       6.453   4.803  16.970  0.00  0.00    +0.000 A 
ATOM     24  N   UNL     1       5.612   4.390  15.969  0.00  0.00    +0.000 N 
ATOM     25  C   UNL     1       4.221   4.035  16.056  0.00  0.00    +0.000 C 
BRANCH  20  27
ATOM     26  C   UNL     1       6.934   3.959  12.413  0.00  0.00    +0.000 C 
ATOM     27  C   UNL     1       5.867   3.900  13.496  0.00  0.00    +0.000 C 
ENDBRANCH  20  27
ENDBRANCH  19  23
ENDBRANCH  17  19
ENDBRANCH   1  17
TORSDOF 7
ENDMDL
MODEL 3
REMARK VINA RESULT:      -7.2      1.743      2.469
REMARK  Name = 
REMARK  13 active torsions:
REMARK  status: ('A' for Active; 'I' for Inactive)
REMARK    1  A    between atoms: C_1  and  C_2
REMARK    2  A    between atoms: C_2  and  C_3
REMARK    3  A    between atoms: C_6  and  C_7
REMARK    4  A    between atoms: C_7  and  N_8
REMARK    5  A    between atoms: N_8  and  C_9
REMARK    6  A    between atoms: C_11  and  N_12
REMARK    7  A    between atoms: C_13  and  O_15
REMARK    8  A    between atoms: O_15  and  C_16
REMARK    9  A    between atoms: C_16  and  C_17
REMARK   10  A    between atoms: C_16  and  C_18
REMARK   11  A    between atoms: C_16  and  C_19
REMARK   12  A    between atoms: C_22  and  C_23
REMARK   13  A    between atoms: N_24  and  C_25
REMARK                            x       y       z     vdW  Elec       q    Type
REMARK                         _______ _______ _______ _____ _____    ______ ____
ROOT
ATOM      1  C   UNL     1       3.586   3.971  19.830  0.00  0.00    +0.000 A 
ATOM      2  C   UNL     1       3.288   5.270  20.273  0.00  0.00    +0.000 A 
ATOM      3  C   UNL     1       1.997   5.706  20.604  0.00  0.00    +0.000 A 
ATOM      4  C   UNL     1       0.932   4.851  20.345  0.00  0.00    +0.000 A 
ATOM      5  C   UNL     1       1.184   3.576  19.821  0.00  0.00    +0.000 A 
ATOM      6  C   UNL     1       2.498   3.120  19.567  0.00  0.00    +0.000 A 
ATOM      7  C   UNL     1       2.674   1.732  19.017  0.00  0.00    +0.000 C 
ENDROOT
BRANCH   3   8
ATOM      8  N   UNL     1       1.756   6.971  21.211  0.00  0.00    +0.000 N 
ATOM      9  C   UNL     1       1.670   8.142  20.492  0.00  0.00    +0.000 C 
ATOM     10  O   UNL     1       1.790   8.227  19.275  0.00  0.00    +0.000 OA
ATOM     11  H   UNL     1       1.802   7.058  22.211  0.00  0.00    +0.000 HD
BRANCH   9  12
ATOM     12  O   UNL     1       1.472   9.242  21.282  0.00  0.00    +0.000 OA
BRANCH  12  13
ATOM     13  C   UNL     1       0.117   9.411  21.811  0.00  0.00    +0.000 C 
ATOM     14  C   UNL     1       0.122   9.520  23.348  0.00  0.00    +0.000 C 
ATOM     15  C   UNL     1      -0.450  10.727  21.250  0.00  0.00    +0.000 C 
ATOM     16  C   UNL     1      -0.815   8.287  21.317  0.00  0.00    +0.000 C 
ENDBRANCH  12  13
ENDBRANCH   9  12
ENDBRANCH   3   8
BRANCH   1  17
ATOM     17  N   UNL     1       4.926   3.591  19.553  0.00  0.00    +0.000 N 
ATOM     18  H   UNL     1       5.290   3.021  20.311  0.00  0.00    +0.000 HD
BRANCH  17  19
ATOM     19  C   UNL     1       5.854   4.713  19.274  0.00  0.00    +0.000 C 
BRANCH  19  23
ATOM     20  C   UNL     1       6.622   4.949  15.707  0.00  0.00    +0.000 A 
ATOM     21  N   UNL     1       7.806   4.680  16.213  0.00  0.00    +0.000 NA
ATOM     22  N   UNL     1       7.672   4.564  17.568  0.00  0.00    +0.000 NA
ATOM     23  C   UNL     1       6.407   4.765  17.884  0.00  0.00    +0.000 A 
ATOM     24  N   UNL     1       5.712   5.042  16.735  0.00  0.00    +0.000 N 
ATOM     25  C   UNL     1       4.316   5.356  16.584  0.00  0.00    +0.000 C 
BRANCH  20  27
ATOM     26  C   UNL     1       6.166   3.778  13.540  0.00  0.00    +0.000 C 
ATOM     27  C   UNL     1       6.277   5.109  14.266  0.00  0.00    +0.000 C 
ENDBRANCH  20  27
ENDBRANCH  19  23
ENDBRANCH  17  19
ENDBRANCH   1  17
TORSDOF 7
ENDMDL
MODEL 4
REMARK VINA RESULT:      -7.1      1.199      1.528
REMARK  Name = 
REMARK  13 active torsions:
REMARK  status: ('A' for Active; 'I' for Inactive)
REMARK    1  A    between atoms: C_1  and  C_2
REMARK    2  A    between atoms: C_2  and  C_3
REMARK    3  A    between atoms: C_6  and  C_7
REMARK    4  A    between atoms: C_7  and  N_8
REMARK    5  A    between atoms: N_8  and  C_9
REMARK    6  A    between atoms: C_11  and  N_12
REMARK    7  A    between atoms: C_13  and  O_15
REMARK    8  A    between atoms: O_15  and  C_16
REMARK    9  A    between atoms: C_16  and  C_17
REMARK   10  A    between atoms: C_16  and  C_18
REMARK   11  A    between atoms: C_16  and  C_19
REMARK   12  A    between atoms: C_22  and  C_23
REMARK   13  A    between atoms: N_24  and  C_25
REMARK                            x       y       z     vdW  Elec       q    Type
REMARK                         _______ _______ _______ _____ _____    ______ ____
ROOT
ATOM      1  C   UNL     1       2.774   4.348  18.158  0.00  0.00    +0.000 A 
ATOM      2  C   UNL     1       2.489   5.539  18.844  0.00  0.00    +0.000 A 
ATOM      3  C   UNL     1       1.835   5.590  20.084  0.00  0.00    +0.000 A 
ATOM      4  C   UNL     1       1.314   4.408  20.596  0.00  0.00    +0.000 A 
ATOM      5  C   UNL     1       1.504   3.211  19.894  0.00  0.00    +0.000 A 
ATOM      6  C   UNL     1       2.234   3.162  18.685  0.00  0.00    +0.000 A 
ATOM      7  C   UNL     1       2.400   1.829  18.009  0.00  0.00    +0.000 C 
ENDROOT
BRANCH   3   8
ATOM      8  N   UNL     1       1.716   6.797  20.829  0.00  0.00    +0.000 N 
ATOM      9  C   UNL     1       1.775   8.045  20.250  0.00  0.00    +0.000 C 
ATOM     10  O   UNL     1       1.936   8.254  19.052  0.00  0.00    +0.000 OA
ATOM     11  H   UNL     1       1.745   6.765  21.833  0.00  0.00    +0.000 HD
BRANCH   9  12
ATOM     12  O   UNL     1       1.677   9.063  21.159  0.00  0.00    +0.000 OA
BRANCH  12  13
ATOM     13  C   UNL     1       0.379   9.739  21.218  0.00  0.00    +0.000 C 
ATOM     14  C   UNL     1      -0.408   9.563  19.905  0.00  0.00    +0.000 C 
ATOM     15  C   UNL     1      -0.442   9.090  22.346  0.00  0.00    +0.000 C 
ATOM     16  C   UNL     1       0.543  11.225  21.595  0.00  0.00    +0.000 C 
ENDBRANCH  12  13
ENDBRANCH   9  12
ENDBRANCH   3   8
BRANCH   1  17
ATOM     17  N   UNL     1       3.478   4.375  16.925  0.00  0.00    +0.000 N 
ATOM     18  H   UNL     1       2.966   3.854  16.219  0.00  0.00    +0.000 HD
BRANCH  17  19
ATOM     19  C   UNL     1       4.879   3.895  16.988  0.00  0.00    +0.000 C 
BRANCH  19  23
ATOM     20  C   UNL     1       7.378   6.513  17.508  0.00  0.00    +0.000 A 
ATOM     21  N   UNL     1       7.395   6.391  16.198  0.00  0.00    +0.000 NA
ATOM     22  N   UNL     1       6.492   5.426  15.851  0.00  0.00    +0.000 NA
ATOM     23  C   UNL     1       5.930   4.960  16.950  0.00  0.00    +0.000 A 
ATOM     24  N   UNL     1       6.487   5.603  18.027  0.00  0.00    +0.000 N 
ATOM     25  C   UNL     1       6.214   5.410  19.426  0.00  0.00    +0.000 C 
BRANCH  20  27
ATOM     26  C   UNL     1       8.031   8.910  17.831  0.00  0.00    +0.000 C 
ATOM     27  C   UNL     1       8.162   7.479  18.329  0.00  0.00    +0.000 C 
ENDBRANCH  20  27
ENDBRANCH  19  23
ENDBRANCH  17  19
ENDBRANCH   1  17
TORSDOF 7
ENDMDL
MODEL 5
REMARK VINA RESULT:      -7.0      2.138      3.046
REMARK  Name = 
REMARK  13 active torsions:
REMARK  status: ('A' for Active; 'I' for Inactive)
REMARK    1  A    between atoms: C_1  and  C_2
REMARK    2  A    between atoms: C_2  and  C_3
REMARK    3  A    between atoms: C_6  and  C_7
REMARK    4  A    between atoms: C_7  and  N_8
REMARK    5  A    between atoms: N_8  and  C_9
REMARK    6  A    between atoms: C_11  and  N_12
REMARK    7  A    between atoms: C_13  and  O_15
REMARK    8  A    between atoms: O_15  and  C_16
REMARK    9  A    between atoms: C_16  and  C_17
REMARK   10  A    between atoms: C_16  and  C_18
REMARK   11  A    between atoms: C_16  and  C_19
REMARK   12  A    between atoms: C_22  and  C_23
REMARK   13  A    between atoms: N_24  and  C_25
REMARK                            x       y       z     vdW  Elec       q    Type
REMARK                         _______ _______ _______ _____ _____    ______ ____
ROOT
ATOM      1  C   UNL     1       4.221   4.830  19.423  0.00  0.00    +0.000 A 
ATOM      2  C   UNL     1       3.766   6.153  19.317  0.00  0.00    +0.000 A 
ATOM      3  C   UNL     1       2.527   6.595  19.802  0.00  0.00    +0.000 A 
ATOM      4  C   UNL     1       1.639   5.644  20.289  0.00  0.00    +0.000 A 
ATOM      5  C   UNL     1       2.026   4.298  20.330  0.00  0.00    +0.000 A 
ATOM      6  C   UNL     1       3.309   3.877  19.911  0.00  0.00    +0.000 A 
ATOM      7  C   UNL     1       3.643   2.414  20.005  0.00  0.00    +0.000 C 
ENDROOT
BRANCH   3   8
ATOM      8  N   UNL     1       2.172   7.973  19.831  0.00  0.00    +0.000 N 
ATOM      9  C   UNL     1       1.791   8.673  18.708  0.00  0.00    +0.000 C 
ATOM     10  O   UNL     1       1.718   8.199  17.579  0.00  0.00    +0.000 OA
ATOM     11  H   UNL     1       2.347   8.514  20.660  0.00  0.00    +0.000 HD
BRANCH   9  12
ATOM     12  O   UNL     1       1.532   9.993  18.960  0.00  0.00    +0.000 OA
BRANCH  12  13
ATOM     13  C   UNL     1       0.130  10.327  19.223  0.00  0.00    +0.000 C 
ATOM     14  C   UNL     1      -0.776   9.920  18.045  0.00  0.00    +0.000 C 
ATOM     15  C   UNL     1      -0.322   9.528  20.459  0.00  0.00    +0.000 C 
ATOM     16  C   UNL     1      -0.027  11.817  19.583  0.00  0.00    +0.000 C 
ENDBRANCH  12  13
ENDBRANCH   9  12
ENDBRANCH   3   8
BRANCH   1  17
ATOM     17  N   UNL     1       5.508   4.466  18.944  0.00  0.00    +0.000 N 
ATOM     18  H   UNL     1       6.077   4.112  19.708  0.00  0.00    +0.000 HD
BRANCH  17  19
ATOM     19  C   UNL     1       6.238   5.537  18.226  0.00  0.00    +0.000 C 
BRANCH  19  23
ATOM     20  C   UNL     1       6.405   4.538  14.712  0.00  0.00    +0.000 A 
ATOM     21  N   UNL     1       7.468   5.306  14.817  0.00  0.00    +0.000 NA
ATOM     22  N   UNL     1       7.536   5.763  16.103  0.00  0.00    +0.000 NA
ATOM     23  C   UNL     1       6.512   5.275  16.778  0.00  0.00    +0.000 A 
ATOM     24  N   UNL     1       5.753   4.516  15.923  0.00  0.00    +0.000 N 
ATOM     25  C   UNL     1       4.529   3.811  16.197  0.00  0.00    +0.000 C 
BRANCH  20  27
ATOM     26  C   UNL     1       6.897   3.965  12.323  0.00  0.00    +0.000 C 
ATOM     27  C   UNL     1       5.960   3.782  13.507  0.00  0.00    +0.000 C 
ENDBRANCH  20  27
ENDBRANCH  19  23
ENDBRANCH  17  19
ENDBRANCH   1  17
TORSDOF 7
ENDMDL
MODEL 6
REMARK VINA RESULT:      -6.9      1.415      1.701
REMARK  Name = 
REMARK  13 active torsions:
REMARK  status: ('A' for Active; 'I' for Inactive)
REMARK    1  A    between atoms: C_1  and  C_2
REMARK    2  A    between atoms: C_2  and  C_3
REMARK    3  A    between atoms: C_6  and  C_7
REMARK    4  A    between atoms: C_7  and  N_8
REMARK    5  A    between atoms: N_8  and  C_9
REMARK    6  A    between atoms: C_11  and  N_12
REMARK    7  A    between atoms: C_13  and  O_15
REMARK    8  A    between atoms: O_15  and  C_16
REMARK    9  A    between atoms: C_16  and  C_17
REMARK   10  A    between atoms: C_16  and  C_18
REMARK   11  A    between atoms: C_16  and  C_19
REMARK   12  A    between atoms: C_22  and  C_23
REMARK   13  A    between atoms: N_24  and  C_25
REMARK                            x       y       z     vdW  Elec       q    Type
REMARK                         _______ _______ _______ _____ _____    ______ ____
ROOT
ATOM      1  C   UNL     1       2.604   4.432  18.513  0.00  0.00    +0.000 A 
ATOM      2  C   UNL     1       2.491   5.807  18.773  0.00  0.00    +0.000 A 
ATOM      3  C   UNL     1       2.020   6.337  19.983  0.00  0.00    +0.000 A 
ATOM      4  C   UNL     1       1.501   5.456  20.924  0.00  0.00    +0.000 A 
ATOM      5  C   UNL     1       1.517   4.080  20.662  0.00  0.00    +0.000 A 
ATOM      6  C   UNL     1       2.069   3.553  19.472  0.00  0.00    +0.000 A 
ATOM      7  C   UNL     1       2.057   2.062  19.281  0.00  0.00    +0.000 C 
ENDROOT
BRANCH   3   8
ATOM      8  N   UNL     1       2.080   7.729  20.276  0.00  0.00    +0.000 N 
ATOM      9  C   UNL     1       1.049   8.412  20.881  0.00  0.00    +0.000 C 
ATOM     10  O   UNL     1      -0.016   7.911  21.227  0.00  0.00    +0.000 OA
ATOM     11  H   UNL     1       2.826   8.284  19.897  0.00  0.00    +0.000 HD
BRANCH   9  12
ATOM     12  O   UNL     1       1.306   9.748  21.031  0.00  0.00    +0.000 OA
BRANCH  12  13
ATOM     13  C   UNL     1       0.863  10.608  19.931  0.00  0.00    +0.000 C 
ATOM     14  C   UNL     1       1.350  10.076  18.569  0.00  0.00    +0.000 C 
ATOM     15  C   UNL     1      -0.676  10.599  19.914  0.00  0.00    +0.000 C 
ATOM     16  C   UNL     1       1.290  12.071  20.164  0.00  0.00    +0.000 C 
ENDBRANCH  12  13
ENDBRANCH   9  12
ENDBRANCH   3   8
BRANCH   1  17
ATOM     17  N   UNL     1       3.131   3.971  17.277  0.00  0.00    +0.000 N 
ATOM     18  H   UNL     1       2.557   3.217  16.912  0.00  0.00    +0.000 HD
BRANCH  17  19
ATOM     19  C   UNL     1       4.552   3.550  17.316  0.00  0.00    +0.000 C 
BRANCH  19  23
ATOM     20  C   UNL     1       6.832   6.375  17.755  0.00  0.00    +0.000 A 
ATOM     21  N   UNL     1       6.989   5.732  18.892  0.00  0.00    +0.000 NA
ATOM     22  N   UNL     1       6.180   4.630  18.872  0.00  0.00    +0.000 NA
ATOM     23  C   UNL     1       5.530   4.607  17.724  0.00  0.00    +0.000 A 
ATOM     24  N   UNL     1       5.892   5.713  16.998  0.00  0.00    +0.000 N 
ATOM     25  C   UNL     1       5.425   6.128  15.703  0.00  0.00    +0.000 C 
BRANCH  20  27
ATOM     26  C   UNL     1       8.353   8.246  18.433  0.00  0.00    +0.000 C 
ATOM     27  C   UNL     1       7.549   7.604  17.313  0.00  0.00    +0.000 C 
ENDBRANCH  20  27
ENDBRANCH  19  23
ENDBRANCH  17  19
ENDBRANCH   1  17
TORSDOF 7
ENDMDL
MODEL 7
REMARK VINA RESULT:      -6.9      0.736      1.549
REMARK  Name = 
REMARK  13 active torsions:
REMARK  status: ('A' for Active; 'I' for Inactive)
REMARK    1  A    between atoms: C_1  and  C_2
REMARK    2  A    between atoms: C_2  and  C_3
REMARK    3  A    between atoms: C_6  and  C_7
REMARK    4  A    between atoms: C_7  and  N_8
REMARK    5  A    between atoms: N_8  and  C_9
REMARK    6  A    between atoms: C_11  and  N_12
REMARK    7  A    between atoms: C_13  and  O_15
REMARK    8  A    between atoms: O_15  and  C_16
REMARK    9  A    between atoms: C_16  and  C_17
REMARK   10  A    between atoms: C_16  and  C_18
REMARK   11  A    between atoms: C_16  and  C_19
REMARK   12  A    between atoms: C_22  and  C_23
REMARK   13  A    between atoms: N_24  and  C_25
REMARK                            x       y       z     vdW  Elec       q    Type
REMARK                         _______ _______ _______ _____ _____    ______ ____
ROOT
ATOM      1  C   UNL     1       3.658   4.030  19.204  0.00  0.00    +0.000 A 
ATOM      2  C   UNL     1       3.322   5.314  19.662  0.00  0.00    +0.000 A 
ATOM      3  C   UNL     1       2.108   5.627  20.290  0.00  0.00    +0.000 A 
ATOM      4  C   UNL     1       1.124   4.647  20.334  0.00  0.00    +0.000 A 
ATOM      5  C   UNL     1       1.393   3.377  19.808  0.00  0.00    +0.000 A 
ATOM      6  C   UNL     1       2.650   3.051  19.250  0.00  0.00    +0.000 A 
ATOM      7  C   UNL     1       2.853   1.658  18.721  0.00  0.00    +0.000 C 
ENDROOT
BRANCH   3   8
ATOM      8  N   UNL     1       1.871   6.894  20.894  0.00  0.00    +0.000 N 
ATOM      9  C   UNL     1       1.866   8.074  20.183  0.00  0.00    +0.000 C 
ATOM     10  O   UNL     1       2.062   8.165  18.975  0.00  0.00    +0.000 OA
ATOM     11  H   UNL     1       1.860   6.972  21.895  0.00  0.00    +0.000 HD
BRANCH   9  12
ATOM     12  O   UNL     1       1.656   9.173  20.970  0.00  0.00    +0.000 OA
BRANCH  12  13
ATOM     13  C   UNL     1       0.261   9.594  21.116  0.00  0.00    +0.000 C 
ATOM     14  C   UNL     1      -0.537   8.604  21.986  0.00  0.00    +0.000 C 
ATOM     15  C   UNL     1       0.251  10.958  21.830  0.00  0.00    +0.000 C 
ATOM     16  C   UNL     1      -0.399   9.814  19.741  0.00  0.00    +0.000 C 
ENDBRANCH  12  13
ENDBRANCH   9  12
ENDBRANCH   3   8
BRANCH   1  17
ATOM     17  N   UNL     1       4.926   3.781  18.614  0.00  0.00    +0.000 N 
ATOM     18  H   UNL     1       5.667   4.068  19.247  0.00  0.00    +0.000 HD
BRANCH  17  19
ATOM     19  C   UNL     1       5.134   4.396  17.282  0.00  0.00    +0.000 C 
BRANCH  19  23
ATOM     20  C   UNL     1       7.522   7.118  17.788  0.00  0.00    +0.000 A 
ATOM     21  N   UNL     1       7.161   7.315  16.538  0.00  0.00    +0.000 NA
ATOM     22  N   UNL     1       6.252   6.351  16.203  0.00  0.00    +0.000 NA
ATOM     23  C   UNL     1       6.065   5.567  17.248  0.00  0.00    +0.000 A 
ATOM     24  N   UNL     1       6.875   6.002  18.266  0.00  0.00    +0.000 N 
ATOM     25  C   UNL     1       7.035   5.447  19.583  0.00  0.00    +0.000 C 
BRANCH  20  27
ATOM     26  C   UNL     1       8.389   9.428  18.224  0.00  0.00    +0.000 C 
ATOM     27  C   UNL     1       8.456   7.954  18.595  0.00  0.00    +0.000 C 
ENDBRANCH  20  27
ENDBRANCH  19  23
ENDBRANCH  17  19
ENDBRANCH   1  17
TORSDOF 7
ENDMDL
MODEL 8
REMARK VINA RESULT:      -6.9      2.199      3.060
REMARK  Name = 
REMARK  13 active torsions:
REMARK  status: ('A' for Active; 'I' for Inactive)
REMARK    1  A    between atoms: C_1  and  C_2
REMARK    2  A    between atoms: C_2  and  C_3
REMARK    3  A    between atoms: C_6  and  C_7
REMARK    4  A    between atoms: C_7  and  N_8
REMARK    5  A    between atoms: N_8  and  C_9
REMARK    6  A    between atoms: C_11  and  N_12
REMARK    7  A    between atoms: C_13  and  O_15
REMARK    8  A    between atoms: O_15  and  C_16
REMARK    9  A    between atoms: C_16  and  C_17
REMARK   10  A    between atoms: C_16  and  C_18
REMARK   11  A    between atoms: C_16  and  C_19
REMARK   12  A    between atoms: C_22  and  C_23
REMARK   13  A    between atoms: N_24  and  C_25
REMARK                            x       y       z     vdW  Elec       q    Type
REMARK                         _______ _______ _______ _____ _____    ______ ____
ROOT
ATOM      1  C   UNL     1       2.369   5.385  18.346  0.00  0.00    +0.000 A 
ATOM      2  C   UNL     1       2.389   6.763  18.082  0.00  0.00    +0.000 A 
ATOM      3  C   UNL     1       2.200   7.749  19.061  0.00  0.00    +0.000 A 
ATOM      4  C   UNL     1       1.830   7.340  20.337  0.00  0.00    +0.000 A 
ATOM      5  C   UNL     1       1.715   5.972  20.615  0.00  0.00    +0.000 A 
ATOM      6  C   UNL     1       1.987   4.986  19.639  0.00  0.00    +0.000 A 
ATOM      7  C   UNL     1       1.851   3.541  20.031  0.00  0.00    +0.000 C 
ENDROOT
BRANCH   3   8
ATOM      8  N   UNL     1       2.397   9.133  18.793  0.00  0.00    +0.000 N 
ATOM      9  C   UNL     1       1.396   9.956  18.326  0.00  0.00    +0.000 C 
ATOM     10  O   UNL     1       0.246   9.597  18.092  0.00  0.00    +0.000 OA
ATOM     11  H   UNL     1       3.328   9.510  18.787  0.00  0.00    +0.000 HD
BRANCH   9  12
ATOM     12  O   UNL     1       1.817  11.238  18.100  0.00  0.00    +0.000 OA
BRANCH  12  13
ATOM     13  C   UNL     1       1.345  12.240  19.058  0.00  0.00    +0.000 C 
ATOM     14  C   UNL     1       1.054  11.610  20.434  0.00  0.00    +0.000 C 
ATOM     15  C   UNL     1       2.465  13.279  19.247  0.00  0.00    +0.000 C 
ATOM     16  C   UNL     1       0.126  13.006  18.506  0.00  0.00    +0.000 C 
ENDBRANCH  12  13
ENDBRANCH   9  12
ENDBRANCH   3   8
BRANCH   1  17
ATOM     17  N   UNL     1       2.612   4.446  17.307  0.00  0.00    +0.000 N 
ATOM     18  H   UNL     1       1.938   3.689  17.357  0.00  0.00    +0.000 HD
BRANCH  17  19
ATOM     19  C   UNL     1       3.987   3.896  17.264  0.00  0.00    +0.000 C 
BRANCH  19  23
ATOM     20  C   UNL     1       6.745   6.295  17.365  0.00  0.00    +0.000 A 
ATOM     21  N   UNL     1       6.420   6.322  16.090  0.00  0.00    +0.000 NA
ATOM     22  N   UNL     1       5.382   5.454  15.899  0.00  0.00    +0.000 NA
ATOM     23  C   UNL     1       5.080   4.898  17.057  0.00  0.00    +0.000 A 
ATOM     24  N   UNL     1       5.941   5.382  18.008  0.00  0.00    +0.000 N 
ATOM     25  C   UNL     1       6.015   5.046  19.404  0.00  0.00    +0.000 C 
BRANCH  20  27
ATOM     26  C   UNL     1       7.746   8.577  17.622  0.00  0.00    +0.000 C 
ATOM     27  C   UNL     1       7.788   7.116  18.042  0.00  0.00    +0.000 C 
ENDBRANCH  20  27
ENDBRANCH  19  23
ENDBRANCH  17  19
ENDBRANCH   1  17
TORSDOF 7
ENDMDL
MODEL 9
REMARK VINA RESULT:      -6.9      2.840      5.068
REMARK  Name = 
REMARK  13 active torsions:
REMARK  status: ('A' for Active; 'I' for Inactive)
REMARK    1  A    between atoms: C_1  and  C_2
REMARK    2  A    between atoms: C_2  and  C_3
REMARK    3  A    between atoms: C_6  and  C_7
REMARK    4  A    between atoms: C_7  and  N_8
REMARK    5  A    between atoms: N_8  and  C_9
REMARK    6  A    between atoms: C_11  and  N_12
REMARK    7  A    between atoms: C_13  and  O_15
REMARK    8  A    between atoms: O_15  and  C_16
REMARK    9  A    between atoms: C_16  and  C_17
REMARK   10  A    between atoms: C_16  and  C_18
REMARK   11  A    between atoms: C_16  and  C_19
REMARK   12  A    between atoms: C_22  and  C_23
REMARK   13  A    between atoms: N_24  and  C_25
REMARK                            x       y       z     vdW  Elec       q    Type
REMARK                         _______ _______ _______ _____ _____    ______ ____
ROOT
ATOM      1  C   UNL     1       1.878   7.769  20.026  0.00  0.00    +0.000 A 
ATOM      2  C   UNL     1       1.070   8.372  21.004  0.00  0.00    +0.000 A 
ATOM      3  C   UNL     1       0.221   9.460  20.754  0.00  0.00    +0.000 A 
ATOM      4  C   UNL     1       0.287  10.067  19.505  0.00  0.00    +0.000 A 
ATOM      5  C   UNL     1       1.147   9.545  18.531  0.00  0.00    +0.000 A 
ATOM      6  C   UNL     1       1.939   8.398  18.770  0.00  0.00    +0.000 A 
ATOM      7  C   UNL     1       2.823   7.900  17.660  0.00  0.00    +0.000 C 
ENDROOT
BRANCH   3   8
ATOM      8  N   UNL     1      -0.709   9.935  21.722  0.00  0.00    +0.000 N 
ATOM      9  C   UNL     1      -0.577  11.152  22.352  0.00  0.00    +0.000 C 
ATOM     10  O   UNL     1       0.335  11.947  22.156  0.00  0.00    +0.000 OA
ATOM     11  H   UNL     1      -1.405   9.311  22.088  0.00  0.00    +0.000 HD
BRANCH   9  12
ATOM     12  O   UNL     1      -1.562  11.388  23.273  0.00  0.00    +0.000 OA
BRANCH  12  13
ATOM     13  C   UNL     1      -2.391  12.570  23.029  0.00  0.00    +0.000 C 
ATOM     14  C   UNL     1      -2.805  12.671  21.548  0.00  0.00    +0.000 C 
ATOM     15  C   UNL     1      -3.676  12.428  23.865  0.00  0.00    +0.000 C 
ATOM     16  C   UNL     1      -1.689  13.852  23.519  0.00  0.00    +0.000 C 
ENDBRANCH  12  13
ENDBRANCH   9  12
ENDBRANCH   3   8
BRANCH   1  17
ATOM     17  N   UNL     1       2.681   6.642  20.347  0.00  0.00    +0.000 N 
ATOM     18  H   UNL     1       3.577   6.707  19.872  0.00  0.00    +0.000 HD
BRANCH  17  19
ATOM     19  C   UNL     1       2.058   5.326  20.072  0.00  0.00    +0.000 C 
BRANCH  19  23
ATOM     20  C   UNL     1       3.782   3.815  17.223  0.00  0.00    +0.000 A 
ATOM     21  N   UNL     1       2.529   3.511  16.963  0.00  0.00    +0.000 NA
ATOM     22  N   UNL     1       1.752   4.020  17.965  0.00  0.00    +0.000 NA
ATOM     23  C   UNL     1       2.534   4.630  18.835  0.00  0.00    +0.000 A 
ATOM     24  N   UNL     1       3.834   4.498  18.416  0.00  0.00    +0.000 N 
ATOM     25  C   UNL     1       5.033   4.972  19.053  0.00  0.00    +0.000 C 
BRANCH  20  27
ATOM     26  C   UNL     1       5.320   4.644  15.427  0.00  0.00    +0.000 C 
ATOM     27  C   UNL     1       4.973   3.511  16.380  0.00  0.00    +0.000 C 
ENDBRANCH  20  27
ENDBRANCH  19  23
ENDBRANCH  17  19
ENDBRANCH   1  17
TORSDOF 7
ENDMDL
