MODEL 1
REMARK VINA RESULT:      -7.5      0.000      0.000
REMARK  Name = 
REMARK  4 active torsions:
REMARK  status: ('A' for Active; 'I' for Inactive)
REMARK    1  A    between atoms: C_1  and  N_2
REMARK    2  A    between atoms: C_5  and  C_7
REMARK    3  A    between atoms: C_7  and  N_8
REMARK    4  A    between atoms: C_9  and  C_11
REMARK                            x       y       z     vdW  Elec       q    Type
REMARK                         _______ _______ _______ _____ _____    ______ ____
ROOT
ATOM      1  C   UNL     1       4.132   6.720  17.447  0.00  0.00    +0.000 C 
ATOM      2  N   UNL     1       4.007   5.336  17.832  0.00  0.00    +0.000 N 
ATOM      3  C   UNL     1       4.375   4.219  17.115  0.00  0.00    +0.000 A 
ATOM      4  N   UNL     1       5.047   4.181  15.922  0.00  0.00    +0.000 N 
ATOM      5  C   UNL     1       6.260   4.816  15.755  0.00  0.00    +0.000 C 
ATOM      6  O   UNL     1       6.756   5.640  16.522  0.00  0.00    +0.000 OA
ATOM      7  N   UNL     1       3.900   3.124  17.665  0.00  0.00    +0.000 NA
ATOM      8  C   UNL     1       3.283   3.523  18.820  0.00  0.00    +0.000 A 
ATOM      9  C   UNL     1       2.665   2.743  19.807  0.00  0.00    +0.000 A 
ATOM     10  C   UNL     1       2.031   3.401  20.862  0.00  0.00    +0.000 A 
ATOM     11 CL   UNL     1       1.247   2.471  22.084  0.00  0.00    +0.000 Cl
ATOM     12  C   UNL     1       2.009   4.795  20.943  0.00  0.00    +0.000 A 
ATOM     13  C   UNL     1       2.649   5.584  19.980  0.00  0.00    +0.000 A 
ATOM     14  C   UNL     1       3.292   4.908  18.935  0.00  0.00    +0.000 A 
ATOM     15  H   UNL     1       4.895   3.325  15.401  0.00  0.00    +0.000 HD
ENDROOT
BRANCH   5  16
ATOM     16  C   UNL     1       6.929   4.465  14.421  0.00  0.00    +0.000 C 
BRANCH  16  17
ATOM     17  N   UNL     1       5.952   3.852  13.545  0.00  0.00    +0.000 N 
ATOM     18  C   UNL     1       6.237   3.644  12.221  0.00  0.00    +0.000 C 
ATOM     19  O   UNL     1       7.253   4.043  11.667  0.00  0.00    +0.000 OA
ATOM     20  H   UNL     1       5.147   3.406  13.962  0.00  0.00    +0.000 HD
BRANCH  18  21
ATOM     21  C   UNL     1       5.190   2.880  11.489  0.00  0.00    +0.000 C 
ATOM     22  C   UNL     1       3.737   3.103  11.835  0.00  0.00    +0.000 C 
ATOM     23  C   UNL     1       4.268   3.567  10.509  0.00  0.00    +0.000 C 
ENDBRANCH  18  21
ENDBRANCH  16  17
ENDBRANCH   5  16
TORSDOF 3
ENDMDL
MODEL 2
REMARK VINA RESULT:      -7.2      0.714      1.054
REMARK  Name = 
REMARK  4 active torsions:
REMARK  status: ('A' for Active; 'I' for Inactive)
REMARK    1  A    between atoms: C_1  and  N_2
REMARK    2  A    between atoms: C_5  and  C_7
REMARK    3  A    between atoms: C_7  and  N_8
REMARK    4  A    between atoms: C_9  and  C_11
REMARK                            x       y       z     vdW  Elec       q    Type
REMARK                         _______ _______ _______ _____ _____    ______ ____
ROOT
ATOM      1  C   UNL     1       4.096   6.788  17.309  0.00  0.00    +0.000 C 
ATOM      2  N   UNL     1       4.024   5.406  17.716  0.00  0.00    +0.000 N 
ATOM      3  C   UNL     1       4.470   4.296  17.033  0.00  0.00    +0.000 A 
ATOM      4  N   UNL     1       5.185   4.271  15.864  0.00  0.00    +0.000 N 
ATOM      5  C   UNL     1       6.371   4.961  15.727  0.00  0.00    +0.000 C 
ATOM      6  O   UNL     1       6.800   5.821  16.496  0.00  0.00    +0.000 OA
ATOM      7  N   UNL     1       4.029   3.190  17.587  0.00  0.00    +0.000 NA
ATOM      8  C   UNL     1       3.354   3.577  18.712  0.00  0.00    +0.000 A 
ATOM      9  C   UNL     1       2.739   2.786  19.692  0.00  0.00    +0.000 A 
ATOM     10  C   UNL     1       2.037   3.429  20.712  0.00  0.00    +0.000 A 
ATOM     11 CL   UNL     1       1.257   2.484  21.924  0.00  0.00    +0.000 Cl
ATOM     12  C   UNL     1       1.946   4.822  20.766  0.00  0.00    +0.000 A 
ATOM     13  C   UNL     1       2.580   5.625  19.811  0.00  0.00    +0.000 A 
ATOM     14  C   UNL     1       3.292   4.963  18.801  0.00  0.00    +0.000 A 
ATOM     15  H   UNL     1       5.093   3.400  15.355  0.00  0.00    +0.000 HD
ENDROOT
BRANCH   5  16
ATOM     16  C   UNL     1       7.103   4.620  14.424  0.00  0.00    +0.000 C 
BRANCH  16  17
ATOM     17  N   UNL     1       6.310   3.675  13.666  0.00  0.00    +0.000 N 
ATOM     18  C   UNL     1       6.522   3.507  12.323  0.00  0.00    +0.000 C 
ATOM     19  O   UNL     1       7.289   4.191  11.658  0.00  0.00    +0.000 OA
ATOM     20  H   UNL     1       5.744   3.008  14.173  0.00  0.00    +0.000 HD
BRANCH  18  21
ATOM     21  C   UNL     1       5.727   2.403  11.718  0.00  0.00    +0.000 C 
ATOM     22  C   UNL     1       6.224   1.742  10.455  0.00  0.00    +0.000 C 
ATOM     23  C   UNL     1       6.225   0.978  11.748  0.00  0.00    +0.000 C 
ENDBRANCH  18  21
ENDBRANCH  16  17
ENDBRANCH   5  16
TORSDOF 3
ENDMDL
MODEL 3
REMARK VINA RESULT:      -7.2      4.208      6.417
REMARK  Name = 
REMARK  4 active torsions:
REMARK  status: ('A' for Active; 'I' for Inactive)
REMARK    1  A    between atoms: C_1  and  N_2
REMARK    2  A    between atoms: C_5  and  C_7
REMARK    3  A    between atoms: C_7  and  N_8
REMARK    4  A    between atoms: C_9  and  C_11
REMARK                            x       y       z     vdW  Elec       q    Type
REMARK                         _______ _______ _______ _____ _____    ______ ____
ROOT
ATOM      1  C   UNL     1       6.034   4.656  16.193  0.00  0.00    +0.000 C 
ATOM      2  N   UNL     1       5.343   4.852  17.444  0.00  0.00    +0.000 N 
ATOM      3  C   UNL     1       5.797   5.496  18.574  0.00  0.00    +0.000 A 
ATOM      4  N   UNL     1       6.967   6.195  18.718  0.00  0.00    +0.000 N 
ATOM      5  C   UNL     1       7.302   7.227  17.867  0.00  0.00    +0.000 C 
ATOM      6  O   UNL     1       6.753   7.490  16.798  0.00  0.00    +0.000 OA
ATOM      7  N   UNL     1       5.001   5.277  19.596  0.00  0.00    +0.000 NA
ATOM      8  C   UNL     1       3.953   4.548  19.106  0.00  0.00    +0.000 A 
ATOM      9  C   UNL     1       2.800   4.102  19.766  0.00  0.00    +0.000 A 
ATOM     10  C   UNL     1       1.906   3.298  19.058  0.00  0.00    +0.000 A 
ATOM     11 CL   UNL     1       0.487   2.719  19.846  0.00  0.00    +0.000 Cl
ATOM     12  C   UNL     1       2.143   2.943  17.728  0.00  0.00    +0.000 A 
ATOM     13  C   UNL     1       3.275   3.407  17.047  0.00  0.00    +0.000 A 
ATOM     14  C   UNL     1       4.155   4.225  17.769  0.00  0.00    +0.000 A 
ATOM     15  H   UNL     1       7.275   6.266  19.680  0.00  0.00    +0.000 HD
ENDROOT
BRANCH   5  16
ATOM     16  C   UNL     1       8.537   8.002  18.341  0.00  0.00    +0.000 C 
BRANCH  16  17
ATOM     17  N   UNL     1       8.417   9.386  17.930  0.00  0.00    +0.000 N 
ATOM     18  C   UNL     1       8.998  10.384  18.668  0.00  0.00    +0.000 C 
ATOM     19  O   UNL     1       9.547  10.209  19.747  0.00  0.00    +0.000 OA
ATOM     20  H   UNL     1       8.074   9.583  17.000  0.00  0.00    +0.000 HD
BRANCH  18  21
ATOM     21  C   UNL     1       8.905  11.732  18.042  0.00  0.00    +0.000 C 
ATOM     22  C   UNL     1       9.451  12.929  18.783  0.00  0.00    +0.000 C 
ATOM     23  C   UNL     1      10.139  12.443  17.539  0.00  0.00    +0.000 C 
ENDBRANCH  18  21
ENDBRANCH  16  17
ENDBRANCH   5  16
TORSDOF 3
ENDMDL
MODEL 4
REMARK VINA RESULT:      -7.0      4.707      6.875
REMARK  Name = 
REMARK  4 active torsions:
REMARK  status: ('A' for Active; 'I' for Inactive)
REMARK    1  A    between atoms: C_1  and  N_2
REMARK    2  A    between atoms: C_5  and  C_7
REMARK    3  A    between atoms: C_7  and  N_8
REMARK    4  A    between atoms: C_9  and  C_11
REMARK                            x       y       z     vdW  Elec       q    Type
REMARK                         _______ _______ _______ _____ _____    ______ ____
ROOT
ATOM      1  C   UNL     1       6.844   5.353  16.038  0.00  0.00    +0.000 C 
ATOM      2  N   UNL     1       6.231   5.214  17.336  0.00  0.00    +0.000 N 
ATOM      3  C   UNL     1       6.659   5.734  18.537  0.00  0.00    +0.000 A 
ATOM      4  N   UNL     1       7.703   6.597  18.744  0.00  0.00    +0.000 N 
ATOM      5  C   UNL     1       7.793   7.798  18.072  0.00  0.00    +0.000 C 
ATOM      6  O   UNL     1       7.124   8.131  17.094  0.00  0.00    +0.000 OA
ATOM      7  N   UNL     1       5.996   5.212  19.544  0.00  0.00    +0.000 NA
ATOM      8  C   UNL     1       5.048   4.398  18.986  0.00  0.00    +0.000 A 
ATOM      9  C   UNL     1       4.043   3.651  19.614  0.00  0.00    +0.000 A 
ATOM     10  C   UNL     1       3.242   2.828  18.821  0.00  0.00    +0.000 A 
ATOM     11 CL   UNL     1       2.007   1.884  19.565  0.00  0.00    +0.000 Cl
ATOM     12  C   UNL     1       3.428   2.745  17.439  0.00  0.00    +0.000 A 
ATOM     13  C   UNL     1       4.409   3.508  16.795  0.00  0.00    +0.000 A 
ATOM     14  C   UNL     1       5.194   4.340  17.605  0.00  0.00    +0.000 A 
ATOM     15  H   UNL     1       8.072   6.564  19.687  0.00  0.00    +0.000 HD
ENDROOT
BRANCH   5  16
ATOM     16  C   UNL     1       8.915   8.692  18.612  0.00  0.00    +0.000 C 
BRANCH  16  17
ATOM     17  N   UNL     1       8.748  10.033  18.089  0.00  0.00    +0.000 N 
ATOM     18  C   UNL     1       9.413  11.089  18.656  0.00  0.00    +0.000 C 
ATOM     19  O   UNL     1      10.084  11.010  19.676  0.00  0.00    +0.000 OA
ATOM     20  H   UNL     1       8.300  10.145  17.190  0.00  0.00    +0.000 HD
BRANCH  18  21
ATOM     21  C   UNL     1       9.248  12.373  17.920  0.00  0.00    +0.000 C 
ATOM     22  C   UNL     1       9.784  13.646  18.528  0.00  0.00    +0.000 C 
ATOM     23  C   UNL     1      10.435  13.073  17.302  0.00  0.00    +0.000 C 
ENDBRANCH  18  21
ENDBRANCH  16  17
ENDBRANCH   5  16
TORSDOF 3
ENDMDL
MODEL 5
REMARK VINA RESULT:      -6.9      2.758      3.650
REMARK  Name = 
REMARK  4 active torsions:
REMARK  status: ('A' for Active; 'I' for Inactive)
REMARK    1  A    between atoms: C_1  and  N_2
REMARK    2  A    between atoms: C_5  and  C_7
REMARK    3  A    between atoms: C_7  and  N_8
REMARK    4  A    between atoms: C_9  and  C_11
REMARK                            x       y       z     vdW  Elec       q    Type
REMARK                         _______ _______ _______ _____ _____    ______ ____
ROOT
ATOM      1  C   UNL     1       3.925   4.938  19.690  0.00  0.00    +0.000 C 
ATOM      2  N   UNL     1       3.678   6.012  18.759  0.00  0.00    +0.000 N 
ATOM      3  C   UNL     1       4.382   6.324  17.617  0.00  0.00    +0.000 A 
ATOM      4  N   UNL     1       5.406   5.612  17.051  0.00  0.00    +0.000 N 
ATOM      5  C   UNL     1       5.266   4.278  16.726  0.00  0.00    +0.000 C 
ATOM      6  O   UNL     1       4.353   3.539  17.088  0.00  0.00    +0.000 OA
ATOM      7  N   UNL     1       4.026   7.498  17.147  0.00  0.00    +0.000 NA
ATOM      8  C   UNL     1       3.001   7.927  17.946  0.00  0.00    +0.000 A 
ATOM      9  C   UNL     1       2.227   9.091  17.843  0.00  0.00    +0.000 A 
ATOM     10  C   UNL     1       1.283   9.342  18.841  0.00  0.00    +0.000 A 
ATOM     11 CL   UNL     1       0.326  10.773  18.752  0.00  0.00    +0.000 Cl
ATOM     12  C   UNL     1       1.106   8.465  19.913  0.00  0.00    +0.000 A 
ATOM     13  C   UNL     1       1.852   7.285  20.011  0.00  0.00    +0.000 A 
ATOM     14  C   UNL     1       2.785   7.040  18.995  0.00  0.00    +0.000 A 
ATOM     15  H   UNL     1       6.008   6.173  16.461  0.00  0.00    +0.000 HD
ENDROOT
BRANCH   5  16
ATOM     16  C   UNL     1       6.451   3.744  15.914  0.00  0.00    +0.000 C 
BRANCH  16  17
ATOM     17  N   UNL     1       6.031   3.531  14.544  0.00  0.00    +0.000 N 
ATOM     18  C   UNL     1       6.569   4.275  13.526  0.00  0.00    +0.000 C 
ATOM     19  O   UNL     1       7.332   5.216  13.694  0.00  0.00    +0.000 OA
ATOM     20  H   UNL     1       5.492   2.702  14.330  0.00  0.00    +0.000 HD
BRANCH  18  21
ATOM     21  C   UNL     1       6.141   3.842  12.168  0.00  0.00    +0.000 C 
ATOM     22  C   UNL     1       5.752   2.400  11.941  0.00  0.00    +0.000 C 
ATOM     23  C   UNL     1       4.703   3.474  11.886  0.00  0.00    +0.000 C 
ENDBRANCH  18  21
ENDBRANCH  16  17
ENDBRANCH   5  16
TORSDOF 3
ENDMDL
MODEL 6
REMARK VINA RESULT:      -6.8      3.644      5.191
REMARK  Name = 
REMARK  4 active torsions:
REMARK  status: ('A' for Active; 'I' for Inactive)
REMARK    1  A    between atoms: C_1  and  N_2
REMARK    2  A    between atoms: C_5  and  C_7
REMARK    3  A    between atoms: C_7  and  N_8
REMARK    4  A    between atoms: C_9  and  C_11
REMARK                            x       y       z     vdW  Elec       q    Type
REMARK                         _______ _______ _______ _____ _____    ______ ____
ROOT
ATOM      1  C   UNL     1       2.650   7.961  17.799  0.00  0.00    +0.000 C 
ATOM      2  N   UNL     1       2.194   7.807  19.159  0.00  0.00    +0.000 N 
ATOM      3  C   UNL     1       2.232   6.676  19.944  0.00  0.00    +0.000 A 
ATOM      4  N   UNL     1       2.817   5.474  19.644  0.00  0.00    +0.000 N 
ATOM      5  C   UNL     1       4.143   5.389  19.273  0.00  0.00    +0.000 C 
ATOM      6  O   UNL     1       4.867   6.331  18.956  0.00  0.00    +0.000 OA
ATOM      7  N   UNL     1       1.519   6.834  21.037  0.00  0.00    +0.000 NA
ATOM      8  C   UNL     1       1.077   8.129  21.013  0.00  0.00    +0.000 A 
ATOM      9  C   UNL     1       0.327   8.825  21.969  0.00  0.00    +0.000 A 
ATOM     10  C   UNL     1      -0.070  10.130  21.671  0.00  0.00    +0.000 A 
ATOM     11 CL   UNL     1      -1.008  11.008  22.820  0.00  0.00    +0.000 Cl
ATOM     12  C   UNL     1       0.268  10.734  20.458  0.00  0.00    +0.000 A 
ATOM     13  C   UNL     1       1.043  10.060  19.507  0.00  0.00    +0.000 A 
ATOM     14  C   UNL     1       1.445   8.756  19.828  0.00  0.00    +0.000 A 
ATOM     15  H   UNL     1       2.428   4.697  20.164  0.00  0.00    +0.000 HD
ENDROOT
BRANCH   5  16
ATOM     16  C   UNL     1       4.639   3.940  19.195  0.00  0.00    +0.000 C 
BRANCH  16  17
ATOM     17  N   UNL     1       5.491   3.791  18.033  0.00  0.00    +0.000 N 
ATOM     18  C   UNL     1       4.953   3.773  16.772  0.00  0.00    +0.000 C 
ATOM     19  O   UNL     1       3.751   3.768  16.539  0.00  0.00    +0.000 OA
ATOM     20  H   UNL     1       6.489   3.901  18.152  0.00  0.00    +0.000 HD
BRANCH  18  21
ATOM     21  C   UNL     1       5.966   3.755  15.682  0.00  0.00    +0.000 C 
ATOM     22  C   UNL     1       5.600   4.306  14.325  0.00  0.00    +0.000 C 
ATOM     23  C   UNL     1       6.594   5.035  15.182  0.00  0.00    +0.000 C 
ENDBRANCH  18  21
ENDBRANCH  16  17
ENDBRANCH   5  16
TORSDOF 3
ENDMDL
MODEL 7
REMARK VINA RESULT:      -6.8      4.463      6.385
REMARK  Name = 
REMARK  4 active torsions:
REMARK  status: ('A' for Active; 'I' for Inactive)
REMARK    1  A    between atoms: C_1  and  N_2
REMARK    2  A    between atoms: C_5  and  C_7
REMARK    3  A    between atoms: C_7  and  N_8
REMARK    4  A    between atoms: C_9  and  C_11
REMARK                            x       y       z     vdW  Elec       q    Type
REMARK                         _______ _______ _______ _____ _____    ______ ____
ROOT
ATOM      1  C   UNL     1       1.858   6.730  20.794  0.00  0.00    +0.000 C 
ATOM      2  N   UNL     1       1.800   7.663  19.695  0.00  0.00    +0.000 N 
ATOM      3  C   UNL     1       2.482   7.609  18.499  0.00  0.00    +0.000 A 
ATOM      4  N   UNL     1       3.280   6.594  18.042  0.00  0.00    +0.000 N 
ATOM      5  C   UNL     1       2.822   5.295  17.960  0.00  0.00    +0.000 C 
ATOM      6  O   UNL     1       1.790   4.860  18.469  0.00  0.00    +0.000 OA
ATOM      7  N   UNL     1       2.371   8.740  17.839  0.00  0.00    +0.000 NA
ATOM      8  C   UNL     1       1.523   9.522  18.575  0.00  0.00    +0.000 A 
ATOM      9  C   UNL     1       1.027  10.801  18.289  0.00  0.00    +0.000 A 
ATOM     10  C   UNL     1       0.231  11.427  19.249  0.00  0.00    +0.000 A 
ATOM     11 CL   UNL     1      -0.382  13.007  18.934  0.00  0.00    +0.000 Cl
ATOM     12  C   UNL     1      -0.070  10.806  20.463  0.00  0.00    +0.000 A 
ATOM     13  C   UNL     1       0.394   9.516  20.748  0.00  0.00    +0.000 A 
ATOM     14  C   UNL     1       1.180   8.896  19.768  0.00  0.00    +0.000 A 
ATOM     15  H   UNL     1       3.954   6.894  17.348  0.00  0.00    +0.000 HD
ENDROOT
BRANCH   5  16
ATOM     16  C   UNL     1       3.800   4.372  17.225  0.00  0.00    +0.000 C 
BRANCH  16  17
ATOM     17  N   UNL     1       5.119   4.971  17.235  0.00  0.00    +0.000 N 
ATOM     18  C   UNL     1       6.040   4.612  18.184  0.00  0.00    +0.000 C 
ATOM     19  O   UNL     1       5.799   3.871  19.128  0.00  0.00    +0.000 OA
ATOM     20  H   UNL     1       5.411   5.500  16.425  0.00  0.00    +0.000 HD
BRANCH  18  21
ATOM     21  C   UNL     1       7.388   5.209  17.975  0.00  0.00    +0.000 C 
ATOM     22  C   UNL     1       7.497   6.642  17.515  0.00  0.00    +0.000 C 
ATOM     23  C   UNL     1       7.921   6.271  18.907  0.00  0.00    +0.000 C 
ENDBRANCH  18  21
ENDBRANCH  16  17
ENDBRANCH   5  16
TORSDOF 3
ENDMDL
MODEL 8
REMARK VINA RESULT:      -6.7      3.455      4.913
REMARK  Name = 
REMARK  4 active torsions:
REMARK  status: ('A' for Active; 'I' for Inactive)
REMARK    1  A    between atoms: C_1  and  N_2
REMARK    2  A    between atoms: C_5  and  C_7
REMARK    3  A    between atoms: C_7  and  N_8
REMARK    4  A    between atoms: C_9  and  C_11
REMARK                            x       y       z     vdW  Elec       q    Type
REMARK                         _______ _______ _______ _____ _____    ______ ____
ROOT
ATOM      1  C   UNL     1       2.508   8.162  17.576  0.00  0.00    +0.000 C 
ATOM      2  N   UNL     1       2.182   7.895  18.956  0.00  0.00    +0.000 N 
ATOM      3  C   UNL     1       2.351   6.721  19.657  0.00  0.00    +0.000 A 
ATOM      4  N   UNL     1       2.974   5.579  19.228  0.00  0.00    +0.000 N 
ATOM      5  C   UNL     1       4.265   5.598  18.743  0.00  0.00    +0.000 C 
ATOM      6  O   UNL     1       4.905   6.601  18.432  0.00  0.00    +0.000 OA
ATOM      7  N   UNL     1       1.729   6.766  20.813  0.00  0.00    +0.000 NA
ATOM      8  C   UNL     1       1.215   8.030  20.914  0.00  0.00    +0.000 A 
ATOM      9  C   UNL     1       0.513   8.618  21.975  0.00  0.00    +0.000 A 
ATOM     10  C   UNL     1       0.020   9.912  21.800  0.00  0.00    +0.000 A 
ATOM     11 CL   UNL     1      -0.862  10.657  23.080  0.00  0.00    +0.000 Cl
ATOM     12  C   UNL     1       0.216  10.611  20.607  0.00  0.00    +0.000 A 
ATOM     13  C   UNL     1       0.942  10.047  19.551  0.00  0.00    +0.000 A 
ATOM     14  C   UNL     1       1.442   8.753  19.748  0.00  0.00    +0.000 A 
ATOM     15  H   UNL     1       2.676   4.748  19.724  0.00  0.00    +0.000 HD
ENDROOT
BRANCH   5  16
ATOM     16  C   UNL     1       4.833   4.191  18.526  0.00  0.00    +0.000 C 
BRANCH  16  17
ATOM     17  N   UNL     1       5.124   4.007  17.119  0.00  0.00    +0.000 N 
ATOM     18  C   UNL     1       6.402   4.154  16.647  0.00  0.00    +0.000 C 
ATOM     19  O   UNL     1       7.343   4.545  17.324  0.00  0.00    +0.000 OA
ATOM     20  H   UNL     1       4.418   3.580  16.534  0.00  0.00    +0.000 HD
BRANCH  18  21
ATOM     21  C   UNL     1       6.562   3.796  15.210  0.00  0.00    +0.000 C 
ATOM     22  C   UNL     1       5.533   4.271  14.213  0.00  0.00    +0.000 C 
ATOM     23  C   UNL     1       6.922   4.843  14.183  0.00  0.00    +0.000 C 
ENDBRANCH  18  21
ENDBRANCH  16  17
ENDBRANCH   5  16
TORSDOF 3
ENDMDL
MODEL 9
REMARK VINA RESULT:      -6.7      5.508      7.988
REMARK  Name = 
REMARK  4 active torsions:
REMARK  status: ('A' for Active; 'I' for Inactive)
REMARK    1  A    between atoms: C_1  and  N_2
REMARK    2  A    between atoms: C_5  and  C_7
REMARK    3  A    between atoms: C_7  and  N_8
REMARK    4  A    between atoms: C_9  and  C_11
REMARK                            x       y       z     vdW  Elec       q    Type
REMARK                         _______ _______ _______ _____ _____    ______ ____
ROOT
ATOM      1  C   UNL     1       1.603   6.169  20.467  0.00  0.00    +0.000 C 
ATOM      2  N   UNL     1       2.523   6.640  19.461  0.00  0.00    +0.000 N 
ATOM      3  C   UNL     1       2.384   7.726  18.624  0.00  0.00    +0.000 A 
ATOM      4  N   UNL     1       1.389   8.668  18.644  0.00  0.00    +0.000 N 
ATOM      5  C   UNL     1       1.087   9.377  19.788  0.00  0.00    +0.000 C 
ATOM      6  O   UNL     1       1.479   9.117  20.924  0.00  0.00    +0.000 OA
ATOM      7  N   UNL     1       3.297   7.717  17.680  0.00  0.00    +0.000 NA
ATOM      8  C   UNL     1       4.110   6.651  17.954  0.00  0.00    +0.000 A 
ATOM      9  C   UNL     1       5.269   6.229  17.290  0.00  0.00    +0.000 A 
ATOM     10  C   UNL     1       5.881   5.051  17.721  0.00  0.00    +0.000 A 
ATOM     11 CL   UNL     1       7.300   4.495  16.915  0.00  0.00    +0.000 Cl
ATOM     12  C   UNL     1       5.363   4.308  18.784  0.00  0.00    +0.000 A 
ATOM     13  C   UNL     1       4.223   4.735  19.475  0.00  0.00    +0.000 A 
ATOM     14  C   UNL     1       3.629   5.926  19.039  0.00  0.00    +0.000 A 
ATOM     15  H   UNL     1       1.267   9.142  17.757  0.00  0.00    +0.000 HD
ENDROOT
BRANCH   5  16
ATOM     16  C   UNL     1       0.098  10.519  19.527  0.00  0.00    +0.000 C 
BRANCH  16  17
ATOM     17  N   UNL     1      -1.053  10.000  18.818  0.00  0.00    +0.000 N 
ATOM     18  C   UNL     1      -1.819  10.824  18.035  0.00  0.00    +0.000 C 
ATOM     19  O   UNL     1      -1.668  12.036  17.962  0.00  0.00    +0.000 OA
ATOM     20  H   UNL     1      -1.163   8.997  18.750  0.00  0.00    +0.000 HD
BRANCH  18  21
ATOM     21  C   UNL     1      -2.876  10.114  17.264  0.00  0.00    +0.000 C 
ATOM     22  C   UNL     1      -3.734  10.895  16.298  0.00  0.00    +0.000 C 
ATOM     23  C   UNL     1      -2.741   9.897  15.775  0.00  0.00    +0.000 C 
ENDBRANCH  18  21
ENDBRANCH  16  17
ENDBRANCH   5  16
TORSDOF 3
ENDMDL
