MODEL 1
REMARK VINA RESULT:      -6.4      0.000      0.000
REMARK  Name = 
REMARK  22 active torsions:
REMARK  status: ('A' for Active; 'I' for Inactive)
REMARK    1  A    between atoms: C_1  and  C_2
REMARK    2  A    between atoms: C_2  and  C_3
REMARK    3  A    between atoms: C_3  and  C_4
REMARK    4  A    between atoms: C_4  and  C_5
REMARK    5  A    between atoms: C_5  and  C_6
REMARK    6  A    between atoms: C_6  and  C_7
REMARK    7  A    between atoms: C_7  and  C_8
REMARK    8  A    between atoms: C_8  and  C_9
REMARK    9  A    between atoms: C_9  and  O_10
REMARK   10  A    between atoms: O_10  and  C_11
REMARK   11  A    between atoms: C_11  and  C_13
REMARK   12  A    between atoms: C_18  and  C_19
REMARK   13  A    between atoms: C_19  and  O_21
REMARK   14  A    between atoms: O_21  and  C_22
REMARK   15  A    between atoms: C_22  and  C_23
REMARK   16  A    between atoms: C_23  and  C_24
REMARK   17  A    between atoms: C_24  and  C_25
REMARK   18  A    between atoms: C_25  and  C_26
REMARK   19  A    between atoms: C_26  and  C_27
REMARK   20  A    between atoms: C_27  and  C_28
REMARK   21  A    between atoms: C_28  and  C_29
REMARK   22  A    between atoms: C_29  and  C_30
REMARK                            x       y       z     vdW  Elec       q    Type
REMARK                         _______ _______ _______ _____ _____    ______ ____
ROOT
ATOM      1  C   UNL     1       2.069   3.949  19.300  0.00  0.00    +0.000 A 
ATOM      2  C   UNL     1       1.063   3.915  20.280  0.00  0.00    +0.000 A 
ATOM      3  C   UNL     1       1.229   3.180  21.456  0.00  0.00    +0.000 A 
ATOM      4  C   UNL     1       2.406   2.476  21.668  0.00  0.00    +0.000 A 
ATOM      5  C   UNL     1       3.410   2.497  20.704  0.00  0.00    +0.000 A 
ATOM      6  C   UNL     1       3.249   3.225  19.505  0.00  0.00    +0.000 A 
ENDROOT
BRANCH   6   7
ATOM      7  C   UNL     1       4.416   3.222  18.600  0.00  0.00    +0.000 C 
ATOM      8  O   UNL     1       4.385   2.675  17.507  0.00  0.00    +0.000 OA
BRANCH   7   9
ATOM      9  O   UNL     1       5.495   3.671  19.269  0.00  0.00    +0.000 OA
BRANCH   9  10
ATOM     10  C   UNL     1       5.874   5.047  19.144  0.00  0.00    +0.000 C 
BRANCH  10  11
ATOM     11  C   UNL     1       7.202   5.369  18.458  0.00  0.00    +0.000 C 
BRANCH  11  12
ATOM     12  C   UNL     1       7.391   4.696  17.097  0.00  0.00    +0.000 C 
BRANCH  12  13
ATOM     13  C   UNL     1       6.985   5.566  15.904  0.00  0.00    +0.000 C 
BRANCH  13  14
ATOM     14  C   UNL     1       5.568   5.266  15.417  0.00  0.00    +0.000 C 
BRANCH  14  15
ATOM     15  C   UNL     1       5.533   4.069  14.476  0.00  0.00    +0.000 C 
BRANCH  15  16
ATOM     16  C   UNL     1       6.724   4.120  13.520  0.00  0.00    +0.000 C 
BRANCH  16  17
ATOM     17  C   UNL     1       6.384   3.482  12.178  0.00  0.00    +0.000 C 
ATOM     18  C   UNL     1       4.882   3.341  12.005  0.00  0.00    +0.000 C 
ENDBRANCH  16  17
ENDBRANCH  15  16
ENDBRANCH  14  15
ENDBRANCH  13  14
ENDBRANCH  12  13
ENDBRANCH  11  12
ENDBRANCH  10  11
ENDBRANCH   9  10
ENDBRANCH   7   9
ENDBRANCH   6   7
BRANCH   1  19
ATOM     19  C   UNL     1       1.768   4.757  18.096  0.00  0.00    +0.000 C 
ATOM     20  O   UNL     1       1.031   4.356  17.213  0.00  0.00    +0.000 OA
BRANCH  19  21
ATOM     21  O   UNL     1       2.577   5.839  18.053  0.00  0.00    +0.000 OA
BRANCH  21  22
ATOM     22  C   UNL     1       1.944   7.051  17.620  0.00  0.00    +0.000 C 
BRANCH  22  23
ATOM     23  C   UNL     1       2.372   8.269  18.436  0.00  0.00    +0.000 C 
BRANCH  23  24
ATOM     24  C   UNL     1       1.882   9.606  17.873  0.00  0.00    +0.000 C 
BRANCH  24  25
ATOM     25  C   UNL     1       1.280  10.561  18.907  0.00  0.00    +0.000 C 
BRANCH  25  26
ATOM     26  C   UNL     1       0.211   9.886  19.768  0.00  0.00    +0.000 C 
BRANCH  26  27
ATOM     27  C   UNL     1      -0.609  10.904  20.555  0.00  0.00    +0.000 C 
BRANCH  27  28
ATOM     28  C   UNL     1      -1.654  11.560  19.652  0.00  0.00    +0.000 C 
BRANCH  28  30
ATOM     29  C   UNL     1      -0.573  13.802  19.288  0.00  0.00    +0.000 C 
ATOM     30  C   UNL     1      -1.743  13.060  19.912  0.00  0.00    +0.000 C 
ENDBRANCH  28  30
ENDBRANCH  27  28
ENDBRANCH  26  27
ENDBRANCH  25  26
ENDBRANCH  24  25
ENDBRANCH  23  24
ENDBRANCH  22  23
ENDBRANCH  21  22
ENDBRANCH  19  21
ENDBRANCH   1  19
TORSDOF 20
ENDMDL
MODEL 2
REMARK VINA RESULT:      -6.3      2.032      8.120
REMARK  Name = 
REMARK  22 active torsions:
REMARK  status: ('A' for Active; 'I' for Inactive)
REMARK    1  A    between atoms: C_1  and  C_2
REMARK    2  A    between atoms: C_2  and  C_3
REMARK    3  A    between atoms: C_3  and  C_4
REMARK    4  A    between atoms: C_4  and  C_5
REMARK    5  A    between atoms: C_5  and  C_6
REMARK    6  A    between atoms: C_6  and  C_7
REMARK    7  A    between atoms: C_7  and  C_8
REMARK    8  A    between atoms: C_8  and  C_9
REMARK    9  A    between atoms: C_9  and  O_10
REMARK   10  A    between atoms: O_10  and  C_11
REMARK   11  A    between atoms: C_11  and  C_13
REMARK   12  A    between atoms: C_18  and  C_19
REMARK   13  A    between atoms: C_19  and  O_21
REMARK   14  A    between atoms: O_21  and  C_22
REMARK   15  A    between atoms: C_22  and  C_23
REMARK   16  A    between atoms: C_23  and  C_24
REMARK   17  A    between atoms: C_24  and  C_25
REMARK   18  A    between atoms: C_25  and  C_26
REMARK   19  A    between atoms: C_26  and  C_27
REMARK   20  A    between atoms: C_27  and  C_28
REMARK   21  A    between atoms: C_28  and  C_29
REMARK   22  A    between atoms: C_29  and  C_30
REMARK                            x       y       z     vdW  Elec       q    Type
REMARK                         _______ _______ _______ _____ _____    ______ ____
ROOT
ATOM      1  C   UNL     1       3.680   4.192  18.698  0.00  0.00    +0.000 A 
ATOM      2  C   UNL     1       3.785   3.251  17.660  0.00  0.00    +0.000 A 
ATOM      3  C   UNL     1       2.758   2.340  17.408  0.00  0.00    +0.000 A 
ATOM      4  C   UNL     1       1.609   2.363  18.188  0.00  0.00    +0.000 A 
ATOM      5  C   UNL     1       1.492   3.287  19.223  0.00  0.00    +0.000 A 
ATOM      6  C   UNL     1       2.530   4.205  19.496  0.00  0.00    +0.000 A 
ENDROOT
BRANCH   6   7
ATOM      7  C   UNL     1       2.250   5.176  20.573  0.00  0.00    +0.000 C 
ATOM      8  O   UNL     1       2.539   4.948  21.739  0.00  0.00    +0.000 OA
BRANCH   7   9
ATOM      9  O   UNL     1       1.454   6.149  20.093  0.00  0.00    +0.000 OA
BRANCH   9  10
ATOM     10  C   UNL     1       1.981   7.473  19.937  0.00  0.00    +0.000 C 
BRANCH  10  11
ATOM     11  C   UNL     1       2.508   7.882  18.561  0.00  0.00    +0.000 C 
BRANCH  11  12
ATOM     12  C   UNL     1       1.657   8.932  17.845  0.00  0.00    +0.000 C 
BRANCH  12  13
ATOM     13  C   UNL     1       0.655   9.654  18.751  0.00  0.00    +0.000 C 
BRANCH  13  14
ATOM     14  C   UNL     1      -0.481  10.305  17.965  0.00  0.00    +0.000 C 
BRANCH  14  15
ATOM     15  C   UNL     1      -1.819  10.162  18.679  0.00  0.00    +0.000 C 
BRANCH  15  16
ATOM     16  C   UNL     1      -2.964  10.288  17.676  0.00  0.00    +0.000 C 
BRANCH  16  17
ATOM     17  C   UNL     1      -2.494   9.982  16.259  0.00  0.00    +0.000 C 
ATOM     18  C   UNL     1      -3.289  10.775  15.236  0.00  0.00    +0.000 C 
ENDBRANCH  16  17
ENDBRANCH  15  16
ENDBRANCH  14  15
ENDBRANCH  13  14
ENDBRANCH  12  13
ENDBRANCH  11  12
ENDBRANCH  10  11
ENDBRANCH   9  10
ENDBRANCH   7   9
ENDBRANCH   6   7
BRANCH   1  19
ATOM     19  C   UNL     1       4.840   5.096  18.867  0.00  0.00    +0.000 C 
ATOM     20  O   UNL     1       5.633   4.970  19.784  0.00  0.00    +0.000 OA
BRANCH  19  21
ATOM     21  O   UNL     1       4.737   6.142  18.018  0.00  0.00    +0.000 OA
BRANCH  21  22
ATOM     22  C   UNL     1       5.911   6.407  17.237  0.00  0.00    +0.000 C 
BRANCH  22  23
ATOM     23  C   UNL     1       5.690   6.193  15.742  0.00  0.00    +0.000 C 
BRANCH  23  24
ATOM     24  C   UNL     1       6.386   4.952  15.175  0.00  0.00    +0.000 C 
BRANCH  24  25
ATOM     25  C   UNL     1       5.510   4.072  14.280  0.00  0.00    +0.000 C 
BRANCH  25  26
ATOM     26  C   UNL     1       6.192   3.729  12.956  0.00  0.00    +0.000 C 
BRANCH  26  27
ATOM     27  C   UNL     1       5.325   2.819  12.091  0.00  0.00    +0.000 C 
BRANCH  27  28
ATOM     28  C   UNL     1       4.802   3.580  10.873  0.00  0.00    +0.000 C 
BRANCH  28  30
ATOM     29  C   UNL     1       2.758   4.151   9.523  0.00  0.00    +0.000 C 
ATOM     30  C   UNL     1       3.332   3.266  10.616  0.00  0.00    +0.000 C 
ENDBRANCH  28  30
ENDBRANCH  27  28
ENDBRANCH  26  27
ENDBRANCH  25  26
ENDBRANCH  24  25
ENDBRANCH  23  24
ENDBRANCH  22  23
ENDBRANCH  21  22
ENDBRANCH  19  21
ENDBRANCH   1  19
TORSDOF 20
ENDMDL
MODEL 3
REMARK VINA RESULT:      -6.3      1.969      8.348
REMARK  Name = 
REMARK  22 active torsions:
REMARK  status: ('A' for Active; 'I' for Inactive)
REMARK    1  A    between atoms: C_1  and  C_2
REMARK    2  A    between atoms: C_2  and  C_3
REMARK    3  A    between atoms: C_3  and  C_4
REMARK    4  A    between atoms: C_4  and  C_5
REMARK    5  A    between atoms: C_5  and  C_6
REMARK    6  A    between atoms: C_6  and  C_7
REMARK    7  A    between atoms: C_7  and  C_8
REMARK    8  A    between atoms: C_8  and  C_9
REMARK    9  A    between atoms: C_9  and  O_10
REMARK   10  A    between atoms: O_10  and  C_11
REMARK   11  A    between atoms: C_11  and  C_13
REMARK   12  A    between atoms: C_18  and  C_19
REMARK   13  A    between atoms: C_19  and  O_21
REMARK   14  A    between atoms: O_21  and  C_22
REMARK   15  A    between atoms: C_22  and  C_23
REMARK   16  A    between atoms: C_23  and  C_24
REMARK   17  A    between atoms: C_24  and  C_25
REMARK   18  A    between atoms: C_25  and  C_26
REMARK   19  A    between atoms: C_26  and  C_27
REMARK   20  A    between atoms: C_27  and  C_28
REMARK   21  A    between atoms: C_28  and  C_29
REMARK   22  A    between atoms: C_29  and  C_30
REMARK                            x       y       z     vdW  Elec       q    Type
REMARK                         _______ _______ _______ _____ _____    ______ ____
ROOT
ATOM      1  C   UNL     1       4.046   4.522  18.340  0.00  0.00    +0.000 A 
ATOM      2  C   UNL     1       4.079   3.150  18.043  0.00  0.00    +0.000 A 
ATOM      3  C   UNL     1       2.903   2.435  17.807  0.00  0.00    +0.000 A 
ATOM      4  C   UNL     1       1.678   3.087  17.860  0.00  0.00    +0.000 A 
ATOM      5  C   UNL     1       1.629   4.446  18.158  0.00  0.00    +0.000 A 
ATOM      6  C   UNL     1       2.810   5.176  18.412  0.00  0.00    +0.000 A 
ENDROOT
BRANCH   6   7
ATOM      7  C   UNL     1       2.623   6.622  18.644  0.00  0.00    +0.000 C 
ATOM      8  O   UNL     1       2.671   7.435  17.732  0.00  0.00    +0.000 OA
BRANCH   7   9
ATOM      9  O   UNL     1       2.652   6.864  19.969  0.00  0.00    +0.000 OA
BRANCH   9  10
ATOM     10  C   UNL     1       1.418   6.921  20.696  0.00  0.00    +0.000 C 
BRANCH  10  11
ATOM     11  C   UNL     1       1.187   8.108  21.632  0.00  0.00    +0.000 C 
BRANCH  11  12
ATOM     12  C   UNL     1       0.296   9.207  21.050  0.00  0.00    +0.000 C 
BRANCH  12  13
ATOM     13  C   UNL     1       0.979  10.573  20.930  0.00  0.00    +0.000 C 
BRANCH  13  14
ATOM     14  C   UNL     1       0.355  11.446  19.844  0.00  0.00    +0.000 C 
BRANCH  14  15
ATOM     15  C   UNL     1       0.047  10.648  18.583  0.00  0.00    +0.000 C 
BRANCH  15  16
ATOM     16  C   UNL     1      -1.397  10.891  18.148  0.00  0.00    +0.000 C 
BRANCH  16  17
ATOM     17  C   UNL     1      -1.822   9.906  17.066  0.00  0.00    +0.000 C 
ATOM     18  C   UNL     1      -3.332   9.742  17.039  0.00  0.00    +0.000 C 
ENDBRANCH  16  17
ENDBRANCH  15  16
ENDBRANCH  14  15
ENDBRANCH  13  14
ENDBRANCH  12  13
ENDBRANCH  11  12
ENDBRANCH  10  11
ENDBRANCH   9  10
ENDBRANCH   7   9
ENDBRANCH   6   7
BRANCH   1  19
ATOM     19  C   UNL     1       5.359   5.162  18.577  0.00  0.00    +0.000 C 
ATOM     20  O   UNL     1       6.097   4.813  19.481  0.00  0.00    +0.000 OA
BRANCH  19  21
ATOM     21  O   UNL     1       5.478   6.269  17.811  0.00  0.00    +0.000 OA
BRANCH  21  22
ATOM     22  C   UNL     1       6.329   6.124  16.665  0.00  0.00    +0.000 C 
BRANCH  22  23
ATOM     23  C   UNL     1       5.580   5.640  15.426  0.00  0.00    +0.000 C 
BRANCH  23  24
ATOM     24  C   UNL     1       6.192   4.400  14.767  0.00  0.00    +0.000 C 
BRANCH  24  25
ATOM     25  C   UNL     1       7.097   4.687  13.566  0.00  0.00    +0.000 C 
BRANCH  25  26
ATOM     26  C   UNL     1       6.655   3.934  12.312  0.00  0.00    +0.000 C 
BRANCH  26  27
ATOM     27  C   UNL     1       5.332   3.203  12.527  0.00  0.00    +0.000 C 
BRANCH  27  28
ATOM     28  C   UNL     1       4.727   2.789  11.186  0.00  0.00    +0.000 C 
BRANCH  28  30
ATOM     29  C   UNL     1       3.146   4.028   9.671  0.00  0.00    +0.000 C 
ATOM     30  C   UNL     1       3.319   3.350  11.020  0.00  0.00    +0.000 C 
ENDBRANCH  28  30
ENDBRANCH  27  28
ENDBRANCH  26  27
ENDBRANCH  25  26
ENDBRANCH  24  25
ENDBRANCH  23  24
ENDBRANCH  22  23
ENDBRANCH  21  22
ENDBRANCH  19  21
ENDBRANCH   1  19
TORSDOF 20
ENDMDL
MODEL 4
REMARK VINA RESULT:      -6.1      3.592      4.997
REMARK  Name = 
REMARK  22 active torsions:
REMARK  status: ('A' for Active; 'I' for Inactive)
REMARK    1  A    between atoms: C_1  and  C_2
REMARK    2  A    between atoms: C_2  and  C_3
REMARK    3  A    between atoms: C_3  and  C_4
REMARK    4  A    between atoms: C_4  and  C_5
REMARK    5  A    between atoms: C_5  and  C_6
REMARK    6  A    between atoms: C_6  and  C_7
REMARK    7  A    between atoms: C_7  and  C_8
REMARK    8  A    between atoms: C_8  and  C_9
REMARK    9  A    between atoms: C_9  and  O_10
REMARK   10  A    between atoms: O_10  and  C_11
REMARK   11  A    between atoms: C_11  and  C_13
REMARK   12  A    between atoms: C_18  and  C_19
REMARK   13  A    between atoms: C_19  and  O_21
REMARK   14  A    between atoms: O_21  and  C_22
REMARK   15  A    between atoms: C_22  and  C_23
REMARK   16  A    between atoms: C_23  and  C_24
REMARK   17  A    between atoms: C_24  and  C_25
REMARK   18  A    between atoms: C_25  and  C_26
REMARK   19  A    between atoms: C_26  and  C_27
REMARK   20  A    between atoms: C_27  and  C_28
REMARK   21  A    between atoms: C_28  and  C_29
REMARK   22  A    between atoms: C_29  and  C_30
REMARK                            x       y       z     vdW  Elec       q    Type
REMARK                         _______ _______ _______ _____ _____    ______ ____
ROOT
ATOM      1  C   UNL     1       3.408   5.172  17.546  0.00  0.00    +0.000 A 
ATOM      2  C   UNL     1       2.069   4.905  17.880  0.00  0.00    +0.000 A 
ATOM      3  C   UNL     1       1.642   3.605  18.157  0.00  0.00    +0.000 A 
ATOM      4  C   UNL     1       2.551   2.556  18.109  0.00  0.00    +0.000 A 
ATOM      5  C   UNL     1       3.879   2.804  17.776  0.00  0.00    +0.000 A 
ATOM      6  C   UNL     1       4.320   4.113  17.480  0.00  0.00    +0.000 A 
ENDROOT
BRANCH   6   7
ATOM      7  C   UNL     1       5.766   4.249  17.212  0.00  0.00    +0.000 C 
ATOM      8  O   UNL     1       6.232   4.104  16.091  0.00  0.00    +0.000 OA
BRANCH   7   9
ATOM      9  O   UNL     1       6.430   4.297  18.383  0.00  0.00    +0.000 OA
BRANCH   9  10
ATOM     10  C   UNL     1       6.810   5.570  18.920  0.00  0.00    +0.000 C 
BRANCH  10  11
ATOM     11  C   UNL     1       7.320   6.638  17.952  0.00  0.00    +0.000 C 
BRANCH  11  12
ATOM     12  C   UNL     1       8.331   7.612  18.559  0.00  0.00    +0.000 C 
BRANCH  12  13
ATOM     13  C   UNL     1       8.304   9.014  17.943  0.00  0.00    +0.000 C 
BRANCH  13  14
ATOM     14  C   UNL     1       8.988  10.055  18.827  0.00  0.00    +0.000 C 
BRANCH  14  15
ATOM     15  C   UNL     1       9.020  11.426  18.165  0.00  0.00    +0.000 C 
BRANCH  15  16
ATOM     16  C   UNL     1      10.310  12.156  18.535  0.00  0.00    +0.000 C 
BRANCH  16  17
ATOM     17  C   UNL     1      10.499  13.409  17.688  0.00  0.00    +0.000 C 
ATOM     18  C   UNL     1      11.591  13.209  16.652  0.00  0.00    +0.000 C 
ENDBRANCH  16  17
ENDBRANCH  15  16
ENDBRANCH  14  15
ENDBRANCH  13  14
ENDBRANCH  12  13
ENDBRANCH  11  12
ENDBRANCH  10  11
ENDBRANCH   9  10
ENDBRANCH   7   9
ENDBRANCH   6   7
BRANCH   1  19
ATOM     19  C   UNL     1       3.731   6.589  17.268  0.00  0.00    +0.000 C 
ATOM     20  O   UNL     1       4.558   6.914  16.435  0.00  0.00    +0.000 OA
BRANCH  19  21
ATOM     21  O   UNL     1       3.153   7.385  18.196  0.00  0.00    +0.000 OA
BRANCH  21  22
ATOM     22  C   UNL     1       2.542   8.574  17.677  0.00  0.00    +0.000 C 
BRANCH  22  23
ATOM     23  C   UNL     1       1.174   8.856  18.292  0.00  0.00    +0.000 C 
BRANCH  23  24
ATOM     24  C   UNL     1       1.209   9.795  19.501  0.00  0.00    +0.000 C 
BRANCH  24  25
ATOM     25  C   UNL     1      -0.116  10.496  19.813  0.00  0.00    +0.000 C 
BRANCH  25  26
ATOM     26  C   UNL     1      -0.685  11.229  18.598  0.00  0.00    +0.000 C 
BRANCH  26  27
ATOM     27  C   UNL     1      -2.206  11.117  18.529  0.00  0.00    +0.000 C 
BRANCH  27  28
ATOM     28  C   UNL     1      -2.613   9.842  17.792  0.00  0.00    +0.000 C 
BRANCH  28  30
ATOM     29  C   UNL     1      -2.696  10.639  15.407  0.00  0.00    +0.000 C 
ATOM     30  C   UNL     1      -3.508  10.159  16.598  0.00  0.00    +0.000 C 
ENDBRANCH  28  30
ENDBRANCH  27  28
ENDBRANCH  26  27
ENDBRANCH  25  26
ENDBRANCH  24  25
ENDBRANCH  23  24
ENDBRANCH  22  23
ENDBRANCH  21  22
ENDBRANCH  19  21
ENDBRANCH   1  19
TORSDOF 20
ENDMDL
MODEL 5
REMARK VINA RESULT:      -6.1      4.137      7.409
REMARK  Name = 
REMARK  22 active torsions:
REMARK  status: ('A' for Active; 'I' for Inactive)
REMARK    1  A    between atoms: C_1  and  C_2
REMARK    2  A    between atoms: C_2  and  C_3
REMARK    3  A    between atoms: C_3  and  C_4
REMARK    4  A    between atoms: C_4  and  C_5
REMARK    5  A    between atoms: C_5  and  C_6
REMARK    6  A    between atoms: C_6  and  C_7
REMARK    7  A    between atoms: C_7  and  C_8
REMARK    8  A    between atoms: C_8  and  C_9
REMARK    9  A    between atoms: C_9  and  O_10
REMARK   10  A    between atoms: O_10  and  C_11
REMARK   11  A    between atoms: C_11  and  C_13
REMARK   12  A    between atoms: C_18  and  C_19
REMARK   13  A    between atoms: C_19  and  O_21
REMARK   14  A    between atoms: O_21  and  C_22
REMARK   15  A    between atoms: C_22  and  C_23
REMARK   16  A    between atoms: C_23  and  C_24
REMARK   17  A    between atoms: C_24  and  C_25
REMARK   18  A    between atoms: C_25  and  C_26
REMARK   19  A    between atoms: C_26  and  C_27
REMARK   20  A    between atoms: C_27  and  C_28
REMARK   21  A    between atoms: C_28  and  C_29
REMARK   22  A    between atoms: C_29  and  C_30
REMARK                            x       y       z     vdW  Elec       q    Type
REMARK                         _______ _______ _______ _____ _____    ______ ____
ROOT
ATOM      1  C   UNL     1       2.118   3.563  18.999  0.00  0.00    +0.000 A 
ATOM      2  C   UNL     1       0.849   3.300  19.541  0.00  0.00    +0.000 A 
ATOM      3  C   UNL     1       0.703   2.903  20.872  0.00  0.00    +0.000 A 
ATOM      4  C   UNL     1       1.825   2.771  21.679  0.00  0.00    +0.000 A 
ATOM      5  C   UNL     1       3.089   3.024  21.155  0.00  0.00    +0.000 A 
ATOM      6  C   UNL     1       3.251   3.413  19.807  0.00  0.00    +0.000 A 
ENDROOT
BRANCH   6   7
ATOM      7  C   UNL     1       4.637   3.719  19.398  0.00  0.00    +0.000 C 
ATOM      8  O   UNL     1       5.472   2.841  19.238  0.00  0.00    +0.000 OA
BRANCH   7   9
ATOM      9  O   UNL     1       4.840   5.047  19.485  0.00  0.00    +0.000 OA
BRANCH   9  10
ATOM     10  C   UNL     1       6.178   5.556  19.415  0.00  0.00    +0.000 C 
BRANCH  10  11
ATOM     11  C   UNL     1       6.650   6.163  18.093  0.00  0.00    +0.000 C 
BRANCH  11  12
ATOM     12  C   UNL     1       7.960   6.948  18.190  0.00  0.00    +0.000 C 
BRANCH  12  13
ATOM     13  C   UNL     1       7.832   8.432  17.834  0.00  0.00    +0.000 C 
BRANCH  13  14
ATOM     14  C   UNL     1       8.717   9.321  18.705  0.00  0.00    +0.000 C 
BRANCH  14  15
ATOM     15  C   UNL     1       9.183  10.563  17.956  0.00  0.00    +0.000 C 
BRANCH  15  16
ATOM     16  C   UNL     1      10.259  11.288  18.763  0.00  0.00    +0.000 C 
BRANCH  16  17
ATOM     17  C   UNL     1      10.222  12.790  18.510  0.00  0.00    +0.000 C 
ATOM     18  C   UNL     1      11.583  13.419  18.750  0.00  0.00    +0.000 C 
ENDBRANCH  16  17
ENDBRANCH  15  16
ENDBRANCH  14  15
ENDBRANCH  13  14
ENDBRANCH  12  13
ENDBRANCH  11  12
ENDBRANCH  10  11
ENDBRANCH   9  10
ENDBRANCH   7   9
ENDBRANCH   6   7
BRANCH   1  19
ATOM     19  C   UNL     1       2.139   3.967  17.575  0.00  0.00    +0.000 C 
ATOM     20  O   UNL     1       1.199   4.534  17.048  0.00  0.00    +0.000 OA
BRANCH  19  21
ATOM     21  O   UNL     1       3.215   3.429  16.959  0.00  0.00    +0.000 OA
BRANCH  21  22
ATOM     22  C   UNL     1       4.035   4.365  16.245  0.00  0.00    +0.000 C 
BRANCH  22  23
ATOM     23  C   UNL     1       5.227   3.706  15.556  0.00  0.00    +0.000 C 
BRANCH  23  24
ATOM     24  C   UNL     1       6.180   4.690  14.871  0.00  0.00    +0.000 C 
BRANCH  24  25
ATOM     25  C   UNL     1       6.265   4.553  13.348  0.00  0.00    +0.000 C 
BRANCH  25  26
ATOM     26  C   UNL     1       6.217   3.095  12.893  0.00  0.00    +0.000 C 
BRANCH  26  27
ATOM     27  C   UNL     1       5.479   2.939  11.566  0.00  0.00    +0.000 C 
BRANCH  27  28
ATOM     28  C   UNL     1       4.050   3.468  11.685  0.00  0.00    +0.000 C 
BRANCH  28  30
ATOM     29  C   UNL     1       2.996   4.300   9.557  0.00  0.00    +0.000 C 
ATOM     30  C   UNL     1       3.222   3.098  10.459  0.00  0.00    +0.000 C 
ENDBRANCH  28  30
ENDBRANCH  27  28
ENDBRANCH  26  27
ENDBRANCH  25  26
ENDBRANCH  24  25
ENDBRANCH  23  24
ENDBRANCH  22  23
ENDBRANCH  21  22
ENDBRANCH  19  21
ENDBRANCH   1  19
TORSDOF 20
ENDMDL
MODEL 6
REMARK VINA RESULT:      -6.0      2.245      4.910
REMARK  Name = 
REMARK  22 active torsions:
REMARK  status: ('A' for Active; 'I' for Inactive)
REMARK    1  A    between atoms: C_1  and  C_2
REMARK    2  A    between atoms: C_2  and  C_3
REMARK    3  A    between atoms: C_3  and  C_4
REMARK    4  A    between atoms: C_4  and  C_5
REMARK    5  A    between atoms: C_5  and  C_6
REMARK    6  A    between atoms: C_6  and  C_7
REMARK    7  A    between atoms: C_7  and  C_8
REMARK    8  A    between atoms: C_8  and  C_9
REMARK    9  A    between atoms: C_9  and  O_10
REMARK   10  A    between atoms: O_10  and  C_11
REMARK   11  A    between atoms: C_11  and  C_13
REMARK   12  A    between atoms: C_18  and  C_19
REMARK   13  A    between atoms: C_19  and  O_21
REMARK   14  A    between atoms: O_21  and  C_22
REMARK   15  A    between atoms: C_22  and  C_23
REMARK   16  A    between atoms: C_23  and  C_24
REMARK   17  A    between atoms: C_24  and  C_25
REMARK   18  A    between atoms: C_25  and  C_26
REMARK   19  A    between atoms: C_26  and  C_27
REMARK   20  A    between atoms: C_27  and  C_28
REMARK   21  A    between atoms: C_28  and  C_29
REMARK   22  A    between atoms: C_29  and  C_30
REMARK                            x       y       z     vdW  Elec       q    Type
REMARK                         _______ _______ _______ _____ _____    ______ ____
ROOT
ATOM      1  C   UNL     1       1.220   8.052  20.183  0.00  0.00    +0.000 A 
ATOM      2  C   UNL     1       1.341   9.162  19.330  0.00  0.00    +0.000 A 
ATOM      3  C   UNL     1       2.097   9.091  18.159  0.00  0.00    +0.000 A 
ATOM      4  C   UNL     1       2.737   7.906  17.823  0.00  0.00    +0.000 A 
ATOM      5  C   UNL     1       2.631   6.799  18.660  0.00  0.00    +0.000 A 
ATOM      6  C   UNL     1       1.880   6.863  19.855  0.00  0.00    +0.000 A 
ENDROOT
BRANCH   6   7
ATOM      7  C   UNL     1       1.790   5.600  20.614  0.00  0.00    +0.000 C 
ATOM      8  O   UNL     1       2.622   5.291  21.456  0.00  0.00    +0.000 OA
BRANCH   7   9
ATOM      9  O   UNL     1       0.847   4.816  20.058  0.00  0.00    +0.000 OA
BRANCH   9  10
ATOM     10  C   UNL     1       1.021   3.393  20.074  0.00  0.00    +0.000 C 
BRANCH  10  11
ATOM     11  C   UNL     1       0.866   2.632  18.757  0.00  0.00    +0.000 C 
BRANCH  11  12
ATOM     12  C   UNL     1       2.185   2.321  18.047  0.00  0.00    +0.000 C 
BRANCH  12  13
ATOM     13  C   UNL     1       3.430   2.532  18.914  0.00  0.00    +0.000 C 
BRANCH  13  14
ATOM     14  C   UNL     1       4.395   3.552  18.312  0.00  0.00    +0.000 C 
BRANCH  14  15
ATOM     15  C   UNL     1       3.986   3.956  16.901  0.00  0.00    +0.000 C 
BRANCH  15  16
ATOM     16  C   UNL     1       5.208   4.433  16.118  0.00  0.00    +0.000 C 
BRANCH  16  17
ATOM     17  C   UNL     1       5.501   5.903  16.392  0.00  0.00    +0.000 C 
ATOM     18  C   UNL     1       6.870   6.080  17.024  0.00  0.00    +0.000 C 
ENDBRANCH  16  17
ENDBRANCH  15  16
ENDBRANCH  14  15
ENDBRANCH  13  14
ENDBRANCH  12  13
ENDBRANCH  11  12
ENDBRANCH  10  11
ENDBRANCH   9  10
ENDBRANCH   7   9
ENDBRANCH   6   7
BRANCH   1  19
ATOM     19  C   UNL     1       0.398   8.259  21.397  0.00  0.00    +0.000 C 
ATOM     20  O   UNL     1      -0.699   7.748  21.532  0.00  0.00    +0.000 OA
BRANCH  19  21
ATOM     21  O   UNL     1       0.946   9.226  22.166  0.00  0.00    +0.000 OA
BRANCH  21  22
ATOM     22  C   UNL     1       0.047   9.839  23.100  0.00  0.00    +0.000 C 
BRANCH  22  23
ATOM     23  C   UNL     1      -0.958  10.773  22.432  0.00  0.00    +0.000 C 
BRANCH  23  24
ATOM     24  C   UNL     1      -0.408  12.167  22.117  0.00  0.00    +0.000 C 
BRANCH  24  25
ATOM     25  C   UNL     1       0.385  12.269  20.811  0.00  0.00    +0.000 C 
BRANCH  25  26
ATOM     26  C   UNL     1      -0.275  13.210  19.803  0.00  0.00    +0.000 C 
BRANCH  26  27
ATOM     27  C   UNL     1      -0.758  12.464  18.563  0.00  0.00    +0.000 C 
BRANCH  27  28
ATOM     28  C   UNL     1      -2.070  11.737  18.855  0.00  0.00    +0.000 C 
BRANCH  28  30
ATOM     29  C   UNL     1      -1.864   9.997  17.049  0.00  0.00    +0.000 C 
ATOM     30  C   UNL     1      -1.956  10.248  18.545  0.00  0.00    +0.000 C 
ENDBRANCH  28  30
ENDBRANCH  27  28
ENDBRANCH  26  27
ENDBRANCH  25  26
ENDBRANCH  24  25
ENDBRANCH  23  24
ENDBRANCH  22  23
ENDBRANCH  21  22
ENDBRANCH  19  21
ENDBRANCH   1  19
TORSDOF 20
ENDMDL
MODEL 7
REMARK VINA RESULT:      -6.0      1.473      8.159
REMARK  Name = 
REMARK  22 active torsions:
REMARK  status: ('A' for Active; 'I' for Inactive)
REMARK    1  A    between atoms: C_1  and  C_2
REMARK    2  A    between atoms: C_2  and  C_3
REMARK    3  A    between atoms: C_3  and  C_4
REMARK    4  A    between atoms: C_4  and  C_5
REMARK    5  A    between atoms: C_5  and  C_6
REMARK    6  A    between atoms: C_6  and  C_7
REMARK    7  A    between atoms: C_7  and  C_8
REMARK    8  A    between atoms: C_8  and  C_9
REMARK    9  A    between atoms: C_9  and  O_10
REMARK   10  A    between atoms: O_10  and  C_11
REMARK   11  A    between atoms: C_11  and  C_13
REMARK   12  A    between atoms: C_18  and  C_19
REMARK   13  A    between atoms: C_19  and  O_21
REMARK   14  A    between atoms: O_21  and  C_22
REMARK   15  A    between atoms: C_22  and  C_23
REMARK   16  A    between atoms: C_23  and  C_24
REMARK   17  A    between atoms: C_24  and  C_25
REMARK   18  A    between atoms: C_25  and  C_26
REMARK   19  A    between atoms: C_26  and  C_27
REMARK   20  A    between atoms: C_27  and  C_28
REMARK   21  A    between atoms: C_28  and  C_29
REMARK   22  A    between atoms: C_29  and  C_30
REMARK                            x       y       z     vdW  Elec       q    Type
REMARK                         _______ _______ _______ _____ _____    ______ ____
ROOT
ATOM      1  C   UNL     1       3.008   3.011  19.293  0.00  0.00    +0.000 A 
ATOM      2  C   UNL     1       3.286   2.377  20.516  0.00  0.00    +0.000 A 
ATOM      3  C   UNL     1       2.604   2.730  21.682  0.00  0.00    +0.000 A 
ATOM      4  C   UNL     1       1.630   3.718  21.637  0.00  0.00    +0.000 A 
ATOM      5  C   UNL     1       1.346   4.359  20.435  0.00  0.00    +0.000 A 
ATOM      6  C   UNL     1       2.039   4.020  19.252  0.00  0.00    +0.000 A 
ENDROOT
BRANCH   6   7
ATOM      7  C   UNL     1       1.593   4.723  18.033  0.00  0.00    +0.000 C 
ATOM      8  O   UNL     1       0.870   4.187  17.205  0.00  0.00    +0.000 OA
BRANCH   7   9
ATOM      9  O   UNL     1       2.290   5.868  17.903  0.00  0.00    +0.000 OA
BRANCH   9  10
ATOM     10  C   UNL     1       2.790   6.520  19.077  0.00  0.00    +0.000 C 
BRANCH  10  11
ATOM     11  C   UNL     1       2.144   7.839  19.502  0.00  0.00    +0.000 C 
BRANCH  11  12
ATOM     12  C   UNL     1       2.137   8.918  18.417  0.00  0.00    +0.000 C 
BRANCH  12  13
ATOM     13  C   UNL     1       0.756   9.196  17.816  0.00  0.00    +0.000 C 
BRANCH  13  14
ATOM     14  C   UNL     1       0.020  10.322  18.538  0.00  0.00    +0.000 C 
BRANCH  14  15
ATOM     15  C   UNL     1       0.941  11.091  19.477  0.00  0.00    +0.000 C 
BRANCH  15  16
ATOM     16  C   UNL     1       0.287  11.235  20.850  0.00  0.00    +0.000 C 
BRANCH  16  17
ATOM     17  C   UNL     1      -0.182   9.887  21.384  0.00  0.00    +0.000 C 
ATOM     18  C   UNL     1      -0.122   9.849  22.901  0.00  0.00    +0.000 C 
ENDBRANCH  16  17
ENDBRANCH  15  16
ENDBRANCH  14  15
ENDBRANCH  13  14
ENDBRANCH  12  13
ENDBRANCH  11  12
ENDBRANCH  10  11
ENDBRANCH   9  10
ENDBRANCH   7   9
ENDBRANCH   6   7
BRANCH   1  19
ATOM     19  C   UNL     1       3.805   2.552  18.134  0.00  0.00    +0.000 C 
ATOM     20  O   UNL     1       3.833   1.384  17.788  0.00  0.00    +0.000 OA
BRANCH  19  21
ATOM     21  O   UNL     1       4.612   3.548  17.705  0.00  0.00    +0.000 OA
BRANCH  21  22
ATOM     22  C   UNL     1       4.574   3.792  16.293  0.00  0.00    +0.000 C 
BRANCH  22  23
ATOM     23  C   UNL     1       5.457   4.963  15.868  0.00  0.00    +0.000 C 
BRANCH  23  24
ATOM     24  C   UNL     1       6.912   4.580  15.578  0.00  0.00    +0.000 C 
BRANCH  24  25
ATOM     25  C   UNL     1       7.334   4.710  14.112  0.00  0.00    +0.000 C 
BRANCH  25  26
ATOM     26  C   UNL     1       6.212   4.321  13.149  0.00  0.00    +0.000 C 
BRANCH  26  27
ATOM     27  C   UNL     1       6.629   3.179  12.226  0.00  0.00    +0.000 C 
BRANCH  27  28
ATOM     28  C   UNL     1       5.402   2.561  11.555  0.00  0.00    +0.000 C 
BRANCH  28  30
ATOM     29  C   UNL     1       3.197   3.140  10.494  0.00  0.00    +0.000 C 
ATOM     30  C   UNL     1       4.237   3.544  11.524  0.00  0.00    +0.000 C 
ENDBRANCH  28  30
ENDBRANCH  27  28
ENDBRANCH  26  27
ENDBRANCH  25  26
ENDBRANCH  24  25
ENDBRANCH  23  24
ENDBRANCH  22  23
ENDBRANCH  21  22
ENDBRANCH  19  21
ENDBRANCH   1  19
TORSDOF 20
ENDMDL
MODEL 8
REMARK VINA RESULT:      -6.0      1.247      1.783
REMARK  Name = 
REMARK  22 active torsions:
REMARK  status: ('A' for Active; 'I' for Inactive)
REMARK    1  A    between atoms: C_1  and  C_2
REMARK    2  A    between atoms: C_2  and  C_3
REMARK    3  A    between atoms: C_3  and  C_4
REMARK    4  A    between atoms: C_4  and  C_5
REMARK    5  A    between atoms: C_5  and  C_6
REMARK    6  A    between atoms: C_6  and  C_7
REMARK    7  A    between atoms: C_7  and  C_8
REMARK    8  A    between atoms: C_8  and  C_9
REMARK    9  A    between atoms: C_9  and  O_10
REMARK   10  A    between atoms: O_10  and  C_11
REMARK   11  A    between atoms: C_11  and  C_13
REMARK   12  A    between atoms: C_18  and  C_19
REMARK   13  A    between atoms: C_19  and  O_21
REMARK   14  A    between atoms: O_21  and  C_22
REMARK   15  A    between atoms: C_22  and  C_23
REMARK   16  A    between atoms: C_23  and  C_24
REMARK   17  A    between atoms: C_24  and  C_25
REMARK   18  A    between atoms: C_25  and  C_26
REMARK   19  A    between atoms: C_26  and  C_27
REMARK   20  A    between atoms: C_27  and  C_28
REMARK   21  A    between atoms: C_28  and  C_29
REMARK   22  A    between atoms: C_29  and  C_30
REMARK                            x       y       z     vdW  Elec       q    Type
REMARK                         _______ _______ _______ _____ _____    ______ ____
ROOT
ATOM      1  C   UNL     1       1.976   3.920  19.164  0.00  0.00    +0.000 A 
ATOM      2  C   UNL     1       1.232   4.223  20.316  0.00  0.00    +0.000 A 
ATOM      3  C   UNL     1       1.490   3.582  21.529  0.00  0.00    +0.000 A 
ATOM      4  C   UNL     1       2.500   2.633  21.606  0.00  0.00    +0.000 A 
ATOM      5  C   UNL     1       3.244   2.318  20.472  0.00  0.00    +0.000 A 
ATOM      6  C   UNL     1       2.983   2.950  19.236  0.00  0.00    +0.000 A 
ENDROOT
BRANCH   6   7
ATOM      7  C   UNL     1       3.889   2.578  18.131  0.00  0.00    +0.000 C 
ATOM      8  O   UNL     1       3.881   1.460  17.638  0.00  0.00    +0.000 OA
BRANCH   7   9
ATOM      9  O   UNL     1       4.814   3.544  17.974  0.00  0.00    +0.000 OA
BRANCH   9  10
ATOM     10  C   UNL     1       5.155   3.978  16.652  0.00  0.00    +0.000 C 
BRANCH  10  11
ATOM     11  C   UNL     1       6.621   3.899  16.222  0.00  0.00    +0.000 C 
BRANCH  11  12
ATOM     12  C   UNL     1       7.060   5.008  15.264  0.00  0.00    +0.000 C 
BRANCH  12  13
ATOM     13  C   UNL     1       6.223   5.100  13.984  0.00  0.00    +0.000 C 
BRANCH  13  14
ATOM     14  C   UNL     1       6.230   3.799  13.185  0.00  0.00    +0.000 C 
BRANCH  14  15
ATOM     15  C   UNL     1       4.823   3.372  12.785  0.00  0.00    +0.000 C 
BRANCH  15  16
ATOM     16  C   UNL     1       4.780   3.043  11.294  0.00  0.00    +0.000 C 
BRANCH  16  17
ATOM     17  C   UNL     1       3.350   3.053  10.766  0.00  0.00    +0.000 C 
ATOM     18  C   UNL     1       3.128   4.212   9.810  0.00  0.00    +0.000 C 
ENDBRANCH  16  17
ENDBRANCH  15  16
ENDBRANCH  14  15
ENDBRANCH  13  14
ENDBRANCH  12  13
ENDBRANCH  11  12
ENDBRANCH  10  11
ENDBRANCH   9  10
ENDBRANCH   7   9
ENDBRANCH   6   7
BRANCH   1  19
ATOM     19  C   UNL     1       1.600   4.663  17.940  0.00  0.00    +0.000 C 
ATOM     20  O   UNL     1       0.787   4.230  17.143  0.00  0.00    +0.000 OA
BRANCH  19  21
ATOM     21  O   UNL     1       2.428   5.717  17.768  0.00  0.00    +0.000 OA
BRANCH  21  22
ATOM     22  C   UNL     1       2.796   6.401  18.974  0.00  0.00    +0.000 C 
BRANCH  22  23
ATOM     23  C   UNL     1       2.158   7.782  19.093  0.00  0.00    +0.000 C 
BRANCH  23  24
ATOM     24  C   UNL     1       2.155   8.588  17.790  0.00  0.00    +0.000 C 
BRANCH  24  25
ATOM     25  C   UNL     1       1.651  10.028  17.922  0.00  0.00    +0.000 C 
BRANCH  25  26
ATOM     26  C   UNL     1       0.512  10.153  18.934  0.00  0.00    +0.000 C 
BRANCH  26  27
ATOM     27  C   UNL     1      -0.311  11.418  18.706  0.00  0.00    +0.000 C 
BRANCH  27  28
ATOM     28  C   UNL     1      -1.600  11.087  17.953  0.00  0.00    +0.000 C 
BRANCH  28  30
ATOM     29  C   UNL     1      -2.431  12.317  19.984  0.00  0.00    +0.000 C 
ATOM     30  C   UNL     1      -2.819  11.651  18.675  0.00  0.00    +0.000 C 
ENDBRANCH  28  30
ENDBRANCH  27  28
ENDBRANCH  26  27
ENDBRANCH  25  26
ENDBRANCH  24  25
ENDBRANCH  23  24
ENDBRANCH  22  23
ENDBRANCH  21  22
ENDBRANCH  19  21
ENDBRANCH   1  19
TORSDOF 20
ENDMDL
MODEL 9
REMARK VINA RESULT:      -6.0      1.624      2.662
REMARK  Name = 
REMARK  22 active torsions:
REMARK  status: ('A' for Active; 'I' for Inactive)
REMARK    1  A    between atoms: C_1  and  C_2
REMARK    2  A    between atoms: C_2  and  C_3
REMARK    3  A    between atoms: C_3  and  C_4
REMARK    4  A    between atoms: C_4  and  C_5
REMARK    5  A    between atoms: C_5  and  C_6
REMARK    6  A    between atoms: C_6  and  C_7
REMARK    7  A    between atoms: C_7  and  C_8
REMARK    8  A    between atoms: C_8  and  C_9
REMARK    9  A    between atoms: C_9  and  O_10
REMARK   10  A    between atoms: O_10  and  C_11
REMARK   11  A    between atoms: C_11  and  C_13
REMARK   12  A    between atoms: C_18  and  C_19
REMARK   13  A    between atoms: C_19  and  O_21
REMARK   14  A    between atoms: O_21  and  C_22
REMARK   15  A    between atoms: C_22  and  C_23
REMARK   16  A    between atoms: C_23  and  C_24
REMARK   17  A    between atoms: C_24  and  C_25
REMARK   18  A    between atoms: C_25  and  C_26
REMARK   19  A    between atoms: C_26  and  C_27
REMARK   20  A    between atoms: C_27  and  C_28
REMARK   21  A    between atoms: C_28  and  C_29
REMARK   22  A    between atoms: C_29  and  C_30
REMARK                            x       y       z     vdW  Elec       q    Type
REMARK                         _______ _______ _______ _____ _____    ______ ____
ROOT
ATOM      1  C   UNL     1       2.490   5.022  19.282  0.00  0.00    +0.000 A 
ATOM      2  C   UNL     1       1.846   5.158  20.523  0.00  0.00    +0.000 A 
ATOM      3  C   UNL     1       1.130   4.099  21.083  0.00  0.00    +0.000 A 
ATOM      4  C   UNL     1       1.054   2.886  20.410  0.00  0.00    +0.000 A 
ATOM      5  C   UNL     1       1.683   2.737  19.178  0.00  0.00    +0.000 A 
ATOM      6  C   UNL     1       2.399   3.806  18.595  0.00  0.00    +0.000 A 
ENDROOT
BRANCH   6   7
ATOM      7  C   UNL     1       3.077   3.494  17.321  0.00  0.00    +0.000 C 
ATOM      8  O   UNL     1       2.463   3.400  16.268  0.00  0.00    +0.000 OA
BRANCH   7   9
ATOM      9  O   UNL     1       4.343   3.112  17.576  0.00  0.00    +0.000 OA
BRANCH   9  10
ATOM     10  C   UNL     1       5.426   3.842  16.988  0.00  0.00    +0.000 C 
BRANCH  10  11
ATOM     11  C   UNL     1       5.285   4.296  15.534  0.00  0.00    +0.000 C 
BRANCH  11  12
ATOM     12  C   UNL     1       6.372   3.766  14.597  0.00  0.00    +0.000 C 
BRANCH  12  13
ATOM     13  C   UNL     1       6.797   4.752  13.505  0.00  0.00    +0.000 C 
BRANCH  13  14
ATOM     14  C   UNL     1       6.674   4.159  12.103  0.00  0.00    +0.000 C 
BRANCH  14  15
ATOM     15  C   UNL     1       6.307   2.681  12.142  0.00  0.00    +0.000 C 
BRANCH  15  16
ATOM     16  C   UNL     1       5.072   2.425  11.281  0.00  0.00    +0.000 C 
BRANCH  16  17
ATOM     17  C   UNL     1       4.171   3.654  11.227  0.00  0.00    +0.000 C 
ATOM     18  C   UNL     1       3.141   3.528  10.118  0.00  0.00    +0.000 C 
ENDBRANCH  16  17
ENDBRANCH  15  16
ENDBRANCH  14  15
ENDBRANCH  13  14
ENDBRANCH  12  13
ENDBRANCH  11  12
ENDBRANCH  10  11
ENDBRANCH   9  10
ENDBRANCH   7   9
ENDBRANCH   6   7
BRANCH   1  19
ATOM     19  C   UNL     1       3.209   6.220  18.794  0.00  0.00    +0.000 C 
ATOM     20  O   UNL     1       4.422   6.252  18.691  0.00  0.00    +0.000 OA
BRANCH  19  21
ATOM     21  O   UNL     1       2.356   7.266  18.710  0.00  0.00    +0.000 OA
BRANCH  21  22
ATOM     22  C   UNL     1       2.563   8.126  17.581  0.00  0.00    +0.000 C 
BRANCH  22  23
ATOM     23  C   UNL     1       2.073   9.551  17.822  0.00  0.00    +0.000 C 
BRANCH  23  24
ATOM     24  C   UNL     1       0.558   9.671  18.013  0.00  0.00    +0.000 C 
BRANCH  24  25
ATOM     25  C   UNL     1       0.078  11.028  18.538  0.00  0.00    +0.000 C 
BRANCH  25  26
ATOM     26  C   UNL     1      -0.532  10.926  19.936  0.00  0.00    +0.000 C 
BRANCH  26  27
ATOM     27  C   UNL     1       0.540  10.792  21.014  0.00  0.00    +0.000 C 
BRANCH  27  28
ATOM     28  C   UNL     1       0.716   9.327  21.413  0.00  0.00    +0.000 C 
BRANCH  28  30
ATOM     29  C   UNL     1      -0.768  10.018  23.323  0.00  0.00    +0.000 C 
ATOM     30  C   UNL     1      -0.371   8.888  22.389  0.00  0.00    +0.000 C 
ENDBRANCH  28  30
ENDBRANCH  27  28
ENDBRANCH  26  27
ENDBRANCH  25  26
ENDBRANCH  24  25
ENDBRANCH  23  24
ENDBRANCH  22  23
ENDBRANCH  21  22
ENDBRANCH  19  21
ENDBRANCH   1  19
TORSDOF 20
ENDMDL
