MODEL 1
REMARK VINA RESULT:      -6.8      0.000      0.000
REMARK  Name = 
REMARK  9 active torsions:
REMARK  status: ('A' for Active; 'I' for Inactive)
REMARK    1  A    between atoms: C_1  and  O_2
REMARK    2  A    between atoms: O_2  and  C_3
REMARK    3  A    between atoms: C_6  and  S_7
REMARK    4  A    between atoms: S_7  and  N_10
REMARK    5  A    between atoms: N_10  and  C_11
REMARK    6  A    between atoms: N_10  and  C_12
REMARK    7  A    between atoms: C_12  and  C_13
REMARK    8  A    between atoms: C_21  and  O_22
REMARK    9  A    between atoms: O_22  and  C_23
REMARK                            x       y       z     vdW  Elec       q    Type
REMARK                         _______ _______ _______ _____ _____    ______ ____
ROOT
ATOM      1  S   UNL     1       3.188   3.145  19.401  0.00  0.00    +0.000 S 
ATOM      2  O   UNL     1       2.369   2.180  18.699  0.00  0.00    +0.000 OA
ATOM      3  O   UNL     1       3.818   2.818  20.661  0.00  0.00    +0.000 OA
ENDROOT
BRANCH   1   7
ATOM      4  C   UNL     1       6.273   4.837  16.487  0.00  0.00    +0.000 A 
ATOM      5  C   UNL     1       5.054   4.321  16.021  0.00  0.00    +0.000 A 
ATOM      6  C   UNL     1       4.142   3.748  16.900  0.00  0.00    +0.000 A 
ATOM      7  C   UNL     1       4.451   3.670  18.261  0.00  0.00    +0.000 A 
ATOM      8  C   UNL     1       5.707   4.067  18.719  0.00  0.00    +0.000 A 
ATOM      9  C   UNL     1       6.625   4.664  17.840  0.00  0.00    +0.000 A 
BRANCH   4  11
ATOM     10  C   UNL     1       7.094   5.048  14.275  0.00  0.00    +0.000 C 
ATOM     11  O   UNL     1       7.130   5.484  15.636  0.00  0.00    +0.000 OA
ENDBRANCH   4  11
BRANCH   9  12
ATOM     12  O   UNL     1       7.775   5.039  18.481  0.00  0.00    +0.000 OA
ATOM     13  C   UNL     1       7.970   6.405  18.812  0.00  0.00    +0.000 C 
ENDBRANCH   9  12
ENDBRANCH   1   7
BRANCH   1  14
ATOM     14  N   UNL     1       2.235   4.547  19.585  0.00  0.00    +0.000 NA
ATOM     15  C   UNL     1       0.994   4.411  20.368  0.00  0.00    +0.000 C 
BRANCH  14  16
ATOM     16  C   UNL     1       2.999   5.796  19.868  0.00  0.00    +0.000 C 
BRANCH  16  17
ATOM     17  C   UNL     1       2.760   6.914  18.869  0.00  0.00    +0.000 C 
ATOM     18  O   UNL     1       3.212   6.835  17.724  0.00  0.00    +0.000 OA
ATOM     19  N   UNL     1       2.039   8.004  19.293  0.00  0.00    +0.000 N 
ATOM     20  C   UNL     1       1.478   8.221  20.613  0.00  0.00    +0.000 C 
ATOM     21  C   UNL     1       0.415   9.276  20.364  0.00  0.00    +0.000 C 
ATOM     22  C   UNL     1       1.014  10.131  19.251  0.00  0.00    +0.000 C 
ATOM     23  C   UNL     1       1.868   9.163  18.442  0.00  0.00    +0.000 C 
ENDBRANCH  16  17
ENDBRANCH  14  16
ENDBRANCH   1  14
TORSDOF 6
ENDMDL
MODEL 2
REMARK VINA RESULT:      -6.7      2.071      5.934
REMARK  Name = 
REMARK  9 active torsions:
REMARK  status: ('A' for Active; 'I' for Inactive)
REMARK    1  A    between atoms: C_1  and  O_2
REMARK    2  A    between atoms: O_2  and  C_3
REMARK    3  A    between atoms: C_6  and  S_7
REMARK    4  A    between atoms: S_7  and  N_10
REMARK    5  A    between atoms: N_10  and  C_11
REMARK    6  A    between atoms: N_10  and  C_12
REMARK    7  A    between atoms: C_12  and  C_13
REMARK    8  A    between atoms: C_21  and  O_22
REMARK    9  A    between atoms: O_22  and  C_23
REMARK                            x       y       z     vdW  Elec       q    Type
REMARK                         _______ _______ _______ _____ _____    ______ ____
ROOT
ATOM      1  S   UNL     1       1.740   3.971  19.354  0.00  0.00    +0.000 S 
ATOM      2  O   UNL     1       0.850   3.675  20.456  0.00  0.00    +0.000 OA
ATOM      3  O   UNL     1       1.445   3.520  18.011  0.00  0.00    +0.000 OA
ENDROOT
BRANCH   1   7
ATOM      4  C   UNL     1       1.914   8.530  19.110  0.00  0.00    +0.000 A 
ATOM      5  C   UNL     1       2.346   7.737  18.035  0.00  0.00    +0.000 A 
ATOM      6  C   UNL     1       2.353   6.350  18.132  0.00  0.00    +0.000 A 
ATOM      7  C   UNL     1       1.942   5.740  19.320  0.00  0.00    +0.000 A 
ATOM      8  C   UNL     1       1.626   6.515  20.435  0.00  0.00    +0.000 A 
ATOM      9  C   UNL     1       1.598   7.916  20.338  0.00  0.00    +0.000 A 
BRANCH   4  11
ATOM     10  C   UNL     1       0.559  10.379  18.516  0.00  0.00    +0.000 C 
ATOM     11  O   UNL     1       1.819   9.890  18.982  0.00  0.00    +0.000 OA
ENDBRANCH   4  11
BRANCH   9  12
ATOM     12  O   UNL     1       1.212   8.502  21.514  0.00  0.00    +0.000 OA
ATOM     13  C   UNL     1      -0.171   8.701  21.767  0.00  0.00    +0.000 C 
ENDBRANCH   9  12
ENDBRANCH   1   7
BRANCH   1  14
ATOM     14  N   UNL     1       3.286   3.420  19.817  0.00  0.00    +0.000 NA
ATOM     15  C   UNL     1       3.346   2.478  20.949  0.00  0.00    +0.000 C 
BRANCH  14  16
ATOM     16  C   UNL     1       4.195   3.071  18.687  0.00  0.00    +0.000 C 
BRANCH  16  17
ATOM     17  C   UNL     1       5.353   4.035  18.498  0.00  0.00    +0.000 C 
ATOM     18  O   UNL     1       5.923   4.526  19.475  0.00  0.00    +0.000 OA
ATOM     19  N   UNL     1       5.724   4.338  17.210  0.00  0.00    +0.000 N 
ATOM     20  C   UNL     1       5.121   3.845  15.987  0.00  0.00    +0.000 C 
ATOM     21  C   UNL     1       6.202   4.086  14.949  0.00  0.00    +0.000 C 
ATOM     22  C   UNL     1       6.872   5.372  15.424  0.00  0.00    +0.000 C 
ATOM     23  C   UNL     1       6.737   5.336  16.941  0.00  0.00    +0.000 C 
ENDBRANCH  16  17
ENDBRANCH  14  16
ENDBRANCH   1  14
TORSDOF 6
ENDMDL
MODEL 3
REMARK VINA RESULT:      -6.6      2.316      6.005
REMARK  Name = 
REMARK  9 active torsions:
REMARK  status: ('A' for Active; 'I' for Inactive)
REMARK    1  A    between atoms: C_1  and  O_2
REMARK    2  A    between atoms: O_2  and  C_3
REMARK    3  A    between atoms: C_6  and  S_7
REMARK    4  A    between atoms: S_7  and  N_10
REMARK    5  A    between atoms: N_10  and  C_11
REMARK    6  A    between atoms: N_10  and  C_12
REMARK    7  A    between atoms: C_12  and  C_13
REMARK    8  A    between atoms: C_21  and  O_22
REMARK    9  A    between atoms: O_22  and  C_23
REMARK                            x       y       z     vdW  Elec       q    Type
REMARK                         _______ _______ _______ _____ _____    ______ ____
ROOT
ATOM      1  S   UNL     1       5.039   6.008  17.910  0.00  0.00    +0.000 S 
ATOM      2  O   UNL     1       5.788   6.920  17.071  0.00  0.00    +0.000 OA
ATOM      3  O   UNL     1       5.644   5.390  19.069  0.00  0.00    +0.000 OA
ENDROOT
BRANCH   1   7
ATOM      4  C   UNL     1       1.511   8.437  19.498  0.00  0.00    +0.000 A 
ATOM      5  C   UNL     1       1.898   7.241  20.123  0.00  0.00    +0.000 A 
ATOM      6  C   UNL     1       2.930   6.468  19.603  0.00  0.00    +0.000 A 
ATOM      7  C   UNL     1       3.578   6.880  18.435  0.00  0.00    +0.000 A 
ATOM      8  C   UNL     1       3.125   8.000  17.738  0.00  0.00    +0.000 A 
ATOM      9  C   UNL     1       2.096   8.795  18.268  0.00  0.00    +0.000 A 
BRANCH   4  11
ATOM     10  C   UNL     1       0.946   9.909  21.265  0.00  0.00    +0.000 C 
ATOM     11  O   UNL     1       0.558   9.244  20.061  0.00  0.00    +0.000 OA
ENDBRANCH   4  11
BRANCH   9  12
ATOM     12  O   UNL     1       1.829   9.878  17.474  0.00  0.00    +0.000 OA
ATOM     13  C   UNL     1       2.252  11.166  17.895  0.00  0.00    +0.000 C 
ENDBRANCH   9  12
ENDBRANCH   1   7
BRANCH   1  14
ATOM     14  N   UNL     1       4.414   4.802  16.880  0.00  0.00    +0.000 NA
ATOM     15  C   UNL     1       5.050   4.661  15.557  0.00  0.00    +0.000 C 
BRANCH  14  16
ATOM     16  C   UNL     1       4.100   3.505  17.545  0.00  0.00    +0.000 C 
BRANCH  16  17
ATOM     17  C   UNL     1       2.651   3.358  17.972  0.00  0.00    +0.000 C 
ATOM     18  O   UNL     1       1.744   3.430  17.139  0.00  0.00    +0.000 OA
ATOM     19  N   UNL     1       2.399   3.155  19.307  0.00  0.00    +0.000 N 
ATOM     20  C   UNL     1       3.373   3.075  20.379  0.00  0.00    +0.000 C 
ATOM     21  C   UNL     1       2.611   2.364  21.484  0.00  0.00    +0.000 C 
ATOM     22  C   UNL     1       1.181   2.867  21.310  0.00  0.00    +0.000 C 
ATOM     23  C   UNL     1       1.043   3.123  19.815  0.00  0.00    +0.000 C 
ENDBRANCH  16  17
ENDBRANCH  14  16
ENDBRANCH   1  14
TORSDOF 6
ENDMDL
MODEL 4
REMARK VINA RESULT:      -6.6      1.188      1.302
REMARK  Name = 
REMARK  9 active torsions:
REMARK  status: ('A' for Active; 'I' for Inactive)
REMARK    1  A    between atoms: C_1  and  O_2
REMARK    2  A    between atoms: O_2  and  C_3
REMARK    3  A    between atoms: C_6  and  S_7
REMARK    4  A    between atoms: S_7  and  N_10
REMARK    5  A    between atoms: N_10  and  C_11
REMARK    6  A    between atoms: N_10  and  C_12
REMARK    7  A    between atoms: C_12  and  C_13
REMARK    8  A    between atoms: C_21  and  O_22
REMARK    9  A    between atoms: O_22  and  C_23
REMARK                            x       y       z     vdW  Elec       q    Type
REMARK                         _______ _______ _______ _____ _____    ______ ____
ROOT
ATOM      1  S   UNL     1       3.936   3.496  18.463  0.00  0.00    +0.000 S 
ATOM      2  O   UNL     1       3.284   2.341  17.883  0.00  0.00    +0.000 OA
ATOM      3  O   UNL     1       4.511   3.443  19.789  0.00  0.00    +0.000 OA
ENDROOT
BRANCH   1   7
ATOM      4  C   UNL     1       6.949   5.041  15.397  0.00  0.00    +0.000 A 
ATOM      5  C   UNL     1       6.026   4.040  15.054  0.00  0.00    +0.000 A 
ATOM      6  C   UNL     1       5.151   3.524  16.004  0.00  0.00    +0.000 A 
ATOM      7  C   UNL     1       5.204   3.996  17.318  0.00  0.00    +0.000 A 
ATOM      8  C   UNL     1       6.195   4.900  17.700  0.00  0.00    +0.000 A 
ATOM      9  C   UNL     1       7.069   5.439  16.743  0.00  0.00    +0.000 A 
BRANCH   4  11
ATOM     10  C   UNL     1       7.725   4.981  13.160  0.00  0.00    +0.000 C 
ATOM     11  O   UNL     1       7.746   5.614  14.441  0.00  0.00    +0.000 OA
ENDBRANCH   4  11
BRANCH   9  12
ATOM     12  O   UNL     1       7.931   6.349  17.293  0.00  0.00    +0.000 OA
ATOM     13  C   UNL     1       7.501   7.690  17.474  0.00  0.00    +0.000 C 
ENDBRANCH   9  12
ENDBRANCH   1   7
BRANCH   1  14
ATOM     14  N   UNL     1       2.817   4.779  18.376  0.00  0.00    +0.000 NA
ATOM     15  C   UNL     1       1.388   4.417  18.355  0.00  0.00    +0.000 C 
BRANCH  14  16
ATOM     16  C   UNL     1       3.134   5.952  19.241  0.00  0.00    +0.000 C 
BRANCH  16  17
ATOM     17  C   UNL     1       2.542   7.264  18.756  0.00  0.00    +0.000 C 
ATOM     18  O   UNL     1       2.737   7.646  17.599  0.00  0.00    +0.000 OA
ATOM     19  N   UNL     1       1.802   7.997  19.651  0.00  0.00    +0.000 N 
ATOM     20  C   UNL     1       1.522   7.665  21.034  0.00  0.00    +0.000 C 
ATOM     21  C   UNL     1       0.307   8.517  21.354  0.00  0.00    +0.000 C 
ATOM     22  C   UNL     1       0.533   9.783  20.533  0.00  0.00    +0.000 C 
ATOM     23  C   UNL     1       1.303   9.312  19.306  0.00  0.00    +0.000 C 
ENDBRANCH  16  17
ENDBRANCH  14  16
ENDBRANCH   1  14
TORSDOF 6
ENDMDL
MODEL 5
REMARK VINA RESULT:      -6.6      2.208      5.462
REMARK  Name = 
REMARK  9 active torsions:
REMARK  status: ('A' for Active; 'I' for Inactive)
REMARK    1  A    between atoms: C_1  and  O_2
REMARK    2  A    between atoms: O_2  and  C_3
REMARK    3  A    between atoms: C_6  and  S_7
REMARK    4  A    between atoms: S_7  and  N_10
REMARK    5  A    between atoms: N_10  and  C_11
REMARK    6  A    between atoms: N_10  and  C_12
REMARK    7  A    between atoms: C_12  and  C_13
REMARK    8  A    between atoms: C_21  and  O_22
REMARK    9  A    between atoms: O_22  and  C_23
REMARK                            x       y       z     vdW  Elec       q    Type
REMARK                         _______ _______ _______ _____ _____    ______ ____
ROOT
ATOM      1  S   UNL     1       5.699   4.988  18.053  0.00  0.00    +0.000 S 
ATOM      2  O   UNL     1       6.819   5.604  17.374  0.00  0.00    +0.000 OA
ATOM      3  O   UNL     1       5.868   4.326  19.327  0.00  0.00    +0.000 OA
ENDROOT
BRANCH   1   7
ATOM      4  C   UNL     1       2.287   8.018  18.291  0.00  0.00    +0.000 A 
ATOM      5  C   UNL     1       3.248   8.098  17.271  0.00  0.00    +0.000 A 
ATOM      6  C   UNL     1       4.323   7.216  17.235  0.00  0.00    +0.000 A 
ATOM      7  C   UNL     1       4.455   6.249  18.235  0.00  0.00    +0.000 A 
ATOM      8  C   UNL     1       3.578   6.235  19.319  0.00  0.00    +0.000 A 
ATOM      9  C   UNL     1       2.480   7.111  19.352  0.00  0.00    +0.000 A 
BRANCH   4  11
ATOM     10  C   UNL     1       1.442  10.229  18.347  0.00  0.00    +0.000 C 
ATOM     11  O   UNL     1       1.181   8.826  18.276  0.00  0.00    +0.000 OA
ENDBRANCH   4  11
BRANCH   9  12
ATOM     12  O   UNL     1       1.702   6.911  20.461  0.00  0.00    +0.000 OA
ATOM     13  C   UNL     1       1.433   8.005  21.324  0.00  0.00    +0.000 C 
ENDBRANCH   9  12
ENDBRANCH   1   7
BRANCH   1  14
ATOM     14  N   UNL     1       4.989   3.911  16.938  0.00  0.00    +0.000 NA
ATOM     15  C   UNL     1       5.773   3.587  15.733  0.00  0.00    +0.000 C 
BRANCH  14  16
ATOM     16  C   UNL     1       4.297   2.739  17.547  0.00  0.00    +0.000 C 
BRANCH  16  17
ATOM     17  C   UNL     1       2.828   2.970  17.853  0.00  0.00    +0.000 C 
ATOM     18  O   UNL     1       2.021   3.150  16.937  0.00  0.00    +0.000 OA
ATOM     19  N   UNL     1       2.447   2.980  19.172  0.00  0.00    +0.000 N 
ATOM     20  C   UNL     1       3.301   2.804  20.331  0.00  0.00    +0.000 C 
ATOM     21  C   UNL     1       2.322   2.412  21.423  0.00  0.00    +0.000 C 
ATOM     22  C   UNL     1       1.063   3.200  21.074  0.00  0.00    +0.000 C 
ATOM     23  C   UNL     1       1.090   3.311  19.555  0.00  0.00    +0.000 C 
ENDBRANCH  16  17
ENDBRANCH  14  16
ENDBRANCH   1  14
TORSDOF 6
ENDMDL
MODEL 6
REMARK VINA RESULT:      -6.4      1.652      2.771
REMARK  Name = 
REMARK  9 active torsions:
REMARK  status: ('A' for Active; 'I' for Inactive)
REMARK    1  A    between atoms: C_1  and  O_2
REMARK    2  A    between atoms: O_2  and  C_3
REMARK    3  A    between atoms: C_6  and  S_7
REMARK    4  A    between atoms: S_7  and  N_10
REMARK    5  A    between atoms: N_10  and  C_11
REMARK    6  A    between atoms: N_10  and  C_12
REMARK    7  A    between atoms: C_12  and  C_13
REMARK    8  A    between atoms: C_21  and  O_22
REMARK    9  A    between atoms: O_22  and  C_23
REMARK                            x       y       z     vdW  Elec       q    Type
REMARK                         _______ _______ _______ _____ _____    ______ ____
ROOT
ATOM      1  S   UNL     1       4.090   2.178  19.309  0.00  0.00    +0.000 S 
ATOM      2  O   UNL     1       3.733   1.256  18.251  0.00  0.00    +0.000 OA
ATOM      3  O   UNL     1       5.014   1.795  20.355  0.00  0.00    +0.000 OA
ENDROOT
BRANCH   1   7
ATOM      4  C   UNL     1       6.033   5.794  17.305  0.00  0.00    +0.000 A 
ATOM      5  C   UNL     1       5.926   5.720  18.703  0.00  0.00    +0.000 A 
ATOM      6  C   UNL     1       5.278   4.651  19.311  0.00  0.00    +0.000 A 
ATOM      7  C   UNL     1       4.712   3.647  18.519  0.00  0.00    +0.000 A 
ATOM      8  C   UNL     1       4.705   3.769  17.130  0.00  0.00    +0.000 A 
ATOM      9  C   UNL     1       5.374   4.836  16.509  0.00  0.00    +0.000 A 
BRANCH   4  11
ATOM     10  C   UNL     1       7.635   7.518  17.573  0.00  0.00    +0.000 C 
ATOM     11  O   UNL     1       6.751   6.798  16.710  0.00  0.00    +0.000 OA
ENDBRANCH   4  11
BRANCH   9  12
ATOM     12  O   UNL     1       5.307   4.756  15.144  0.00  0.00    +0.000 OA
ATOM     13  C   UNL     1       6.196   3.889  14.457  0.00  0.00    +0.000 C 
ENDBRANCH   9  12
ENDBRANCH   1   7
BRANCH   1  14
ATOM     14  N   UNL     1       2.627   2.709  20.005  0.00  0.00    +0.000 NA
ATOM     15  C   UNL     1       2.600   2.854  21.471  0.00  0.00    +0.000 C 
BRANCH  14  16
ATOM     16  C   UNL     1       1.946   3.816  19.272  0.00  0.00    +0.000 C 
BRANCH  16  17
ATOM     17  C   UNL     1       1.912   5.134  20.025  0.00  0.00    +0.000 C 
ATOM     18  O   UNL     1       1.720   5.153  21.243  0.00  0.00    +0.000 OA
ATOM     19  N   UNL     1       2.091   6.286  19.298  0.00  0.00    +0.000 N 
ATOM     20  C   UNL     1       2.301   6.394  17.868  0.00  0.00    +0.000 C 
ATOM     21  C   UNL     1       2.918   7.773  17.714  0.00  0.00    +0.000 C 
ATOM     22  C   UNL     1       2.237   8.592  18.807  0.00  0.00    +0.000 C 
ATOM     23  C   UNL     1       1.955   7.588  19.918  0.00  0.00    +0.000 C 
ENDBRANCH  16  17
ENDBRANCH  14  16
ENDBRANCH   1  14
TORSDOF 6
ENDMDL
MODEL 7
REMARK VINA RESULT:      -6.4      0.931      1.120
REMARK  Name = 
REMARK  9 active torsions:
REMARK  status: ('A' for Active; 'I' for Inactive)
REMARK    1  A    between atoms: C_1  and  O_2
REMARK    2  A    between atoms: O_2  and  C_3
REMARK    3  A    between atoms: C_6  and  S_7
REMARK    4  A    between atoms: S_7  and  N_10
REMARK    5  A    between atoms: N_10  and  C_11
REMARK    6  A    between atoms: N_10  and  C_12
REMARK    7  A    between atoms: C_12  and  C_13
REMARK    8  A    between atoms: C_21  and  O_22
REMARK    9  A    between atoms: O_22  and  C_23
REMARK                            x       y       z     vdW  Elec       q    Type
REMARK                         _______ _______ _______ _____ _____    ______ ____
ROOT
ATOM      1  S   UNL     1       3.136   3.143  19.050  0.00  0.00    +0.000 S 
ATOM      2  O   UNL     1       2.414   2.323  18.101  0.00  0.00    +0.000 OA
ATOM      3  O   UNL     1       3.692   2.575  20.259  0.00  0.00    +0.000 OA
ENDROOT
BRANCH   1   7
ATOM      4  C   UNL     1       6.377   5.510  16.868  0.00  0.00    +0.000 A 
ATOM      5  C   UNL     1       5.125   5.291  16.272  0.00  0.00    +0.000 A 
ATOM      6  C   UNL     1       4.160   4.517  16.908  0.00  0.00    +0.000 A 
ATOM      7  C   UNL     1       4.448   3.936  18.147  0.00  0.00    +0.000 A 
ATOM      8  C   UNL     1       5.727   4.045  18.692  0.00  0.00    +0.000 A 
ATOM      9  C   UNL     1       6.700   4.841  18.065  0.00  0.00    +0.000 A 
BRANCH   4  11
ATOM     10  C   UNL     1       7.585   7.542  17.013  0.00  0.00    +0.000 C 
ATOM     11  O   UNL     1       7.292   6.347  16.285  0.00  0.00    +0.000 OA
ENDBRANCH   4  11
BRANCH   9  12
ATOM     12  O   UNL     1       7.870   4.872  18.775  0.00  0.00    +0.000 OA
ATOM     13  C   UNL     1       7.899   5.530  20.033  0.00  0.00    +0.000 C 
ENDBRANCH   9  12
ENDBRANCH   1   7
BRANCH   1  14
ATOM     14  N   UNL     1       2.108   4.443  19.449  0.00  0.00    +0.000 NA
ATOM     15  C   UNL     1       0.846   4.109  20.135  0.00  0.00    +0.000 C 
BRANCH  14  16
ATOM     16  C   UNL     1       2.797   5.647  19.998  0.00  0.00    +0.000 C 
BRANCH  16  17
ATOM     17  C   UNL     1       2.410   6.950  19.321  0.00  0.00    +0.000 C 
ATOM     18  O   UNL     1       2.776   7.186  18.166  0.00  0.00    +0.000 OA
ATOM     19  N   UNL     1       1.657   7.843  20.043  0.00  0.00    +0.000 N 
ATOM     20  C   UNL     1       1.188   7.690  21.406  0.00  0.00    +0.000 C 
ATOM     21  C   UNL     1       0.044   8.685  21.490  0.00  0.00    +0.000 C 
ATOM     22  C   UNL     1       0.499   9.828  20.588  0.00  0.00    +0.000 C 
ATOM     23  C   UNL     1       1.347   9.155  19.515  0.00  0.00    +0.000 C 
ENDBRANCH  16  17
ENDBRANCH  14  16
ENDBRANCH   1  14
TORSDOF 6
ENDMDL
MODEL 8
REMARK VINA RESULT:      -6.4      2.778      4.771
REMARK  Name = 
REMARK  9 active torsions:
REMARK  status: ('A' for Active; 'I' for Inactive)
REMARK    1  A    between atoms: C_1  and  O_2
REMARK    2  A    between atoms: O_2  and  C_3
REMARK    3  A    between atoms: C_6  and  S_7
REMARK    4  A    between atoms: S_7  and  N_10
REMARK    5  A    between atoms: N_10  and  C_11
REMARK    6  A    between atoms: N_10  and  C_12
REMARK    7  A    between atoms: C_12  and  C_13
REMARK    8  A    between atoms: C_21  and  O_22
REMARK    9  A    between atoms: O_22  and  C_23
REMARK                            x       y       z     vdW  Elec       q    Type
REMARK                         _______ _______ _______ _____ _____    ______ ____
ROOT
ATOM      1  S   UNL     1       5.651   6.452  17.255  0.00  0.00    +0.000 S 
ATOM      2  O   UNL     1       6.573   7.567  17.225  0.00  0.00    +0.000 OA
ATOM      3  O   UNL     1       4.221   6.664  17.275  0.00  0.00    +0.000 OA
ENDROOT
BRANCH   1   7
ATOM      4  C   UNL     1       6.421   4.014  13.469  0.00  0.00    +0.000 A 
ATOM      5  C   UNL     1       5.390   3.660  14.353  0.00  0.00    +0.000 A 
ATOM      6  C   UNL     1       5.196   4.362  15.537  0.00  0.00    +0.000 A 
ATOM      7  C   UNL     1       6.048   5.422  15.858  0.00  0.00    +0.000 A 
ATOM      8  C   UNL     1       7.148   5.708  15.050  0.00  0.00    +0.000 A 
ATOM      9  C   UNL     1       7.339   5.015  13.843  0.00  0.00    +0.000 A 
BRANCH   4  11
ATOM     10  C   UNL     1       5.452   2.561  11.869  0.00  0.00    +0.000 C 
ATOM     11  O   UNL     1       6.554   3.383  12.260  0.00  0.00    +0.000 OA
ENDBRANCH   4  11
BRANCH   9  12
ATOM     12  O   UNL     1       8.435   5.471  13.161  0.00  0.00    +0.000 OA
ATOM     13  C   UNL     1       8.246   6.243  11.984  0.00  0.00    +0.000 C 
ENDBRANCH   9  12
ENDBRANCH   1   7
BRANCH   1  14
ATOM     14  N   UNL     1       6.105   5.483  18.583  0.00  0.00    +0.000 NA
ATOM     15  C   UNL     1       7.411   5.771  19.202  0.00  0.00    +0.000 C 
BRANCH  14  16
ATOM     16  C   UNL     1       5.015   5.207  19.563  0.00  0.00    +0.000 C 
BRANCH  16  17
ATOM     17  C   UNL     1       4.384   3.833  19.425  0.00  0.00    +0.000 C 
ATOM     18  O   UNL     1       5.086   2.843  19.208  0.00  0.00    +0.000 OA
ATOM     19  N   UNL     1       3.018   3.746  19.541  0.00  0.00    +0.000 N 
ATOM     20  C   UNL     1       2.089   4.835  19.772  0.00  0.00    +0.000 C 
ATOM     21  C   UNL     1       0.853   4.126  20.297  0.00  0.00    +0.000 C 
ATOM     22  C   UNL     1       0.853   2.801  19.541  0.00  0.00    +0.000 C 
ATOM     23  C   UNL     1       2.327   2.496  19.305  0.00  0.00    +0.000 C 
ENDBRANCH  16  17
ENDBRANCH  14  16
ENDBRANCH   1  14
TORSDOF 6
ENDMDL
MODEL 9
REMARK VINA RESULT:      -6.3      2.110      6.165
REMARK  Name = 
REMARK  9 active torsions:
REMARK  status: ('A' for Active; 'I' for Inactive)
REMARK    1  A    between atoms: C_1  and  O_2
REMARK    2  A    between atoms: O_2  and  C_3
REMARK    3  A    between atoms: C_6  and  S_7
REMARK    4  A    between atoms: S_7  and  N_10
REMARK    5  A    between atoms: N_10  and  C_11
REMARK    6  A    between atoms: N_10  and  C_12
REMARK    7  A    between atoms: C_12  and  C_13
REMARK    8  A    between atoms: C_21  and  O_22
REMARK    9  A    between atoms: O_22  and  C_23
REMARK                            x       y       z     vdW  Elec       q    Type
REMARK                         _______ _______ _______ _____ _____    ______ ____
ROOT
ATOM      1  S   UNL     1       2.170   4.497  19.844  0.00  0.00    +0.000 S 
ATOM      2  O   UNL     1       1.678   4.153  21.161  0.00  0.00    +0.000 OA
ATOM      3  O   UNL     1       1.612   3.892  18.654  0.00  0.00    +0.000 OA
ENDROOT
BRANCH   1   7
ATOM      4  C   UNL     1       1.457   8.982  19.342  0.00  0.00    +0.000 A 
ATOM      5  C   UNL     1       1.898   8.200  18.262  0.00  0.00    +0.000 A 
ATOM      6  C   UNL     1       2.177   6.848  18.430  0.00  0.00    +0.000 A 
ATOM      7  C   UNL     1       2.032   6.266  19.692  0.00  0.00    +0.000 A 
ATOM      8  C   UNL     1       1.712   7.054  20.797  0.00  0.00    +0.000 A 
ATOM      9  C   UNL     1       1.411   8.416  20.632  0.00  0.00    +0.000 A 
BRANCH   4  11
ATOM     10  C   UNL     1      -0.132  10.496  18.452  0.00  0.00    +0.000 C 
ATOM     11  O   UNL     1       1.095  10.290  19.157  0.00  0.00    +0.000 OA
ENDBRANCH   4  11
BRANCH   9  12
ATOM     12  O   UNL     1       1.066   9.010  21.816  0.00  0.00    +0.000 OA
ATOM     13  C   UNL     1      -0.307   9.134  22.154  0.00  0.00    +0.000 C 
ENDBRANCH   9  12
ENDBRANCH   1   7
BRANCH   1  14
ATOM     14  N   UNL     1       3.857   4.248  19.875  0.00  0.00    +0.000 NA
ATOM     15  C   UNL     1       4.346   2.940  19.404  0.00  0.00    +0.000 C 
BRANCH  14  16
ATOM     16  C   UNL     1       4.674   5.406  19.412  0.00  0.00    +0.000 C 
BRANCH  16  17
ATOM     17  C   UNL     1       5.997   5.021  18.775  0.00  0.00    +0.000 C 
ATOM     18  O   UNL     1       6.996   4.832  19.474  0.00  0.00    +0.000 OA
ATOM     19  N   UNL     1       6.034   4.904  17.407  0.00  0.00    +0.000 N 
ATOM     20  C   UNL     1       4.940   5.120  16.480  0.00  0.00    +0.000 C 
ATOM     21  C   UNL     1       5.395   4.385  15.232  0.00  0.00    +0.000 C 
ATOM     22  C   UNL     1       6.909   4.579  15.237  0.00  0.00    +0.000 C 
ATOM     23  C   UNL     1       7.281   4.656  16.712  0.00  0.00    +0.000 C 
ENDBRANCH  16  17
ENDBRANCH  14  16
ENDBRANCH   1  14
TORSDOF 6
ENDMDL
