MODEL 1
REMARK VINA RESULT:      -7.9      0.000      0.000
REMARK  Name = 
REMARK  9 active torsions:
REMARK  status: ('A' for Active; 'I' for Inactive)
REMARK    1  A    between atoms: C_1  and  C_2
REMARK    2  A    between atoms: C_5  and  N_6
REMARK    3  A    between atoms: N_7  and  C_8
REMARK    4  A    between atoms: C_9  and  C_10
REMARK    5  A    between atoms: C_13  and  C_15
REMARK    6  A    between atoms: C_15  and  C_16
REMARK    7  A    between atoms: N_18  and  C_19
REMARK    8  A    between atoms: C_26  and  C_27
REMARK    9  A    between atoms: C_29  and  C_30
REMARK                            x       y       z     vdW  Elec       q    Type
REMARK                         _______ _______ _______ _____ _____    ______ ____
ROOT
ATOM      1  C   UNL     1       0.589   9.194  20.792  0.00  0.00    +0.000 A 
ATOM      2  C   UNL     1       0.382   9.862  22.012  0.00  0.00    +0.000 A 
ATOM      3  C   UNL     1       0.417   9.332  23.396  0.00  0.00    +0.000 C 
ATOM      4  N   UNL     1       0.131  11.162  21.811  0.00  0.00    +0.000 NA
ATOM      5  N   UNL     1       0.065  11.306  20.445  0.00  0.00    +0.000 N 
ATOM      6  C   UNL     1      -0.279  12.568  19.912  0.00  0.00    +0.000 C 
ATOM      7  O   UNL     1      -0.657  12.675  18.754  0.00  0.00    +0.000 OA
ATOM      8  C   UNL     1       0.341  10.113  19.796  0.00  0.00    +0.000 A 
ATOM      9  C   UNL     1       0.399   9.927  18.319  0.00  0.00    +0.000 C 
ENDROOT
BRANCH   1  11
ATOM     10  N   UNL     1       2.027   7.716  20.047  0.00  0.00    +0.000 NA
ATOM     11  N   UNL     1       0.940   7.842  20.649  0.00  0.00    +0.000 NA
BRANCH  10  16
ATOM     12  C   UNL     1       3.403   2.220  19.116  0.00  0.00    +0.000 C 
ATOM     13  C   UNL     1       3.054   3.661  19.373  0.00  0.00    +0.000 A 
ATOM     14  C   UNL     1       3.626   4.662  18.575  0.00  0.00    +0.000 A 
ATOM     15  C   UNL     1       3.301   6.009  18.771  0.00  0.00    +0.000 A 
ATOM     16  C   UNL     1       2.388   6.386  19.760  0.00  0.00    +0.000 A 
ATOM     17  C   UNL     1       1.841   5.383  20.572  0.00  0.00    +0.000 A 
ATOM     18  C   UNL     1       2.162   4.026  20.397  0.00  0.00    +0.000 A 
ATOM     19  C   UNL     1       1.544   2.999  21.307  0.00  0.00    +0.000 C 
ENDBRANCH  10  16
ENDBRANCH   1  11
BRANCH   6  20
ATOM     20  C   UNL     1      -0.144  13.708  20.879  0.00  0.00    +0.000 C 
BRANCH  20  21
ATOM     21  C   UNL     1      -1.449  14.018  21.572  0.00  0.00    +0.000 C 
ATOM     22  O   UNL     1      -1.609  15.103  22.125  0.00  0.00    +0.000 OA
ATOM     23  N   UNL     1      -2.355  12.971  21.562  0.00  0.00    +0.000 N 
ATOM     24  H   UNL     1      -1.970  12.055  21.327  0.00  0.00    +0.000 HD
BRANCH  23  25
ATOM     25  C   UNL     1      -3.633  12.982  22.158  0.00  0.00    +0.000 A 
ATOM     26  C   UNL     1      -4.802  13.271  21.450  0.00  0.00    +0.000 A 
ATOM     27  C   UNL     1      -6.033  13.348  22.109  0.00  0.00    +0.000 A 
ATOM     28  C   UNL     1      -6.099  13.126  23.480  0.00  0.00    +0.000 A 
ATOM     29 CL   UNL     1      -7.603  13.279  24.300  0.00  0.00    +0.000 Cl
ATOM     30  C   UNL     1      -4.951  12.787  24.191  0.00  0.00    +0.000 A 
ATOM     31  C   UNL     1      -3.721  12.702  23.527  0.00  0.00    +0.000 A 
ENDBRANCH  23  25
ENDBRANCH  20  21
ENDBRANCH   6  20
TORSDOF 5
ENDMDL
MODEL 2
REMARK VINA RESULT:      -7.7      4.417      6.196
REMARK  Name = 
REMARK  9 active torsions:
REMARK  status: ('A' for Active; 'I' for Inactive)
REMARK    1  A    between atoms: C_1  and  C_2
REMARK    2  A    between atoms: C_5  and  N_6
REMARK    3  A    between atoms: N_7  and  C_8
REMARK    4  A    between atoms: C_9  and  C_10
REMARK    5  A    between atoms: C_13  and  C_15
REMARK    6  A    between atoms: C_15  and  C_16
REMARK    7  A    between atoms: N_18  and  C_19
REMARK    8  A    between atoms: C_26  and  C_27
REMARK    9  A    between atoms: C_29  and  C_30
REMARK                            x       y       z     vdW  Elec       q    Type
REMARK                         _______ _______ _______ _____ _____    ______ ____
ROOT
ATOM      1  C   UNL     1       0.979   9.108  20.575  0.00  0.00    +0.000 A 
ATOM      2  C   UNL     1       0.848   9.795  21.794  0.00  0.00    +0.000 A 
ATOM      3  C   UNL     1       0.780   9.260  23.175  0.00  0.00    +0.000 C 
ATOM      4  N   UNL     1       0.792  11.118  21.597  0.00  0.00    +0.000 NA
ATOM      5  N   UNL     1       0.773  11.275  20.230  0.00  0.00    +0.000 N 
ATOM      6  C   UNL     1       0.624  12.575  19.700  0.00  0.00    +0.000 C 
ATOM      7  O   UNL     1       0.288  12.739  18.535  0.00  0.00    +0.000 OA
ATOM      8  C   UNL     1       0.884  10.056  19.579  0.00  0.00    +0.000 A 
ATOM      9  C   UNL     1       0.941   9.868  18.103  0.00  0.00    +0.000 C 
ENDROOT
BRANCH   1  11
ATOM     10  N   UNL     1       2.209   7.438  19.862  0.00  0.00    +0.000 NA
ATOM     11  N   UNL     1       1.133   7.720  20.430  0.00  0.00    +0.000 NA
BRANCH  10  16
ATOM     12  C   UNL     1       2.832   1.807  18.936  0.00  0.00    +0.000 C 
ATOM     13  C   UNL     1       2.682   3.282  19.190  0.00  0.00    +0.000 A 
ATOM     14  C   UNL     1       3.278   4.198  18.312  0.00  0.00    +0.000 A 
ATOM     15  C   UNL     1       3.135   5.576  18.505  0.00  0.00    +0.000 A 
ATOM     16  C   UNL     1       2.381   6.071  19.573  0.00  0.00    +0.000 A 
ATOM     17  C   UNL     1       1.810   5.151  20.463  0.00  0.00    +0.000 A 
ATOM     18  C   UNL     1       1.951   3.763  20.291  0.00  0.00    +0.000 A 
ATOM     19  C   UNL     1       1.317   2.829  21.286  0.00  0.00    +0.000 C 
ENDBRANCH  10  16
ENDBRANCH   1  11
BRANCH   6  20
ATOM     20  C   UNL     1       0.906  13.680  20.676  0.00  0.00    +0.000 C 
BRANCH  20  21
ATOM     21  C   UNL     1       2.343  14.137  20.611  0.00  0.00    +0.000 C 
ATOM     22  O   UNL     1       3.100  13.922  21.554  0.00  0.00    +0.000 OA
ATOM     23  N   UNL     1       2.659  14.840  19.461  0.00  0.00    +0.000 N 
ATOM     24  H   UNL     1       1.864  15.185  18.920  0.00  0.00    +0.000 HD
BRANCH  23  25
ATOM     25  C   UNL     1       3.917  15.402  19.159  0.00  0.00    +0.000 A 
ATOM     26  C   UNL     1       4.855  14.774  18.336  0.00  0.00    +0.000 A 
ATOM     27  C   UNL     1       6.119  15.338  18.137  0.00  0.00    +0.000 A 
ATOM     28  C   UNL     1       6.444  16.542  18.753  0.00  0.00    +0.000 A 
ATOM     29 CL   UNL     1       8.018  17.207  18.555  0.00  0.00    +0.000 Cl
ATOM     30  C   UNL     1       5.502  17.206  19.535  0.00  0.00    +0.000 A 
ATOM     31  C   UNL     1       4.235  16.642  19.726  0.00  0.00    +0.000 A 
ENDBRANCH  23  25
ENDBRANCH  20  21
ENDBRANCH   6  20
TORSDOF 5
ENDMDL
MODEL 3
REMARK VINA RESULT:      -7.6      0.620      1.658
REMARK  Name = 
REMARK  9 active torsions:
REMARK  status: ('A' for Active; 'I' for Inactive)
REMARK    1  A    between atoms: C_1  and  C_2
REMARK    2  A    between atoms: C_5  and  N_6
REMARK    3  A    between atoms: N_7  and  C_8
REMARK    4  A    between atoms: C_9  and  C_10
REMARK    5  A    between atoms: C_13  and  C_15
REMARK    6  A    between atoms: C_15  and  C_16
REMARK    7  A    between atoms: N_18  and  C_19
REMARK    8  A    between atoms: C_26  and  C_27
REMARK    9  A    between atoms: C_29  and  C_30
REMARK                            x       y       z     vdW  Elec       q    Type
REMARK                         _______ _______ _______ _____ _____    ______ ____
ROOT
ATOM      1  C   UNL     1       0.881   9.036  20.687  0.00  0.00    +0.000 A 
ATOM      2  C   UNL     1       0.761   9.748  21.893  0.00  0.00    +0.000 A 
ATOM      3  C   UNL     1       0.810   9.251  23.290  0.00  0.00    +0.000 C 
ATOM      4  N   UNL     1       0.592  11.056  21.665  0.00  0.00    +0.000 NA
ATOM      5  N   UNL     1       0.488  11.170  20.298  0.00  0.00    +0.000 N 
ATOM      6  C   UNL     1       0.210  12.438  19.743  0.00  0.00    +0.000 C 
ATOM      7  O   UNL     1      -0.200  12.541  18.595  0.00  0.00    +0.000 OA
ATOM      8  C   UNL     1       0.660   9.944  19.674  0.00  0.00    +0.000 A 
ATOM      9  C   UNL     1       0.653   9.717  18.202  0.00  0.00    +0.000 C 
ENDROOT
BRANCH   1  11
ATOM     10  N   UNL     1       2.213   7.446  19.976  0.00  0.00    +0.000 NA
ATOM     11  N   UNL     1       1.136   7.660  20.570  0.00  0.00    +0.000 NA
BRANCH  10  16
ATOM     12  C   UNL     1       3.359   1.978  18.653  0.00  0.00    +0.000 C 
ATOM     13  C   UNL     1       3.045   3.411  18.989  0.00  0.00    +0.000 A 
ATOM     14  C   UNL     1       2.328   3.705  20.157  0.00  0.00    +0.000 A 
ATOM     15  C   UNL     1       2.043   5.028  20.512  0.00  0.00    +0.000 A 
ATOM     16  C   UNL     1       2.480   6.089  19.714  0.00  0.00    +0.000 A 
ATOM     17  C   UNL     1       3.172   5.788  18.533  0.00  0.00    +0.000 A 
ATOM     18  C   UNL     1       3.460   4.465  18.155  0.00  0.00    +0.000 A 
ATOM     19  C   UNL     1       4.202   4.209  16.872  0.00  0.00    +0.000 C 
ENDBRANCH  10  16
ENDBRANCH   1  11
BRANCH   6  20
ATOM     20  C   UNL     1       0.455  13.590  20.673  0.00  0.00    +0.000 C 
BRANCH  20  21
ATOM     21  C   UNL     1      -0.772  13.932  21.484  0.00  0.00    +0.000 C 
ATOM     22  O   UNL     1      -0.813  14.978  22.125  0.00  0.00    +0.000 OA
ATOM     23  N   UNL     1      -1.750  12.952  21.466  0.00  0.00    +0.000 N 
ATOM     24  H   UNL     1      -1.450  12.033  21.136  0.00  0.00    +0.000 HD
BRANCH  23  25
ATOM     25  C   UNL     1      -2.979  13.002  22.156  0.00  0.00    +0.000 A 
ATOM     26  C   UNL     1      -3.103  12.696  23.514  0.00  0.00    +0.000 A 
ATOM     27  C   UNL     1      -4.359  12.682  24.129  0.00  0.00    +0.000 A 
ATOM     28  C   UNL     1      -5.496  12.985  23.386  0.00  0.00    +0.000 A 
ATOM     29 CL   UNL     1      -7.046  12.910  24.128  0.00  0.00    +0.000 Cl
ATOM     30  C   UNL     1      -5.383  13.341  22.045  0.00  0.00    +0.000 A 
ATOM     31  C   UNL     1      -4.123  13.362  21.435  0.00  0.00    +0.000 A 
ENDBRANCH  23  25
ENDBRANCH  20  21
ENDBRANCH   6  20
TORSDOF 5
ENDMDL
MODEL 4
REMARK VINA RESULT:      -7.6      2.464      3.339
REMARK  Name = 
REMARK  9 active torsions:
REMARK  status: ('A' for Active; 'I' for Inactive)
REMARK    1  A    between atoms: C_1  and  C_2
REMARK    2  A    between atoms: C_5  and  N_6
REMARK    3  A    between atoms: N_7  and  C_8
REMARK    4  A    between atoms: C_9  and  C_10
REMARK    5  A    between atoms: C_13  and  C_15
REMARK    6  A    between atoms: C_15  and  C_16
REMARK    7  A    between atoms: N_18  and  C_19
REMARK    8  A    between atoms: C_26  and  C_27
REMARK    9  A    between atoms: C_29  and  C_30
REMARK                            x       y       z     vdW  Elec       q    Type
REMARK                         _______ _______ _______ _____ _____    ______ ____
ROOT
ATOM      1  C   UNL     1       1.043   9.635  19.758  0.00  0.00    +0.000 A 
ATOM      2  C   UNL     1       1.140  11.034  19.657  0.00  0.00    +0.000 A 
ATOM      3  C   UNL     1       1.824  11.860  18.633  0.00  0.00    +0.000 C 
ATOM      4  N   UNL     1       0.486  11.635  20.659  0.00  0.00    +0.000 NA
ATOM      5  N   UNL     1       0.063  10.610  21.474  0.00  0.00    +0.000 N 
ATOM      6  C   UNL     1      -0.591  10.933  22.683  0.00  0.00    +0.000 C 
ATOM      7  O   UNL     1      -0.701  10.102  23.574  0.00  0.00    +0.000 OA
ATOM      8  C   UNL     1       0.393   9.372  20.944  0.00  0.00    +0.000 A 
ATOM      9  C   UNL     1       0.045   8.055  21.547  0.00  0.00    +0.000 C 
ENDROOT
BRANCH   1  11
ATOM     10  N   UNL     1       2.263   7.849  19.397  0.00  0.00    +0.000 NA
ATOM     11  N   UNL     1       1.555   8.710  18.834  0.00  0.00    +0.000 NA
BRANCH  10  16
ATOM     12  C   UNL     1       4.781   4.004  15.957  0.00  0.00    +0.000 C 
ATOM     13  C   UNL     1       4.131   5.005  16.872  0.00  0.00    +0.000 A 
ATOM     14  C   UNL     1       4.628   6.315  16.927  0.00  0.00    +0.000 A 
ATOM     15  C   UNL     1       4.028   7.277  17.747  0.00  0.00    +0.000 A 
ATOM     16  C   UNL     1       2.910   6.956  18.522  0.00  0.00    +0.000 A 
ATOM     17  C   UNL     1       2.435   5.638  18.484  0.00  0.00    +0.000 A 
ATOM     18  C   UNL     1       3.029   4.655  17.673  0.00  0.00    +0.000 A 
ATOM     19  C   UNL     1       2.472   3.258  17.682  0.00  0.00    +0.000 C 
ENDBRANCH  10  16
ENDBRANCH   1  11
BRANCH   6  20
ATOM     20  C   UNL     1      -1.106  12.341  22.754  0.00  0.00    +0.000 C 
BRANCH  20  21
ATOM     21  C   UNL     1      -2.498  12.463  22.182  0.00  0.00    +0.000 C 
ATOM     22  O   UNL     1      -3.475  12.396  22.921  0.00  0.00    +0.000 OA
ATOM     23  N   UNL     1      -2.530  12.585  20.803  0.00  0.00    +0.000 N 
ATOM     24  H   UNL     1      -1.669  12.331  20.315  0.00  0.00    +0.000 HD
BRANCH  23  25
ATOM     25  C   UNL     1      -3.693  12.687  20.012  0.00  0.00    +0.000 A 
ATOM     26  C   UNL     1      -4.740  13.565  20.305  0.00  0.00    +0.000 A 
ATOM     27  C   UNL     1      -5.906  13.566  19.534  0.00  0.00    +0.000 A 
ATOM     28  C   UNL     1      -6.024  12.693  18.457  0.00  0.00    +0.000 A 
ATOM     29 CL   UNL     1      -7.482  12.652  17.545  0.00  0.00    +0.000 Cl
ATOM     30  C   UNL     1      -4.971  11.847  18.122  0.00  0.00    +0.000 A 
ATOM     31  C   UNL     1      -3.801  11.854  18.891  0.00  0.00    +0.000 A 
ENDBRANCH  23  25
ENDBRANCH  20  21
ENDBRANCH   6  20
TORSDOF 5
ENDMDL
MODEL 5
REMARK VINA RESULT:      -7.6      4.625      6.532
REMARK  Name = 
REMARK  9 active torsions:
REMARK  status: ('A' for Active; 'I' for Inactive)
REMARK    1  A    between atoms: C_1  and  C_2
REMARK    2  A    between atoms: C_5  and  N_6
REMARK    3  A    between atoms: N_7  and  C_8
REMARK    4  A    between atoms: C_9  and  C_10
REMARK    5  A    between atoms: C_13  and  C_15
REMARK    6  A    between atoms: C_15  and  C_16
REMARK    7  A    between atoms: N_18  and  C_19
REMARK    8  A    between atoms: C_26  and  C_27
REMARK    9  A    between atoms: C_29  and  C_30
REMARK                            x       y       z     vdW  Elec       q    Type
REMARK                         _______ _______ _______ _____ _____    ______ ____
ROOT
ATOM      1  C   UNL     1       0.944   9.265  20.578  0.00  0.00    +0.000 A 
ATOM      2  C   UNL     1       0.642   9.970  21.755  0.00  0.00    +0.000 A 
ATOM      3  C   UNL     1       0.251   9.454  23.089  0.00  0.00    +0.000 C 
ATOM      4  N   UNL     1       0.755  11.291  21.568  0.00  0.00    +0.000 NA
ATOM      5  N   UNL     1       1.022  11.439  20.226  0.00  0.00    +0.000 N 
ATOM      6  C   UNL     1       1.108  12.744  19.693  0.00  0.00    +0.000 C 
ATOM      7  O   UNL     1       1.027  12.932  18.487  0.00  0.00    +0.000 OA
ATOM      8  C   UNL     1       1.141  10.211  19.595  0.00  0.00    +0.000 A 
ATOM      9  C   UNL     1       1.471  10.008  18.157  0.00  0.00    +0.000 C 
ENDROOT
BRANCH   1  11
ATOM     10  N   UNL     1       2.132   7.475  20.137  0.00  0.00    +0.000 NA
ATOM     11  N   UNL     1       0.988   7.867  20.449  0.00  0.00    +0.000 NA
BRANCH  10  16
ATOM     12  C   UNL     1       2.619   1.910  18.812  0.00  0.00    +0.000 C 
ATOM     13  C   UNL     1       2.479   3.370  19.147  0.00  0.00    +0.000 A 
ATOM     14  C   UNL     1       1.689   3.755  20.239  0.00  0.00    +0.000 A 
ATOM     15  C   UNL     1       1.561   5.103  20.594  0.00  0.00    +0.000 A 
ATOM     16  C   UNL     1       2.228   6.096  19.872  0.00  0.00    +0.000 A 
ATOM     17  C   UNL     1       2.994   5.708  18.764  0.00  0.00    +0.000 A 
ATOM     18  C   UNL     1       3.128   4.360  18.387  0.00  0.00    +0.000 A 
ATOM     19  C   UNL     1       3.961   4.010  17.184  0.00  0.00    +0.000 C 
ENDBRANCH  10  16
ENDBRANCH   1  11
BRANCH   6  20
ATOM     20  C   UNL     1       1.297  13.823  20.719  0.00  0.00    +0.000 C 
BRANCH  20  21
ATOM     21  C   UNL     1       2.692  14.400  20.681  0.00  0.00    +0.000 C 
ATOM     22  O   UNL     1       3.340  14.511  21.718  0.00  0.00    +0.000 OA
ATOM     23  N   UNL     1       3.093  14.820  19.424  0.00  0.00    +0.000 N 
ATOM     24  H   UNL     1       2.347  14.931  18.735  0.00  0.00    +0.000 HD
BRANCH  23  25
ATOM     25  C   UNL     1       4.332  15.419  19.113  0.00  0.00    +0.000 A 
ATOM     26  C   UNL     1       5.316  14.783  18.352  0.00  0.00    +0.000 A 
ATOM     27  C   UNL     1       6.558  15.391  18.143  0.00  0.00    +0.000 A 
ATOM     28  C   UNL     1       6.815  16.645  18.687  0.00  0.00    +0.000 A 
ATOM     29 CL   UNL     1       8.362  17.367  18.480  0.00  0.00    +0.000 Cl
ATOM     30  C   UNL     1       5.827  17.313  19.405  0.00  0.00    +0.000 A 
ATOM     31  C   UNL     1       4.581  16.705  19.605  0.00  0.00    +0.000 A 
ENDBRANCH  23  25
ENDBRANCH  20  21
ENDBRANCH   6  20
TORSDOF 5
ENDMDL
MODEL 6
REMARK VINA RESULT:      -7.5      1.056      1.344
REMARK  Name = 
REMARK  9 active torsions:
REMARK  status: ('A' for Active; 'I' for Inactive)
REMARK    1  A    between atoms: C_1  and  C_2
REMARK    2  A    between atoms: C_5  and  N_6
REMARK    3  A    between atoms: N_7  and  C_8
REMARK    4  A    between atoms: C_9  and  C_10
REMARK    5  A    between atoms: C_13  and  C_15
REMARK    6  A    between atoms: C_15  and  C_16
REMARK    7  A    between atoms: N_18  and  C_19
REMARK    8  A    between atoms: C_26  and  C_27
REMARK    9  A    between atoms: C_29  and  C_30
REMARK                            x       y       z     vdW  Elec       q    Type
REMARK                         _______ _______ _______ _____ _____    ______ ____
ROOT
ATOM      1  C   UNL     1       0.885   9.245  20.758  0.00  0.00    +0.000 A 
ATOM      2  C   UNL     1       0.637   9.868  21.994  0.00  0.00    +0.000 A 
ATOM      3  C   UNL     1       0.332   9.260  23.311  0.00  0.00    +0.000 C 
ATOM      4  N   UNL     1       0.716  11.200  21.885  0.00  0.00    +0.000 NA
ATOM      5  N   UNL     1       0.903  11.439  20.543  0.00  0.00    +0.000 N 
ATOM      6  C   UNL     1       0.935  12.776  20.091  0.00  0.00    +0.000 C 
ATOM      7  O   UNL     1       0.782  13.038  18.906  0.00  0.00    +0.000 OA
ATOM      8  C   UNL     1       1.008  10.255  19.828  0.00  0.00    +0.000 A 
ATOM      9  C   UNL     1       1.259  10.151  18.364  0.00  0.00    +0.000 C 
ENDROOT
BRANCH   1  11
ATOM     10  N   UNL     1       2.057   7.522  20.075  0.00  0.00    +0.000 NA
ATOM     11  N   UNL     1       0.947   7.860  20.537  0.00  0.00    +0.000 NA
BRANCH  10  16
ATOM     12  C   UNL     1       2.453   1.923  18.869  0.00  0.00    +0.000 C 
ATOM     13  C   UNL     1       2.365   3.390  19.193  0.00  0.00    +0.000 A 
ATOM     14  C   UNL     1       2.684   4.335  18.207  0.00  0.00    +0.000 A 
ATOM     15  C   UNL     1       2.586   5.706  18.468  0.00  0.00    +0.000 A 
ATOM     16  C   UNL     1       2.155   6.165  19.716  0.00  0.00    +0.000 A 
ATOM     17  C   UNL     1       1.865   5.216  20.706  0.00  0.00    +0.000 A 
ATOM     18  C   UNL     1       1.966   3.835  20.466  0.00  0.00    +0.000 A 
ATOM     19  C   UNL     1       1.644   2.869  21.574  0.00  0.00    +0.000 C 
ENDBRANCH  10  16
ENDBRANCH   1  11
BRANCH   6  20
ATOM     20  C   UNL     1       1.163  13.792  21.172  0.00  0.00    +0.000 C 
BRANCH  20  21
ATOM     21  C   UNL     1      -0.113  14.129  21.907  0.00  0.00    +0.000 C 
ATOM     22  O   UNL     1      -0.066  14.734  22.974  0.00  0.00    +0.000 OA
ATOM     23  N   UNL     1      -1.258  13.644  21.299  0.00  0.00    +0.000 N 
ATOM     24  H   UNL     1      -1.112  12.922  20.591  0.00  0.00    +0.000 HD
BRANCH  23  25
ATOM     25  C   UNL     1      -2.574  13.790  21.785  0.00  0.00    +0.000 A 
ATOM     26  C   UNL     1      -3.217  12.815  22.552  0.00  0.00    +0.000 A 
ATOM     27  C   UNL     1      -4.551  12.977  22.938  0.00  0.00    +0.000 A 
ATOM     28  C   UNL     1      -5.244  14.124  22.565  0.00  0.00    +0.000 A 
ATOM     29 CL   UNL     1      -6.902  14.297  22.989  0.00  0.00    +0.000 Cl
ATOM     30  C   UNL     1      -4.603  15.127  21.844  0.00  0.00    +0.000 A 
ATOM     31  C   UNL     1      -3.264  14.966  21.466  0.00  0.00    +0.000 A 
ENDBRANCH  23  25
ENDBRANCH  20  21
ENDBRANCH   6  20
TORSDOF 5
ENDMDL
MODEL 7
REMARK VINA RESULT:      -7.5      3.991      5.817
REMARK  Name = 
REMARK  9 active torsions:
REMARK  status: ('A' for Active; 'I' for Inactive)
REMARK    1  A    between atoms: C_1  and  C_2
REMARK    2  A    between atoms: C_5  and  N_6
REMARK    3  A    between atoms: N_7  and  C_8
REMARK    4  A    between atoms: C_9  and  C_10
REMARK    5  A    between atoms: C_13  and  C_15
REMARK    6  A    between atoms: C_15  and  C_16
REMARK    7  A    between atoms: N_18  and  C_19
REMARK    8  A    between atoms: C_26  and  C_27
REMARK    9  A    between atoms: C_29  and  C_30
REMARK                            x       y       z     vdW  Elec       q    Type
REMARK                         _______ _______ _______ _____ _____    ______ ____
ROOT
ATOM      1  C   UNL     1       0.680   9.193  20.743  0.00  0.00    +0.000 A 
ATOM      2  C   UNL     1       0.395   9.910  21.918  0.00  0.00    +0.000 A 
ATOM      3  C   UNL     1       0.338   9.436  23.321  0.00  0.00    +0.000 C 
ATOM      4  N   UNL     1       0.162  11.201  21.649  0.00  0.00    +0.000 NA
ATOM      5  N   UNL     1       0.186  11.290  20.277  0.00  0.00    +0.000 N 
ATOM      6  C   UNL     1      -0.118  12.529  19.673  0.00  0.00    +0.000 C 
ATOM      7  O   UNL     1      -0.419  12.590  18.488  0.00  0.00    +0.000 OA
ATOM      8  C   UNL     1       0.500  10.071  19.695  0.00  0.00    +0.000 A 
ATOM      9  C   UNL     1       0.654   9.826  18.235  0.00  0.00    +0.000 C 
ENDROOT
BRANCH   1  11
ATOM     10  N   UNL     1       2.064   7.668  19.990  0.00  0.00    +0.000 NA
ATOM     11  N   UNL     1       1.035   7.836  20.677  0.00  0.00    +0.000 NA
BRANCH  10  16
ATOM     12  C   UNL     1       3.376   2.114  19.360  0.00  0.00    +0.000 C 
ATOM     13  C   UNL     1       3.043   3.570  19.539  0.00  0.00    +0.000 A 
ATOM     14  C   UNL     1       3.717   4.532  18.774  0.00  0.00    +0.000 A 
ATOM     15  C   UNL     1       3.411   5.892  18.896  0.00  0.00    +0.000 A 
ATOM     16  C   UNL     1       2.415   6.322  19.778  0.00  0.00    +0.000 A 
ATOM     17  C   UNL     1       1.764   5.358  20.562  0.00  0.00    +0.000 A 
ATOM     18  C   UNL     1       2.064   3.989  20.459  0.00  0.00    +0.000 A 
ATOM     19  C   UNL     1       1.332   3.007  21.333  0.00  0.00    +0.000 C 
ENDBRANCH  10  16
ENDBRANCH   1  11
BRANCH   6  20
ATOM     20  C   UNL     1      -0.043  13.707  20.600  0.00  0.00    +0.000 C 
BRANCH  20  21
ATOM     21  C   UNL     1       1.158  14.576  20.312  0.00  0.00    +0.000 C 
ATOM     22  O   UNL     1       1.044  15.799  20.302  0.00  0.00    +0.000 OA
ATOM     23  N   UNL     1       2.309  13.866  20.016  0.00  0.00    +0.000 N 
ATOM     24  H   UNL     1       2.174  12.881  19.780  0.00  0.00    +0.000 HD
BRANCH  23  25
ATOM     25  C   UNL     1       3.560  14.426  19.684  0.00  0.00    +0.000 A 
ATOM     26  C   UNL     1       4.472  14.878  20.642  0.00  0.00    +0.000 A 
ATOM     27  C   UNL     1       5.662  15.500  20.254  0.00  0.00    +0.000 A 
ATOM     28  C   UNL     1       5.950  15.662  18.903  0.00  0.00    +0.000 A 
ATOM     29 CL   UNL     1       7.386  16.480  18.426  0.00  0.00    +0.000 Cl
ATOM     30  C   UNL     1       5.076  15.171  17.937  0.00  0.00    +0.000 A 
ATOM     31  C   UNL     1       3.889  14.542  18.328  0.00  0.00    +0.000 A 
ENDBRANCH  23  25
ENDBRANCH  20  21
ENDBRANCH   6  20
TORSDOF 5
ENDMDL
MODEL 8
REMARK VINA RESULT:      -7.5      4.238      6.203
REMARK  Name = 
REMARK  9 active torsions:
REMARK  status: ('A' for Active; 'I' for Inactive)
REMARK    1  A    between atoms: C_1  and  C_2
REMARK    2  A    between atoms: C_5  and  N_6
REMARK    3  A    between atoms: N_7  and  C_8
REMARK    4  A    between atoms: C_9  and  C_10
REMARK    5  A    between atoms: C_13  and  C_15
REMARK    6  A    between atoms: C_15  and  C_16
REMARK    7  A    between atoms: N_18  and  C_19
REMARK    8  A    between atoms: C_26  and  C_27
REMARK    9  A    between atoms: C_29  and  C_30
REMARK                            x       y       z     vdW  Elec       q    Type
REMARK                         _______ _______ _______ _____ _____    ______ ____
ROOT
ATOM      1  C   UNL     1       0.738   9.228  20.780  0.00  0.00    +0.000 A 
ATOM      2  C   UNL     1       0.414   9.945  21.945  0.00  0.00    +0.000 A 
ATOM      3  C   UNL     1       0.174   9.449  23.321  0.00  0.00    +0.000 C 
ATOM      4  N   UNL     1       0.338  11.258  21.696  0.00  0.00    +0.000 NA
ATOM      5  N   UNL     1       0.504  11.374  20.335  0.00  0.00    +0.000 N 
ATOM      6  C   UNL     1       0.384  12.650  19.744  0.00  0.00    +0.000 C 
ATOM      7  O   UNL     1       0.207  12.767  18.539  0.00  0.00    +0.000 OA
ATOM      8  C   UNL     1       0.749  10.141  19.748  0.00  0.00    +0.000 A 
ATOM      9  C   UNL     1       1.018   9.913  18.302  0.00  0.00    +0.000 C 
ENDROOT
BRANCH   1  11
ATOM     10  N   UNL     1       2.024   7.585  20.104  0.00  0.00    +0.000 NA
ATOM     11  N   UNL     1       0.961   7.843  20.706  0.00  0.00    +0.000 NA
BRANCH  10  16
ATOM     12  C   UNL     1       3.039   2.053  18.955  0.00  0.00    +0.000 C 
ATOM     13  C   UNL     1       2.760   3.502  19.245  0.00  0.00    +0.000 A 
ATOM     14  C   UNL     1       2.030   3.849  20.391  0.00  0.00    +0.000 A 
ATOM     15  C   UNL     1       1.777   5.189  20.703  0.00  0.00    +0.000 A 
ATOM     16  C   UNL     1       2.257   6.215  19.885  0.00  0.00    +0.000 A 
ATOM     17  C   UNL     1       2.962   5.861  18.726  0.00  0.00    +0.000 A 
ATOM     18  C   UNL     1       3.219   4.521  18.390  0.00  0.00    +0.000 A 
ATOM     19  C   UNL     1       3.977   4.209  17.129  0.00  0.00    +0.000 C 
ENDBRANCH  10  16
ENDBRANCH   1  11
BRANCH   6  20
ATOM     20  C   UNL     1       0.486  13.794  20.710  0.00  0.00    +0.000 C 
BRANCH  20  21
ATOM     21  C   UNL     1       1.698  14.654  20.441  0.00  0.00    +0.000 C 
ATOM     22  O   UNL     1       1.634  15.871  20.591  0.00  0.00    +0.000 OA
ATOM     23  N   UNL     1       2.794  13.951  19.972  0.00  0.00    +0.000 N 
ATOM     24  H   UNL     1       2.602  13.009  19.626  0.00  0.00    +0.000 HD
BRANCH  23  25
ATOM     25  C   UNL     1       4.040  14.509  19.616  0.00  0.00    +0.000 A 
ATOM     26  C   UNL     1       4.943  15.019  20.553  0.00  0.00    +0.000 A 
ATOM     27  C   UNL     1       6.127  15.635  20.138  0.00  0.00    +0.000 A 
ATOM     28  C   UNL     1       6.418  15.734  18.782  0.00  0.00    +0.000 A 
ATOM     29 CL   UNL     1       7.846  16.544  18.269  0.00  0.00    +0.000 Cl
ATOM     30  C   UNL     1       5.553  15.186  17.838  0.00  0.00    +0.000 A 
ATOM     31  C   UNL     1       4.372  14.562  18.257  0.00  0.00    +0.000 A 
ENDBRANCH  23  25
ENDBRANCH  20  21
ENDBRANCH   6  20
TORSDOF 5
ENDMDL
MODEL 9
REMARK VINA RESULT:      -7.5      2.372      3.477
REMARK  Name = 
REMARK  9 active torsions:
REMARK  status: ('A' for Active; 'I' for Inactive)
REMARK    1  A    between atoms: C_1  and  C_2
REMARK    2  A    between atoms: C_5  and  N_6
REMARK    3  A    between atoms: N_7  and  C_8
REMARK    4  A    between atoms: C_9  and  C_10
REMARK    5  A    between atoms: C_13  and  C_15
REMARK    6  A    between atoms: C_15  and  C_16
REMARK    7  A    between atoms: N_18  and  C_19
REMARK    8  A    between atoms: C_26  and  C_27
REMARK    9  A    between atoms: C_29  and  C_30
REMARK                            x       y       z     vdW  Elec       q    Type
REMARK                         _______ _______ _______ _____ _____    ______ ____
ROOT
ATOM      1  C   UNL     1       1.109   9.701  19.840  0.00  0.00    +0.000 A 
ATOM      2  C   UNL     1       1.166  11.092  19.642  0.00  0.00    +0.000 A 
ATOM      3  C   UNL     1       1.853  11.865  18.580  0.00  0.00    +0.000 C 
ATOM      4  N   UNL     1       0.469  11.741  20.582  0.00  0.00    +0.000 NA
ATOM      5  N   UNL     1       0.054  10.764  21.457  0.00  0.00    +0.000 N 
ATOM      6  C   UNL     1      -0.642  11.149  22.624  0.00  0.00    +0.000 C 
ATOM      7  O   UNL     1      -0.751  10.381  23.569  0.00  0.00    +0.000 OA
ATOM      8  C   UNL     1       0.435   9.502  21.026  0.00  0.00    +0.000 A 
ATOM      9  C   UNL     1       0.111   8.221  21.712  0.00  0.00    +0.000 C 
ENDROOT
BRANCH   1  11
ATOM     10  N   UNL     1       1.928   7.679  19.621  0.00  0.00    +0.000 NA
ATOM     11  N   UNL     1       1.674   8.730  18.997  0.00  0.00    +0.000 NA
BRANCH  10  16
ATOM     12  C   UNL     1       4.769   3.879  16.389  0.00  0.00    +0.000 C 
ATOM     13  C   UNL     1       4.014   4.878  17.223  0.00  0.00    +0.000 A 
ATOM     14  C   UNL     1       3.068   4.425  18.154  0.00  0.00    +0.000 A 
ATOM     15  C   UNL     1       2.369   5.326  18.964  0.00  0.00    +0.000 A 
ATOM     16  C   UNL     1       2.606   6.700  18.871  0.00  0.00    +0.000 A 
ATOM     17  C   UNL     1       3.531   7.149  17.918  0.00  0.00    +0.000 A 
ATOM     18  C   UNL     1       4.238   6.260  17.090  0.00  0.00    +0.000 A 
ATOM     19  C   UNL     1       5.213   6.807  16.084  0.00  0.00    +0.000 C 
ENDBRANCH  10  16
ENDBRANCH   1  11
BRANCH   6  20
ATOM     20  C   UNL     1      -1.200  12.542  22.582  0.00  0.00    +0.000 C 
BRANCH  20  21
ATOM     21  C   UNL     1      -2.642  12.559  22.134  0.00  0.00    +0.000 C 
ATOM     22  O   UNL     1      -3.539  12.323  22.938  0.00  0.00    +0.000 OA
ATOM     23  N   UNL     1      -2.808  12.793  20.779  0.00  0.00    +0.000 N 
ATOM     24  H   UNL     1      -1.971  12.677  20.204  0.00  0.00    +0.000 HD
BRANCH  23  25
ATOM     25  C   UNL     1      -4.040  12.833  20.095  0.00  0.00    +0.000 A 
ATOM     26  C   UNL     1      -4.353  11.977  19.035  0.00  0.00    +0.000 A 
ATOM     27  C   UNL     1      -5.558  12.116  18.339  0.00  0.00    +0.000 A 
ATOM     28  C   UNL     1      -6.460  13.107  18.710  0.00  0.00    +0.000 A 
ATOM     29 CL   UNL     1      -7.915  13.316  17.816  0.00  0.00    +0.000 Cl
ATOM     30  C   UNL     1      -6.186  13.935  19.795  0.00  0.00    +0.000 A 
ATOM     31  C   UNL     1      -4.982  13.788  20.495  0.00  0.00    +0.000 A 
ENDBRANCH  23  25
ENDBRANCH  20  21
ENDBRANCH   6  20
TORSDOF 5
ENDMDL
