MODEL 1
REMARK VINA RESULT:      -7.6      0.000      0.000
REMARK  Name = 
REMARK  10 active torsions:
REMARK  status: ('A' for Active; 'I' for Inactive)
REMARK    1  A    between atoms: C_1  and  O_2
REMARK    2  A    between atoms: O_2  and  C_3
REMARK    3  A    between atoms: C_6  and  C_7
REMARK    4  A    between atoms: C_7  and  N_8
REMARK    5  A    between atoms: C_9  and  C_10
REMARK    6  A    between atoms: C_10  and  C_11
REMARK    7  A    between atoms: C_11  and  C_12
REMARK    8  A    between atoms: C_12  and  O_13
REMARK    9  A    between atoms: C_22  and  O_23
REMARK   10  A    between atoms: O_23  and  C_24
REMARK                            x       y       z     vdW  Elec       q    Type
REMARK                         _______ _______ _______ _____ _____    ______ ____
ROOT
ATOM      1  N   UNL     1       3.899   5.269  18.846  0.00  0.00    +0.000 N 
ATOM      2  C   UNL     1       4.102   3.905  19.072  0.00  0.00    +0.000 A 
ATOM      3  N   UNL     1       5.405   3.808  19.292  0.00  0.00    +0.000 NA
ATOM      4  C   UNL     1       5.881   4.656  18.320  0.00  0.00    +0.000 A 
ATOM      5  C   UNL     1       7.084   4.581  17.642  0.00  0.00    +0.000 A 
ATOM      6  C   UNL     1       7.089   5.023  16.318  0.00  0.00    +0.000 A 
ATOM      7  C   UNL     1       5.947   5.617  15.758  0.00  0.00    +0.000 A 
ATOM      8  C   UNL     1       4.812   5.945  16.532  0.00  0.00    +0.000 A 
ATOM      9  C   UNL     1       4.820   5.477  17.846  0.00  0.00    +0.000 A 
ENDROOT
BRANCH   1  10
ATOM     10  C   UNL     1       2.773   5.913  19.511  0.00  0.00    +0.000 C 
BRANCH  10  14
ATOM     11  C   UNL     1       0.923   9.777  18.849  0.00  0.00    +0.000 A 
ATOM     12  C   UNL     1       1.632   9.145  17.814  0.00  0.00    +0.000 A 
ATOM     13  C   UNL     1       2.316   7.934  18.016  0.00  0.00    +0.000 A 
ATOM     14  C   UNL     1       2.341   7.340  19.273  0.00  0.00    +0.000 A 
ATOM     15  C   UNL     1       1.673   8.021  20.321  0.00  0.00    +0.000 A 
ATOM     16  C   UNL     1       0.973   9.230  20.130  0.00  0.00    +0.000 A 
BRANCH  11  18
ATOM     17  C   UNL     1       0.871  12.165  18.816  0.00  0.00    +0.000 C 
ATOM     18  O   UNL     1       0.200  10.922  18.646  0.00  0.00    +0.000 OA
ENDBRANCH  11  18
BRANCH  16  19
ATOM     19  O   UNL     1       0.367   9.670  21.279  0.00  0.00    +0.000 OA
ATOM     20  C   UNL     1       0.889   9.259  22.543  0.00  0.00    +0.000 C 
ENDBRANCH  16  19
ENDBRANCH  10  14
ENDBRANCH   1  10
BRANCH   2  21
ATOM     21  C   UNL     1       3.242   2.935  18.277  0.00  0.00    +0.000 C 
BRANCH  21  22
ATOM     22  C   UNL     1       2.275   2.113  19.130  0.00  0.00    +0.000 C 
BRANCH  22  23
ATOM     23  C   UNL     1       0.876   2.696  19.111  0.00  0.00    +0.000 C 
BRANCH  23  24
ATOM     24  O   UNL     1       0.508   3.139  20.412  0.00  0.00    +0.000 OA
ATOM     25  H   UNL     1       1.325   3.302  20.910  0.00  0.00    +0.000 HD
ENDBRANCH  23  24
ENDBRANCH  22  23
ENDBRANCH  21  22
ENDBRANCH   2  21
TORSDOF 8
ENDMDL
MODEL 2
REMARK VINA RESULT:      -7.4      2.060      3.991
REMARK  Name = 
REMARK  10 active torsions:
REMARK  status: ('A' for Active; 'I' for Inactive)
REMARK    1  A    between atoms: C_1  and  O_2
REMARK    2  A    between atoms: O_2  and  C_3
REMARK    3  A    between atoms: C_6  and  C_7
REMARK    4  A    between atoms: C_7  and  N_8
REMARK    5  A    between atoms: C_9  and  C_10
REMARK    6  A    between atoms: C_10  and  C_11
REMARK    7  A    between atoms: C_11  and  C_12
REMARK    8  A    between atoms: C_12  and  O_13
REMARK    9  A    between atoms: C_22  and  O_23
REMARK   10  A    between atoms: O_23  and  C_24
REMARK                            x       y       z     vdW  Elec       q    Type
REMARK                         _______ _______ _______ _____ _____    ______ ____
ROOT
ATOM      1  N   UNL     1       2.558   5.638  18.486  0.00  0.00    +0.000 N 
ATOM      2  C   UNL     1       2.841   4.648  17.540  0.00  0.00    +0.000 A 
ATOM      3  N   UNL     1       1.735   3.919  17.500  0.00  0.00    +0.000 NA
ATOM      4  C   UNL     1       1.441   3.847  18.842  0.00  0.00    +0.000 A 
ATOM      5  C   UNL     1       0.802   2.824  19.517  0.00  0.00    +0.000 A 
ATOM      6  C   UNL     1       1.203   2.592  20.834  0.00  0.00    +0.000 A 
ATOM      7  C   UNL     1       2.130   3.440  21.460  0.00  0.00    +0.000 A 
ATOM      8  C   UNL     1       2.571   4.643  20.864  0.00  0.00    +0.000 A 
ATOM      9  C   UNL     1       2.174   4.845  19.543  0.00  0.00    +0.000 A 
ENDROOT
BRANCH   1  10
ATOM     10  C   UNL     1       2.914   7.014  18.163  0.00  0.00    +0.000 C 
BRANCH  10  14
ATOM     11  C   UNL     1       0.269  10.149  19.567  0.00  0.00    +0.000 A 
ATOM     12  C   UNL     1       0.916  10.272  18.326  0.00  0.00    +0.000 A 
ATOM     13  C   UNL     1       1.846   9.317  17.878  0.00  0.00    +0.000 A 
ATOM     14  C   UNL     1       2.181   8.230  18.677  0.00  0.00    +0.000 A 
ATOM     15  C   UNL     1       1.566   8.153  19.951  0.00  0.00    +0.000 A 
ATOM     16  C   UNL     1       0.625   9.096  20.410  0.00  0.00    +0.000 A 
BRANCH  11  18
ATOM     17  C   UNL     1      -0.246  12.312  20.439  0.00  0.00    +0.000 C 
ATOM     18  O   UNL     1      -0.685  11.038  19.985  0.00  0.00    +0.000 OA
ENDBRANCH  11  18
BRANCH  16  19
ATOM     19  O   UNL     1       0.132   8.783  21.651  0.00  0.00    +0.000 OA
ATOM     20  C   UNL     1       0.676   9.433  22.800  0.00  0.00    +0.000 C 
ENDBRANCH  16  19
ENDBRANCH  10  14
ENDBRANCH   1  10
BRANCH   2  21
ATOM     21  C   UNL     1       4.270   4.132  17.485  0.00  0.00    +0.000 C 
BRANCH  21  22
ATOM     22  C   UNL     1       4.982   4.403  16.159  0.00  0.00    +0.000 C 
BRANCH  22  23
ATOM     23  C   UNL     1       5.781   5.691  16.205  0.00  0.00    +0.000 C 
BRANCH  23  24
ATOM     24  O   UNL     1       5.205   6.660  15.337  0.00  0.00    +0.000 OA
ATOM     25  H   UNL     1       4.592   6.197  14.743  0.00  0.00    +0.000 HD
ENDBRANCH  23  24
ENDBRANCH  22  23
ENDBRANCH  21  22
ENDBRANCH   2  21
TORSDOF 8
ENDMDL
MODEL 3
REMARK VINA RESULT:      -7.4      1.164      1.194
REMARK  Name = 
REMARK  10 active torsions:
REMARK  status: ('A' for Active; 'I' for Inactive)
REMARK    1  A    between atoms: C_1  and  O_2
REMARK    2  A    between atoms: O_2  and  C_3
REMARK    3  A    between atoms: C_6  and  C_7
REMARK    4  A    between atoms: C_7  and  N_8
REMARK    5  A    between atoms: C_9  and  C_10
REMARK    6  A    between atoms: C_10  and  C_11
REMARK    7  A    between atoms: C_11  and  C_12
REMARK    8  A    between atoms: C_12  and  O_13
REMARK    9  A    between atoms: C_22  and  O_23
REMARK   10  A    between atoms: O_23  and  C_24
REMARK                            x       y       z     vdW  Elec       q    Type
REMARK                         _______ _______ _______ _____ _____    ______ ____
ROOT
ATOM      1  N   UNL     1       4.068   5.036  18.481  0.00  0.00    +0.000 N 
ATOM      2  C   UNL     1       4.714   4.165  19.363  0.00  0.00    +0.000 A 
ATOM      3  N   UNL     1       5.973   4.579  19.357  0.00  0.00    +0.000 NA
ATOM      4  C   UNL     1       6.145   4.816  18.013  0.00  0.00    +0.000 A 
ATOM      5  C   UNL     1       7.309   4.708  17.274  0.00  0.00    +0.000 A 
ATOM      6  C   UNL     1       7.177   4.300  15.946  0.00  0.00    +0.000 A 
ATOM      7  C   UNL     1       5.907   4.123  15.376  0.00  0.00    +0.000 A 
ATOM      8  C   UNL     1       4.721   4.500  16.045  0.00  0.00    +0.000 A 
ATOM      9  C   UNL     1       4.875   4.886  17.376  0.00  0.00    +0.000 A 
ENDROOT
BRANCH   1  10
ATOM     10  C   UNL     1       2.787   5.598  18.889  0.00  0.00    +0.000 C 
BRANCH  10  14
ATOM     11  C   UNL     1       1.264   9.654  19.034  0.00  0.00    +0.000 A 
ATOM     12  C   UNL     1       1.855   9.162  17.858  0.00  0.00    +0.000 A 
ATOM     13  C   UNL     1       2.436   7.883  17.801  0.00  0.00    +0.000 A 
ATOM     14  C   UNL     1       2.474   7.074  18.932  0.00  0.00    +0.000 A 
ATOM     15  C   UNL     1       1.929   7.610  20.125  0.00  0.00    +0.000 A 
ATOM     16  C   UNL     1       1.334   8.885  20.195  0.00  0.00    +0.000 A 
BRANCH  11  18
ATOM     17  C   UNL     1      -0.736  10.922  18.718  0.00  0.00    +0.000 C 
ATOM     18  O   UNL     1       0.638  10.871  19.083  0.00  0.00    +0.000 OA
ENDBRANCH  11  18
BRANCH  16  19
ATOM     19  O   UNL     1       0.833   9.162  21.442  0.00  0.00    +0.000 OA
ATOM     20  C   UNL     1      -0.458   8.669  21.798  0.00  0.00    +0.000 C 
ENDBRANCH  16  19
ENDBRANCH  10  14
ENDBRANCH   1  10
BRANCH   2  21
ATOM     21  C   UNL     1       4.233   2.723  19.388  0.00  0.00    +0.000 C 
BRANCH  21  22
ATOM     22  C   UNL     1       2.887   2.524  20.084  0.00  0.00    +0.000 C 
BRANCH  22  23
ATOM     23  C   UNL     1       1.841   1.971  19.136  0.00  0.00    +0.000 C 
BRANCH  23  24
ATOM     24  O   UNL     1       2.374   1.863  17.822  0.00  0.00    +0.000 OA
ATOM     25  H   UNL     1       2.648   2.751  17.541  0.00  0.00    +0.000 HD
ENDBRANCH  23  24
ENDBRANCH  22  23
ENDBRANCH  21  22
ENDBRANCH   2  21
TORSDOF 8
ENDMDL
MODEL 4
REMARK VINA RESULT:      -7.4      2.010      3.890
REMARK  Name = 
REMARK  10 active torsions:
REMARK  status: ('A' for Active; 'I' for Inactive)
REMARK    1  A    between atoms: C_1  and  O_2
REMARK    2  A    between atoms: O_2  and  C_3
REMARK    3  A    between atoms: C_6  and  C_7
REMARK    4  A    between atoms: C_7  and  N_8
REMARK    5  A    between atoms: C_9  and  C_10
REMARK    6  A    between atoms: C_10  and  C_11
REMARK    7  A    between atoms: C_11  and  C_12
REMARK    8  A    between atoms: C_12  and  O_13
REMARK    9  A    between atoms: C_22  and  O_23
REMARK   10  A    between atoms: O_23  and  C_24
REMARK                            x       y       z     vdW  Elec       q    Type
REMARK                         _______ _______ _______ _____ _____    ______ ____
ROOT
ATOM      1  N   UNL     1       3.031   5.831  18.209  0.00  0.00    +0.000 N 
ATOM      2  C   UNL     1       4.127   5.004  17.950  0.00  0.00    +0.000 A 
ATOM      3  N   UNL     1       3.605   3.979  17.292  0.00  0.00    +0.000 NA
ATOM      4  C   UNL     1       2.459   3.777  18.024  0.00  0.00    +0.000 A 
ATOM      5  C   UNL     1       1.790   2.587  18.243  0.00  0.00    +0.000 A 
ATOM      6  C   UNL     1       1.150   2.442  19.475  0.00  0.00    +0.000 A 
ATOM      7  C   UNL     1       1.103   3.508  20.386  0.00  0.00    +0.000 A 
ATOM      8  C   UNL     1       1.545   4.807  20.050  0.00  0.00    +0.000 A 
ATOM      9  C   UNL     1       2.198   4.924  18.823  0.00  0.00    +0.000 A 
ENDROOT
BRANCH   1  10
ATOM     10  C   UNL     1       3.179   7.261  17.966  0.00  0.00    +0.000 C 
BRANCH  10  14
ATOM     11  C   UNL     1       0.093   9.844  19.579  0.00  0.00    +0.000 A 
ATOM     12  C   UNL     1       0.553  10.026  18.263  0.00  0.00    +0.000 A 
ATOM     13  C   UNL     1       1.611   9.264  17.736  0.00  0.00    +0.000 A 
ATOM     14  C   UNL     1       2.263   8.323  18.525  0.00  0.00    +0.000 A 
ATOM     15  C   UNL     1       1.828   8.195  19.867  0.00  0.00    +0.000 A 
ATOM     16  C   UNL     1       0.763   8.944  20.406  0.00  0.00    +0.000 A 
BRANCH  11  18
ATOM     17  C   UNL     1      -0.732  11.823  20.632  0.00  0.00    +0.000 C 
ATOM     18  O   UNL     1      -0.977  10.535  20.081  0.00  0.00    +0.000 OA
ENDBRANCH  11  18
BRANCH  16  19
ATOM     19  O   UNL     1       0.494   8.609  21.709  0.00  0.00    +0.000 OA
ATOM     20  C   UNL     1       1.112   9.351  22.760  0.00  0.00    +0.000 C 
ENDBRANCH  16  19
ENDBRANCH  10  14
ENDBRANCH   1  10
BRANCH   2  21
ATOM     21  C   UNL     1       5.215   4.943  19.010  0.00  0.00    +0.000 C 
BRANCH  21  22
ATOM     22  C   UNL     1       6.634   4.864  18.447  0.00  0.00    +0.000 C 
BRANCH  22  23
ATOM     23  C   UNL     1       7.559   5.863  19.115  0.00  0.00    +0.000 C 
BRANCH  23  24
ATOM     24  O   UNL     1       7.917   5.410  20.415  0.00  0.00    +0.000 OA
ATOM     25  H   UNL     1       8.564   4.694  20.311  0.00  0.00    +0.000 HD
ENDBRANCH  23  24
ENDBRANCH  22  23
ENDBRANCH  21  22
ENDBRANCH   2  21
TORSDOF 8
ENDMDL
MODEL 5
REMARK VINA RESULT:      -7.3      2.132      4.281
REMARK  Name = 
REMARK  10 active torsions:
REMARK  status: ('A' for Active; 'I' for Inactive)
REMARK    1  A    between atoms: C_1  and  O_2
REMARK    2  A    between atoms: O_2  and  C_3
REMARK    3  A    between atoms: C_6  and  C_7
REMARK    4  A    between atoms: C_7  and  N_8
REMARK    5  A    between atoms: C_9  and  C_10
REMARK    6  A    between atoms: C_10  and  C_11
REMARK    7  A    between atoms: C_11  and  C_12
REMARK    8  A    between atoms: C_12  and  O_13
REMARK    9  A    between atoms: C_22  and  O_23
REMARK   10  A    between atoms: O_23  and  C_24
REMARK                            x       y       z     vdW  Elec       q    Type
REMARK                         _______ _______ _______ _____ _____    ______ ____
ROOT
ATOM      1  N   UNL     1       2.781   5.831  18.395  0.00  0.00    +0.000 N 
ATOM      2  C   UNL     1       3.987   5.250  17.991  0.00  0.00    +0.000 A 
ATOM      3  N   UNL     1       3.612   4.243  17.216  0.00  0.00    +0.000 NA
ATOM      4  C   UNL     1       2.558   3.750  17.948  0.00  0.00    +0.000 A 
ATOM      5  C   UNL     1       2.113   2.442  18.022  0.00  0.00    +0.000 A 
ATOM      6  C   UNL     1       1.575   2.028  19.242  0.00  0.00    +0.000 A 
ATOM      7  C   UNL     1       1.397   2.942  20.292  0.00  0.00    +0.000 A 
ATOM      8  C   UNL     1       1.593   4.331  20.123  0.00  0.00    +0.000 A 
ATOM      9  C   UNL     1       2.149   4.719  18.905  0.00  0.00    +0.000 A 
ENDROOT
BRANCH   1  10
ATOM     10  C   UNL     1       2.671   7.283  18.346  0.00  0.00    +0.000 C 
BRANCH  10  14
ATOM     11  C   UNL     1       0.743  10.064  21.056  0.00  0.00    +0.000 A 
ATOM     12  C   UNL     1       1.145   8.797  21.510  0.00  0.00    +0.000 A 
ATOM     13  C   UNL     1       1.695   7.838  20.641  0.00  0.00    +0.000 A 
ATOM     14  C   UNL     1       1.823   8.109  19.283  0.00  0.00    +0.000 A 
ATOM     15  C   UNL     1       1.356   9.368  18.831  0.00  0.00    +0.000 A 
ATOM     16  C   UNL     1       0.813  10.343  19.692  0.00  0.00    +0.000 A 
BRANCH  11  18
ATOM     17  C   UNL     1      -0.665  10.627  22.902  0.00  0.00    +0.000 C 
ATOM     18  O   UNL     1       0.267  11.028  21.905  0.00  0.00    +0.000 OA
ENDBRANCH  11  18
BRANCH  16  19
ATOM     19  O   UNL     1       0.479  11.497  19.031  0.00  0.00    +0.000 OA
ATOM     20  C   UNL     1       1.446  12.542  18.923  0.00  0.00    +0.000 C 
ENDBRANCH  16  19
ENDBRANCH  10  14
ENDBRANCH   1  10
BRANCH   2  21
ATOM     21  C   UNL     1       5.125   5.243  18.999  0.00  0.00    +0.000 C 
BRANCH  21  22
ATOM     22  C   UNL     1       6.336   6.077  18.581  0.00  0.00    +0.000 C 
BRANCH  22  23
ATOM     23  C   UNL     1       7.640   5.405  18.965  0.00  0.00    +0.000 C 
BRANCH  23  24
ATOM     24  O   UNL     1       7.843   5.488  20.370  0.00  0.00    +0.000 OA
ATOM     25  H   UNL     1       8.607   4.933  20.591  0.00  0.00    +0.000 HD
ENDBRANCH  23  24
ENDBRANCH  22  23
ENDBRANCH  21  22
ENDBRANCH   2  21
TORSDOF 8
ENDMDL
MODEL 6
REMARK VINA RESULT:      -7.3      2.139      4.421
REMARK  Name = 
REMARK  10 active torsions:
REMARK  status: ('A' for Active; 'I' for Inactive)
REMARK    1  A    between atoms: C_1  and  O_2
REMARK    2  A    between atoms: O_2  and  C_3
REMARK    3  A    between atoms: C_6  and  C_7
REMARK    4  A    between atoms: C_7  and  N_8
REMARK    5  A    between atoms: C_9  and  C_10
REMARK    6  A    between atoms: C_10  and  C_11
REMARK    7  A    between atoms: C_11  and  C_12
REMARK    8  A    between atoms: C_12  and  O_13
REMARK    9  A    between atoms: C_22  and  O_23
REMARK   10  A    between atoms: O_23  and  C_24
REMARK                            x       y       z     vdW  Elec       q    Type
REMARK                         _______ _______ _______ _____ _____    ______ ____
ROOT
ATOM      1  N   UNL     1       2.314   6.090  19.047  0.00  0.00    +0.000 N 
ATOM      2  C   UNL     1       2.958   5.405  18.013  0.00  0.00    +0.000 A 
ATOM      3  N   UNL     1       2.077   4.489  17.638  0.00  0.00    +0.000 NA
ATOM      4  C   UNL     1       1.619   4.074  18.866  0.00  0.00    +0.000 A 
ATOM      5  C   UNL     1       1.154   2.820  19.220  0.00  0.00    +0.000 A 
ATOM      6  C   UNL     1       1.406   2.400  20.527  0.00  0.00    +0.000 A 
ATOM      7  C   UNL     1       2.003   3.269  21.455  0.00  0.00    +0.000 A 
ATOM      8  C   UNL     1       2.224   4.635  21.173  0.00  0.00    +0.000 A 
ATOM      9  C   UNL     1       1.983   5.028  19.856  0.00  0.00    +0.000 A 
ENDROOT
BRANCH   1  10
ATOM     10  C   UNL     1       2.372   7.547  19.043  0.00  0.00    +0.000 C 
BRANCH  10  14
ATOM     11  C   UNL     1       0.401  10.514  21.513  0.00  0.00    +0.000 A 
ATOM     12  C   UNL     1       0.774   9.274  22.058  0.00  0.00    +0.000 A 
ATOM     13  C   UNL     1       1.336   8.256  21.268  0.00  0.00    +0.000 A 
ATOM     14  C   UNL     1       1.507   8.439  19.900  0.00  0.00    +0.000 A 
ATOM     15  C   UNL     1       1.070   9.672  19.355  0.00  0.00    +0.000 A 
ATOM     16  C   UNL     1       0.515  10.705  20.137  0.00  0.00    +0.000 A 
BRANCH  11  18
ATOM     17  C   UNL     1      -1.300  11.306  22.992  0.00  0.00    +0.000 C 
ATOM     18  O   UNL     1      -0.086  11.535  22.285  0.00  0.00    +0.000 OA
ENDBRANCH  11  18
BRANCH  16  19
ATOM     19  O   UNL     1       0.215  11.819  19.395  0.00  0.00    +0.000 OA
ATOM     20  C   UNL     1       1.206  12.835  19.233  0.00  0.00    +0.000 C 
ENDBRANCH  16  19
ENDBRANCH  10  14
ENDBRANCH   1  10
BRANCH   2  21
ATOM     21  C   UNL     1       4.462   5.219  18.137  0.00  0.00    +0.000 C 
BRANCH  21  22
ATOM     22  C   UNL     1       5.041   4.160  17.198  0.00  0.00    +0.000 C 
BRANCH  22  23
ATOM     23  C   UNL     1       6.480   4.463  16.830  0.00  0.00    +0.000 C 
BRANCH  23  24
ATOM     24  O   UNL     1       7.337   4.208  17.937  0.00  0.00    +0.000 OA
ATOM     25  H   UNL     1       6.944   4.628  18.718  0.00  0.00    +0.000 HD
ENDBRANCH  23  24
ENDBRANCH  22  23
ENDBRANCH  21  22
ENDBRANCH   2  21
TORSDOF 8
ENDMDL
MODEL 7
REMARK VINA RESULT:      -7.2      2.096      3.673
REMARK  Name = 
REMARK  10 active torsions:
REMARK  status: ('A' for Active; 'I' for Inactive)
REMARK    1  A    between atoms: C_1  and  O_2
REMARK    2  A    between atoms: O_2  and  C_3
REMARK    3  A    between atoms: C_6  and  C_7
REMARK    4  A    between atoms: C_7  and  N_8
REMARK    5  A    between atoms: C_9  and  C_10
REMARK    6  A    between atoms: C_10  and  C_11
REMARK    7  A    between atoms: C_11  and  C_12
REMARK    8  A    between atoms: C_12  and  O_13
REMARK    9  A    between atoms: C_22  and  O_23
REMARK   10  A    between atoms: O_23  and  C_24
REMARK                            x       y       z     vdW  Elec       q    Type
REMARK                         _______ _______ _______ _____ _____    ______ ____
ROOT
ATOM      1  N   UNL     1       2.337   5.791  18.715  0.00  0.00    +0.000 N 
ATOM      2  C   UNL     1       2.499   4.825  17.718  0.00  0.00    +0.000 A 
ATOM      3  N   UNL     1       1.377   4.122  17.770  0.00  0.00    +0.000 NA
ATOM      4  C   UNL     1       1.219   4.015  19.131  0.00  0.00    +0.000 A 
ATOM      5  C   UNL     1       0.627   2.984  19.839  0.00  0.00    +0.000 A 
ATOM      6  C   UNL     1       1.153   2.703  21.100  0.00  0.00    +0.000 A 
ATOM      7  C   UNL     1       2.159   3.512  21.653  0.00  0.00    +0.000 A 
ATOM      8  C   UNL     1       2.567   4.723  21.050  0.00  0.00    +0.000 A 
ATOM      9  C   UNL     1       2.043   4.974  19.782  0.00  0.00    +0.000 A 
ENDROOT
BRANCH   1  10
ATOM     10  C   UNL     1       2.692   7.169  18.398  0.00  0.00    +0.000 C 
BRANCH  10  14
ATOM     11  C   UNL     1      -0.007  10.294  19.719  0.00  0.00    +0.000 A 
ATOM     12  C   UNL     1       0.687  10.425  18.504  0.00  0.00    +0.000 A 
ATOM     13  C   UNL     1       1.634   9.473  18.085  0.00  0.00    +0.000 A 
ATOM     14  C   UNL     1       1.939   8.381  18.891  0.00  0.00    +0.000 A 
ATOM     15  C   UNL     1       1.276   8.296  20.140  0.00  0.00    +0.000 A 
ATOM     16  C   UNL     1       0.317   9.237  20.568  0.00  0.00    +0.000 A 
BRANCH  11  18
ATOM     17  C   UNL     1      -1.697  11.858  19.083  0.00  0.00    +0.000 C 
ATOM     18  O   UNL     1      -0.977  11.180  20.105  0.00  0.00    +0.000 OA
ENDBRANCH  11  18
BRANCH  16  19
ATOM     19  O   UNL     1      -0.222   8.915  21.788  0.00  0.00    +0.000 OA
ATOM     20  C   UNL     1       0.331   9.498  22.968  0.00  0.00    +0.000 C 
ENDBRANCH  16  19
ENDBRANCH  10  14
ENDBRANCH   1  10
BRANCH   2  21
ATOM     21  C   UNL     1       3.902   4.281  17.502  0.00  0.00    +0.000 C 
BRANCH  21  22
ATOM     22  C   UNL     1       3.968   2.760  17.361  0.00  0.00    +0.000 C 
BRANCH  22  23
ATOM     23  C   UNL     1       4.118   2.078  18.707  0.00  0.00    +0.000 C 
BRANCH  23  24
ATOM     24  O   UNL     1       4.356   0.687  18.531  0.00  0.00    +0.000 OA
ATOM     25  H   UNL     1       3.913   0.217  19.256  0.00  0.00    +0.000 HD
ENDBRANCH  23  24
ENDBRANCH  22  23
ENDBRANCH  21  22
ENDBRANCH   2  21
TORSDOF 8
ENDMDL
MODEL 8
REMARK VINA RESULT:      -7.2      1.060      1.102
REMARK  Name = 
REMARK  10 active torsions:
REMARK  status: ('A' for Active; 'I' for Inactive)
REMARK    1  A    between atoms: C_1  and  O_2
REMARK    2  A    between atoms: O_2  and  C_3
REMARK    3  A    between atoms: C_6  and  C_7
REMARK    4  A    between atoms: C_7  and  N_8
REMARK    5  A    between atoms: C_9  and  C_10
REMARK    6  A    between atoms: C_10  and  C_11
REMARK    7  A    between atoms: C_11  and  C_12
REMARK    8  A    between atoms: C_12  and  O_13
REMARK    9  A    between atoms: C_22  and  O_23
REMARK   10  A    between atoms: O_23  and  C_24
REMARK                            x       y       z     vdW  Elec       q    Type
REMARK                         _______ _______ _______ _____ _____    ______ ____
ROOT
ATOM      1  N   UNL     1       3.851   5.535  18.282  0.00  0.00    +0.000 N 
ATOM      2  C   UNL     1       4.255   4.812  19.408  0.00  0.00    +0.000 A 
ATOM      3  N   UNL     1       5.490   5.236  19.634  0.00  0.00    +0.000 NA
ATOM      4  C   UNL     1       5.974   5.275  18.348  0.00  0.00    +0.000 A 
ATOM      5  C   UNL     1       7.275   5.074  17.924  0.00  0.00    +0.000 A 
ATOM      6  C   UNL     1       7.445   4.473  16.676  0.00  0.00    +0.000 A 
ATOM      7  C   UNL     1       6.339   4.198  15.858  0.00  0.00    +0.000 A 
ATOM      8  C   UNL     1       5.038   4.654  16.171  0.00  0.00    +0.000 A 
ATOM      9  C   UNL     1       4.888   5.234  17.430  0.00  0.00    +0.000 A 
ENDROOT
BRANCH   1  10
ATOM     10  C   UNL     1       2.522   6.135  18.294  0.00  0.00    +0.000 C 
BRANCH  10  14
ATOM     11  C   UNL     1       1.067  10.052  19.447  0.00  0.00    +0.000 A 
ATOM     12  C   UNL     1       1.530   9.825  18.140  0.00  0.00    +0.000 A 
ATOM     13  C   UNL     1       2.088   8.594  17.755  0.00  0.00    +0.000 A 
ATOM     14  C   UNL     1       2.232   7.565  18.679  0.00  0.00    +0.000 A 
ATOM     15  C   UNL     1       1.817   7.830  20.008  0.00  0.00    +0.000 A 
ATOM     16  C   UNL     1       1.246   9.056  20.406  0.00  0.00    +0.000 A 
BRANCH  11  18
ATOM     17  C   UNL     1      -0.797  11.530  19.230  0.00  0.00    +0.000 C 
ATOM     18  O   UNL     1       0.463  11.225  19.815  0.00  0.00    +0.000 OA
ENDBRANCH  11  18
BRANCH  16  19
ATOM     19  O   UNL     1       0.879   9.058  21.728  0.00  0.00    +0.000 OA
ATOM     20  C   UNL     1      -0.455   8.689  22.079  0.00  0.00    +0.000 C 
ENDBRANCH  16  19
ENDBRANCH  10  14
ENDBRANCH   1  10
BRANCH   2  21
ATOM     21  C   UNL     1       3.750   3.383  19.531  0.00  0.00    +0.000 C 
BRANCH  21  22
ATOM     22  C   UNL     1       2.818   3.149  20.720  0.00  0.00    +0.000 C 
BRANCH  22  23
ATOM     23  C   UNL     1       1.433   2.723  20.272  0.00  0.00    +0.000 C 
BRANCH  23  24
ATOM     24  O   UNL     1       0.525   3.813  20.373  0.00  0.00    +0.000 OA
ATOM     25  H   UNL     1      -0.342   3.504  20.064  0.00  0.00    +0.000 HD
ENDBRANCH  23  24
ENDBRANCH  22  23
ENDBRANCH  21  22
ENDBRANCH   2  21
TORSDOF 8
ENDMDL
MODEL 9
REMARK VINA RESULT:      -7.2      2.038      4.224
REMARK  Name = 
REMARK  10 active torsions:
REMARK  status: ('A' for Active; 'I' for Inactive)
REMARK    1  A    between atoms: C_1  and  O_2
REMARK    2  A    between atoms: O_2  and  C_3
REMARK    3  A    between atoms: C_6  and  C_7
REMARK    4  A    between atoms: C_7  and  N_8
REMARK    5  A    between atoms: C_9  and  C_10
REMARK    6  A    between atoms: C_10  and  C_11
REMARK    7  A    between atoms: C_11  and  C_12
REMARK    8  A    between atoms: C_12  and  O_13
REMARK    9  A    between atoms: C_22  and  O_23
REMARK   10  A    between atoms: O_23  and  C_24
REMARK                            x       y       z     vdW  Elec       q    Type
REMARK                         _______ _______ _______ _____ _____    ______ ____
ROOT
ATOM      1  N   UNL     1       2.126   6.205  19.136  0.00  0.00    +0.000 N 
ATOM      2  C   UNL     1       2.644   5.542  18.019  0.00  0.00    +0.000 A 
ATOM      3  N   UNL     1       1.730   4.625  17.740  0.00  0.00    +0.000 NA
ATOM      4  C   UNL     1       1.428   4.185  19.007  0.00  0.00    +0.000 A 
ATOM      5  C   UNL     1       1.019   2.922  19.393  0.00  0.00    +0.000 A 
ATOM      6  C   UNL     1       1.432   2.484  20.653  0.00  0.00    +0.000 A 
ATOM      7  C   UNL     1       2.131   3.342  21.515  0.00  0.00    +0.000 A 
ATOM      8  C   UNL     1       2.306   4.715  21.232  0.00  0.00    +0.000 A 
ATOM      9  C   UNL     1       1.904   5.127  19.962  0.00  0.00    +0.000 A 
ENDROOT
BRANCH   1  10
ATOM     10  C   UNL     1       2.172   7.661  19.150  0.00  0.00    +0.000 C 
BRANCH  10  14
ATOM     11  C   UNL     1       0.263  10.596  21.707  0.00  0.00    +0.000 A 
ATOM     12  C   UNL     1       0.724   9.382  22.244  0.00  0.00    +0.000 A 
ATOM     13  C   UNL     1       1.270   8.372  21.432  0.00  0.00    +0.000 A 
ATOM     14  C   UNL     1       1.335   8.536  20.052  0.00  0.00    +0.000 A 
ATOM     15  C   UNL     1       0.811   9.739  19.520  0.00  0.00    +0.000 A 
ATOM     16  C   UNL     1       0.271  10.765  20.323  0.00  0.00    +0.000 A 
BRANCH  11  18
ATOM     17  C   UNL     1      -1.556  11.525  22.945  0.00  0.00    +0.000 C 
ATOM     18  O   UNL     1      -0.210  11.611  22.495  0.00  0.00    +0.000 OA
ENDBRANCH  11  18
BRANCH  16  19
ATOM     19  O   UNL     1      -0.127  11.852  19.586  0.00  0.00    +0.000 OA
ATOM     20  C   UNL     1      -1.360  11.792  18.868  0.00  0.00    +0.000 C 
ENDBRANCH  16  19
ENDBRANCH  10  14
ENDBRANCH   1  10
BRANCH   2  21
ATOM     21  C   UNL     1       4.153   5.368  17.957  0.00  0.00    +0.000 C 
BRANCH  21  22
ATOM     22  C   UNL     1       4.615   3.910  17.959  0.00  0.00    +0.000 C 
BRANCH  22  23
ATOM     23  C   UNL     1       5.154   3.495  19.314  0.00  0.00    +0.000 C 
BRANCH  23  24
ATOM     24  O   UNL     1       4.911   2.111  19.538  0.00  0.00    +0.000 OA
ATOM     25  H   UNL     1       4.147   2.038  20.131  0.00  0.00    +0.000 HD
ENDBRANCH  23  24
ENDBRANCH  22  23
ENDBRANCH  21  22
ENDBRANCH   2  21
TORSDOF 8
ENDMDL
