MODEL 1
REMARK VINA RESULT:      -8.2      0.000      0.000
REMARK  Name = 
REMARK  9 active torsions:
REMARK  status: ('A' for Active; 'I' for Inactive)
REMARK    1  A    between atoms: C_1  and  O_2
REMARK    2  A    between atoms: O_2  and  C_3
REMARK    3  A    between atoms: C_3  and  C_5
REMARK    4  A    between atoms: C_5  and  C_6
REMARK    5  A    between atoms: C_10  and  C_11
REMARK    6  A    between atoms: C_11  and  C_12
REMARK    7  A    between atoms: C_15  and  O_16
REMARK    8  A    between atoms: O_16  and  C_17
REMARK    9  A    between atoms: C_17  and  C_18
REMARK                            x       y       z     vdW  Elec       q    Type
REMARK                         _______ _______ _______ _____ _____    ______ ____
ROOT
ATOM      1  C   UNK A   1       7.015   4.998  16.761  0.00  0.00    +0.000 C 
ATOM      2  N   UNK A   1       6.281   3.834  17.253  0.00  0.00    +0.000 N 
ATOM      3  C   UNK A   2       4.991   3.949  17.733  0.00  0.00    +0.000 C 
ATOM      4  O   UNK A   2       4.231   2.985  17.710  0.00  0.00    +0.000 OA
ATOM      5  C   UNK A   2       4.595   5.323  18.330  0.00  0.00    +0.000 C 
ATOM      6  N   UNK A   2       5.746   6.202  18.535  0.00  0.00    +0.000 N 
ATOM      7  C   UNK A   1       6.912   6.130  17.809  0.00  0.00    +0.000 C 
ATOM      8  O   UNK A   1       7.748   7.025  17.913  0.00  0.00    +0.000 OA
ATOM      9  H   UNK A   1       6.468   2.937  16.817  0.00  0.00    +0.000 HD
ATOM     10  H   UNK A   2       5.682   6.965  19.196  0.00  0.00    +0.000 HD
ENDROOT
BRANCH   1  11
ATOM     11  C   UNK A   1       6.466   5.532  15.465  0.00  0.00    +0.000 C 
BRANCH  11  12
ATOM     12  C   UNK A   1       6.923   4.962  14.165  0.00  0.00    +0.000 C 
ATOM     13  O   UNK A   1       7.758   5.496  13.438  0.00  0.00    +0.000 OA
BRANCH  12  15
ATOM     14  C   UNK A   1       6.064   3.413  12.651  0.00  0.00    +0.000 C 
ATOM     15  O   UNK A   1       6.420   3.713  13.999  0.00  0.00    +0.000 OA
ENDBRANCH  12  15
ENDBRANCH  11  12
ENDBRANCH   1  11
BRANCH   5  16
ATOM     16  C   UNK A   2       3.342   5.999  17.695  0.00  0.00    +0.000 C 
BRANCH  16  17
ATOM     17  C   UNK A   2       2.751   7.232  18.355  0.00  0.00    +0.000 A 
ATOM     18  C   UNK A   2       2.275   7.152  19.677  0.00  0.00    +0.000 A 
ATOM     19  C   UNK A   2       1.487   8.170  20.223  0.00  0.00    +0.000 A 
ATOM     20  C   UNK A   2       1.179   9.299  19.465  0.00  0.00    +0.000 A 
ATOM     21  C   UNK A   2       1.723   9.430  18.183  0.00  0.00    +0.000 A 
ATOM     22  C   UNK A   2       2.530   8.421  17.640  0.00  0.00    +0.000 A 
BRANCH  20  23
ATOM     23  O   UNK A   2       0.299  10.276  19.834  0.00  0.00    +0.000 OA
BRANCH  23  24
ATOM     24  C   UNK A   2      -0.016  11.249  18.837  0.00  0.00    +0.000 C 
BRANCH  24  25
ATOM     25  C   UNK A   2      -1.451  11.030  18.432  0.00  0.00    +0.000 A 
ATOM     26  C   UNK A   2      -1.812  10.041  17.512  0.00  0.00    +0.000 A 
ATOM     27  C   UNK A   2      -3.154   9.882  17.144  0.00  0.00    +0.000 A 
ATOM     28  C   UNK A   2      -4.134  10.706  17.703  0.00  0.00    +0.000 A 
ATOM     29  C   UNK A   2      -3.776  11.701  18.607  0.00  0.00    +0.000 A 
ATOM     30  C   UNK A   2      -2.442  11.864  18.970  0.00  0.00    +0.000 A 
ENDBRANCH  24  25
ENDBRANCH  23  24
ENDBRANCH  20  23
ENDBRANCH  16  17
ENDBRANCH   5  16
TORSDOF 8
ENDMDL
MODEL 2
REMARK VINA RESULT:      -8.2      1.703      2.178
REMARK  Name = 
REMARK  9 active torsions:
REMARK  status: ('A' for Active; 'I' for Inactive)
REMARK    1  A    between atoms: C_1  and  O_2
REMARK    2  A    between atoms: O_2  and  C_3
REMARK    3  A    between atoms: C_3  and  C_5
REMARK    4  A    between atoms: C_5  and  C_6
REMARK    5  A    between atoms: C_10  and  C_11
REMARK    6  A    between atoms: C_11  and  C_12
REMARK    7  A    between atoms: C_15  and  O_16
REMARK    8  A    between atoms: O_16  and  C_17
REMARK    9  A    between atoms: C_17  and  C_18
REMARK                            x       y       z     vdW  Elec       q    Type
REMARK                         _______ _______ _______ _____ _____    ______ ____
ROOT
ATOM      1  C   UNK A   1       7.033   4.755  16.740  0.00  0.00    +0.000 C 
ATOM      2  N   UNK A   1       6.574   3.956  17.875  0.00  0.00    +0.000 N 
ATOM      3  C   UNK A   2       5.418   4.277  18.558  0.00  0.00    +0.000 C 
ATOM      4  O   UNK A   2       4.797   3.412  19.169  0.00  0.00    +0.000 OA
ATOM      5  C   UNK A   2       4.996   5.768  18.543  0.00  0.00    +0.000 C 
ATOM      6  N   UNK A   2       6.046   6.646  18.027  0.00  0.00    +0.000 N 
ATOM      7  C   UNK A   1       7.024   6.247  17.146  0.00  0.00    +0.000 C 
ATOM      8  O   UNK A   1       7.745   7.090  16.617  0.00  0.00    +0.000 OA
ATOM      9  H   UNK A   1       6.771   2.961  17.862  0.00  0.00    +0.000 HD
ATOM     10  H   UNK A   2       6.035   7.630  18.261  0.00  0.00    +0.000 HD
ENDROOT
BRANCH   1  11
ATOM     11  C   UNK A   1       6.149   4.613  15.528  0.00  0.00    +0.000 C 
BRANCH  11  12
ATOM     12  C   UNK A   1       6.744   4.632  14.160  0.00  0.00    +0.000 C 
ATOM     13  O   UNK A   1       7.701   5.331  13.839  0.00  0.00    +0.000 OA
BRANCH  12  15
ATOM     14  C   UNK A   1       6.723   3.592  12.075  0.00  0.00    +0.000 C 
ATOM     15  O   UNK A   1       6.191   3.656  13.397  0.00  0.00    +0.000 OA
ENDBRANCH  12  15
ENDBRANCH  11  12
ENDBRANCH   1  11
BRANCH   5  16
ATOM     16  C   UNK A   2       3.561   6.058  18.010  0.00  0.00    +0.000 C 
BRANCH  16  17
ATOM     17  C   UNK A   2       2.806   7.267  18.533  0.00  0.00    +0.000 A 
ATOM     18  C   UNK A   2       2.348   7.278  19.863  0.00  0.00    +0.000 A 
ATOM     19  C   UNK A   2       1.427   8.235  20.302  0.00  0.00    +0.000 A 
ATOM     20  C   UNK A   2       0.965   9.214  19.424  0.00  0.00    +0.000 A 
ATOM     21  C   UNK A   2       1.483   9.268  18.126  0.00  0.00    +0.000 A 
ATOM     22  C   UNK A   2       2.421   8.322  17.689  0.00  0.00    +0.000 A 
BRANCH  20  23
ATOM     23  O   UNK A   2      -0.041  10.098  19.694  0.00  0.00    +0.000 OA
BRANCH  23  24
ATOM     24  C   UNK A   2       0.323  11.256  20.446  0.00  0.00    +0.000 C 
BRANCH  24  25
ATOM     25  C   UNK A   2      -0.900  11.704  21.203  0.00  0.00    +0.000 A 
ATOM     26  C   UNK A   2      -1.874  12.516  20.611  0.00  0.00    +0.000 A 
ATOM     27  C   UNK A   2      -2.987  12.930  21.353  0.00  0.00    +0.000 A 
ATOM     28  C   UNK A   2      -3.130  12.526  22.682  0.00  0.00    +0.000 A 
ATOM     29  C   UNK A   2      -2.157  11.730  23.278  0.00  0.00    +0.000 A 
ATOM     30  C   UNK A   2      -1.046  11.322  22.544  0.00  0.00    +0.000 A 
ENDBRANCH  24  25
ENDBRANCH  23  24
ENDBRANCH  20  23
ENDBRANCH  16  17
ENDBRANCH   5  16
TORSDOF 8
ENDMDL
MODEL 3
REMARK VINA RESULT:      -8.1      0.602      1.274
REMARK  Name = 
REMARK  9 active torsions:
REMARK  status: ('A' for Active; 'I' for Inactive)
REMARK    1  A    between atoms: C_1  and  O_2
REMARK    2  A    between atoms: O_2  and  C_3
REMARK    3  A    between atoms: C_3  and  C_5
REMARK    4  A    between atoms: C_5  and  C_6
REMARK    5  A    between atoms: C_10  and  C_11
REMARK    6  A    between atoms: C_11  and  C_12
REMARK    7  A    between atoms: C_15  and  O_16
REMARK    8  A    between atoms: O_16  and  C_17
REMARK    9  A    between atoms: C_17  and  C_18
REMARK                            x       y       z     vdW  Elec       q    Type
REMARK                         _______ _______ _______ _____ _____    ______ ____
ROOT
ATOM      1  C   UNK A   1       6.944   4.853  16.581  0.00  0.00    +0.000 C 
ATOM      2  N   UNK A   1       6.390   3.904  17.544  0.00  0.00    +0.000 N 
ATOM      3  C   UNK A   2       5.210   4.166  18.212  0.00  0.00    +0.000 C 
ATOM      4  O   UNK A   2       4.520   3.245  18.640  0.00  0.00    +0.000 OA
ATOM      5  C   UNK A   2       4.851   5.658  18.424  0.00  0.00    +0.000 C 
ATOM      6  N   UNK A   2       5.965   6.556  18.113  0.00  0.00    +0.000 N 
ATOM      7  C   UNK A   1       6.974   6.257  17.228  0.00  0.00    +0.000 C 
ATOM      8  O   UNK A   1       7.758   7.138  16.882  0.00  0.00    +0.000 OA
ATOM      9  H   UNK A   1       6.545   2.916  17.377  0.00  0.00    +0.000 HD
ATOM     10  H   UNK A   2       5.981   7.488  18.506  0.00  0.00    +0.000 HD
ENDROOT
BRANCH   1  11
ATOM     11  C   UNK A   1       6.126   4.955  15.320  0.00  0.00    +0.000 C 
BRANCH  11  12
ATOM     12  C   UNK A   1       6.678   4.458  14.027  0.00  0.00    +0.000 C 
ATOM     13  O   UNK A   1       6.212   3.508  13.402  0.00  0.00    +0.000 OA
BRANCH  12  15
ATOM     14  C   UNK A   1       7.743   5.340  12.151  0.00  0.00    +0.000 C 
ATOM     15  O   UNK A   1       7.637   5.303  13.572  0.00  0.00    +0.000 OA
ENDBRANCH  12  15
ENDBRANCH  11  12
ENDBRANCH   1  11
BRANCH   5  16
ATOM     16  C   UNK A   2       3.462   6.103  17.876  0.00  0.00    +0.000 C 
BRANCH  16  17
ATOM     17  C   UNK A   2       2.769   7.302  18.498  0.00  0.00    +0.000 A 
ATOM     18  C   UNK A   2       2.320   7.231  19.830  0.00  0.00    +0.000 A 
ATOM     19  C   UNK A   2       1.449   8.194  20.350  0.00  0.00    +0.000 A 
ATOM     20  C   UNK A   2       1.028   9.258  19.555  0.00  0.00    +0.000 A 
ATOM     21  C   UNK A   2       1.540   9.388  18.260  0.00  0.00    +0.000 A 
ATOM     22  C   UNK A   2       2.429   8.437  17.742  0.00  0.00    +0.000 A 
BRANCH  20  23
ATOM     23  O   UNK A   2       0.066  10.165  19.902  0.00  0.00    +0.000 OA
BRANCH  23  24
ATOM     24  C   UNK A   2      -0.182  11.210  18.961  0.00  0.00    +0.000 C 
BRANCH  24  25
ATOM     25  C   UNK A   2      -1.614  11.079  18.511  0.00  0.00    +0.000 A 
ATOM     26  C   UNK A   2      -2.627  11.885  19.039  0.00  0.00    +0.000 A 
ATOM     27  C   UNK A   2      -3.950  11.719  18.611  0.00  0.00    +0.000 A 
ATOM     28  C   UNK A   2      -4.257  10.753  17.650  0.00  0.00    +0.000 A 
ATOM     29  C   UNK A   2      -3.254   9.939  17.133  0.00  0.00    +0.000 A 
ATOM     30  C   UNK A   2      -1.939  10.099  17.561  0.00  0.00    +0.000 A 
ENDBRANCH  24  25
ENDBRANCH  23  24
ENDBRANCH  20  23
ENDBRANCH  16  17
ENDBRANCH   5  16
TORSDOF 8
ENDMDL
MODEL 4
REMARK VINA RESULT:      -8.0      0.940      1.605
REMARK  Name = 
REMARK  9 active torsions:
REMARK  status: ('A' for Active; 'I' for Inactive)
REMARK    1  A    between atoms: C_1  and  O_2
REMARK    2  A    between atoms: O_2  and  C_3
REMARK    3  A    between atoms: C_3  and  C_5
REMARK    4  A    between atoms: C_5  and  C_6
REMARK    5  A    between atoms: C_10  and  C_11
REMARK    6  A    between atoms: C_11  and  C_12
REMARK    7  A    between atoms: C_15  and  O_16
REMARK    8  A    between atoms: O_16  and  C_17
REMARK    9  A    between atoms: C_17  and  C_18
REMARK                            x       y       z     vdW  Elec       q    Type
REMARK                         _______ _______ _______ _____ _____    ______ ____
ROOT
ATOM      1  C   UNK A   1       6.939   4.844  16.925  0.00  0.00    +0.000 C 
ATOM      2  N   UNK A   1       6.699   4.032  18.116  0.00  0.00    +0.000 N 
ATOM      3  C   UNK A   2       5.549   4.180  18.866  0.00  0.00    +0.000 C 
ATOM      4  O   UNK A   2       5.127   3.250  19.547  0.00  0.00    +0.000 OA
ATOM      5  C   UNK A   2       4.873   5.573  18.828  0.00  0.00    +0.000 C 
ATOM      6  N   UNK A   2       5.719   6.595  18.211  0.00  0.00    +0.000 N 
ATOM      7  C   UNK A   1       6.695   6.329  17.279  0.00  0.00    +0.000 C 
ATOM      8  O   UNK A   1       7.224   7.258  16.672  0.00  0.00    +0.000 OA
ATOM      9  H   UNK A   1       7.065   3.086  18.125  0.00  0.00    +0.000 HD
ATOM     10  H   UNK A   2       5.551   7.572  18.411  0.00  0.00    +0.000 HD
ENDROOT
BRANCH   1  11
ATOM     11  C   UNK A   1       6.021   4.496  15.783  0.00  0.00    +0.000 C 
BRANCH  11  12
ATOM     12  C   UNK A   1       6.503   4.602  14.375  0.00  0.00    +0.000 C 
ATOM     13  O   UNK A   1       7.499   5.235  14.038  0.00  0.00    +0.000 OA
BRANCH  12  15
ATOM     14  C   UNK A   1       6.437   3.472  12.338  0.00  0.00    +0.000 C 
ATOM     15  O   UNK A   1       5.791   3.770  13.574  0.00  0.00    +0.000 OA
ENDBRANCH  12  15
ENDBRANCH  11  12
ENDBRANCH   1  11
BRANCH   5  16
ATOM     16  C   UNK A   2       3.379   5.587  18.385  0.00  0.00    +0.000 C 
BRANCH  16  17
ATOM     17  C   UNK A   2       2.553   6.843  18.601  0.00  0.00    +0.000 A 
ATOM     18  C   UNK A   2       2.406   7.767  17.550  0.00  0.00    +0.000 A 
ATOM     19  C   UNK A   2       1.893   9.047  17.780  0.00  0.00    +0.000 A 
ATOM     20  C   UNK A   2       1.494   9.420  19.063  0.00  0.00    +0.000 A 
ATOM     21  C   UNK A   2       1.550   8.479  20.096  0.00  0.00    +0.000 A 
ATOM     22  C   UNK A   2       2.046   7.189  19.865  0.00  0.00    +0.000 A 
BRANCH  20  23
ATOM     23  O   UNK A   2       1.126  10.682  19.434  0.00  0.00    +0.000 OA
BRANCH  23  24
ATOM     24  C   UNK A   2       0.087  10.773  20.410  0.00  0.00    +0.000 C 
BRANCH  24  25
ATOM     25  C   UNK A   2      -1.195  11.066  19.675  0.00  0.00    +0.000 A 
ATOM     26  C   UNK A   2      -2.078  12.061  20.106  0.00  0.00    +0.000 A 
ATOM     27  C   UNK A   2      -3.272  12.291  19.409  0.00  0.00    +0.000 A 
ATOM     28  C   UNK A   2      -3.576  11.530  18.278  0.00  0.00    +0.000 A 
ATOM     29  C   UNK A   2      -2.707  10.529  17.855  0.00  0.00    +0.000 A 
ATOM     30  C   UNK A   2      -1.524  10.296  18.550  0.00  0.00    +0.000 A 
ENDBRANCH  24  25
ENDBRANCH  23  24
ENDBRANCH  20  23
ENDBRANCH  16  17
ENDBRANCH   5  16
TORSDOF 8
ENDMDL
MODEL 5
REMARK VINA RESULT:      -8.0      2.264      3.762
REMARK  Name = 
REMARK  9 active torsions:
REMARK  status: ('A' for Active; 'I' for Inactive)
REMARK    1  A    between atoms: C_1  and  O_2
REMARK    2  A    between atoms: O_2  and  C_3
REMARK    3  A    between atoms: C_3  and  C_5
REMARK    4  A    between atoms: C_5  and  C_6
REMARK    5  A    between atoms: C_10  and  C_11
REMARK    6  A    between atoms: C_11  and  C_12
REMARK    7  A    between atoms: C_15  and  O_16
REMARK    8  A    between atoms: O_16  and  C_17
REMARK    9  A    between atoms: C_17  and  C_18
REMARK                            x       y       z     vdW  Elec       q    Type
REMARK                         _______ _______ _______ _____ _____    ______ ____
ROOT
ATOM      1  C   UNK A   1       7.641   5.668  17.676  0.00  0.00    +0.000 C 
ATOM      2  N   UNK A   1       7.543   4.715  16.572  0.00  0.00    +0.000 N 
ATOM      3  C   UNK A   2       6.347   4.099  16.259  0.00  0.00    +0.000 C 
ATOM      4  O   UNK A   2       6.139   3.688  15.122  0.00  0.00    +0.000 OA
ATOM      5  C   UNK A   2       5.335   3.924  17.419  0.00  0.00    +0.000 C 
ATOM      6  N   UNK A   2       5.925   4.201  18.729  0.00  0.00    +0.000 N 
ATOM      7  C   UNK A   1       6.995   5.041  18.933  0.00  0.00    +0.000 C 
ATOM      8  O   UNK A   1       7.302   5.366  20.078  0.00  0.00    +0.000 OA
ATOM      9  H   UNK A   1       8.141   4.862  15.766  0.00  0.00    +0.000 HD
ATOM     10  H   UNK A   2       5.495   3.821  19.562  0.00  0.00    +0.000 HD
ENDROOT
BRANCH   1  11
ATOM     11  C   UNK A   1       6.922   6.962  17.399  0.00  0.00    +0.000 C 
BRANCH  11  12
ATOM     12  C   UNK A   1       7.608   8.266  17.634  0.00  0.00    +0.000 C 
ATOM     13  O   UNK A   1       7.263   9.325  17.115  0.00  0.00    +0.000 OA
BRANCH  12  15
ATOM     14  C   UNK A   1       9.047   9.380  19.089  0.00  0.00    +0.000 C 
ATOM     15  O   UNK A   1       8.535   8.136  18.615  0.00  0.00    +0.000 OA
ENDBRANCH  12  15
ENDBRANCH  11  12
ENDBRANCH   1  11
BRANCH   5  16
ATOM     16  C   UNK A   2       3.921   4.535  17.180  0.00  0.00    +0.000 C 
BRANCH  16  17
ATOM     17  C   UNK A   2       3.465   5.704  18.034  0.00  0.00    +0.000 A 
ATOM     18  C   UNK A   2       2.919   5.462  19.308  0.00  0.00    +0.000 A 
ATOM     19  C   UNK A   2       2.245   6.469  20.007  0.00  0.00    +0.000 A 
ATOM     20  C   UNK A   2       2.125   7.743  19.456  0.00  0.00    +0.000 A 
ATOM     21  C   UNK A   2       2.743   8.018  18.232  0.00  0.00    +0.000 A 
ATOM     22  C   UNK A   2       3.437   7.018  17.538  0.00  0.00    +0.000 A 
BRANCH  20  23
ATOM     23  O   UNK A   2       1.363   8.752  19.972  0.00  0.00    +0.000 OA
BRANCH  23  24
ATOM     24  C   UNK A   2       0.666   8.459  21.184  0.00  0.00    +0.000 C 
BRANCH  24  25
ATOM     25  C   UNK A   2      -0.134   9.681  21.550  0.00  0.00    +0.000 A 
ATOM     26  C   UNK A   2      -0.562   9.914  22.861  0.00  0.00    +0.000 A 
ATOM     27  C   UNK A   2      -1.323  11.051  23.159  0.00  0.00    +0.000 A 
ATOM     28  C   UNK A   2      -1.649  11.958  22.148  0.00  0.00    +0.000 A 
ATOM     29  C   UNK A   2      -1.239  11.722  20.840  0.00  0.00    +0.000 A 
ATOM     30  C   UNK A   2      -0.487  10.589  20.541  0.00  0.00    +0.000 A 
ENDBRANCH  24  25
ENDBRANCH  23  24
ENDBRANCH  20  23
ENDBRANCH  16  17
ENDBRANCH   5  16
TORSDOF 8
ENDMDL
MODEL 6
REMARK VINA RESULT:      -8.0      3.422      7.735
REMARK  Name = 
REMARK  9 active torsions:
REMARK  status: ('A' for Active; 'I' for Inactive)
REMARK    1  A    between atoms: C_1  and  O_2
REMARK    2  A    between atoms: O_2  and  C_3
REMARK    3  A    between atoms: C_3  and  C_5
REMARK    4  A    between atoms: C_5  and  C_6
REMARK    5  A    between atoms: C_10  and  C_11
REMARK    6  A    between atoms: C_11  and  C_12
REMARK    7  A    between atoms: C_15  and  O_16
REMARK    8  A    between atoms: O_16  and  C_17
REMARK    9  A    between atoms: C_17  and  C_18
REMARK                            x       y       z     vdW  Elec       q    Type
REMARK                         _______ _______ _______ _____ _____    ______ ____
ROOT
ATOM      1  C   UNK A   1       2.240   4.539  19.278  0.00  0.00    +0.000 C 
ATOM      2  N   UNK A   1       2.962   3.465  19.959  0.00  0.00    +0.000 N 
ATOM      3  C   UNK A   2       3.978   2.773  19.331  0.00  0.00    +0.000 C 
ATOM      4  O   UNK A   2       4.859   2.229  19.991  0.00  0.00    +0.000 OA
ATOM      5  C   UNK A   2       3.909   2.691  17.786  0.00  0.00    +0.000 C 
ATOM      6  N   UNK A   2       2.620   3.135  17.255  0.00  0.00    +0.000 N 
ATOM      7  C   UNK A   1       1.791   4.032  17.887  0.00  0.00    +0.000 C 
ATOM      8  O   UNK A   1       0.826   4.495  17.285  0.00  0.00    +0.000 OA
ATOM      9  H   UNK A   1       3.088   3.543  20.962  0.00  0.00    +0.000 HD
ATOM     10  H   UNK A   2       2.328   2.835  16.334  0.00  0.00    +0.000 HD
ENDROOT
BRANCH   1  11
ATOM     11  C   UNK A   1       3.086   5.766  19.058  0.00  0.00    +0.000 C 
BRANCH  11  12
ATOM     12  C   UNK A   1       2.473   7.123  19.140  0.00  0.00    +0.000 C 
ATOM     13  O   UNK A   1       2.005   7.603  20.169  0.00  0.00    +0.000 OA
BRANCH  12  15
ATOM     14  C   UNK A   1       1.841   8.950  17.838  0.00  0.00    +0.000 C 
ATOM     15  O   UNK A   1       2.665   7.793  17.976  0.00  0.00    +0.000 OA
ENDBRANCH  12  15
ENDBRANCH  11  12
ENDBRANCH   1  11
BRANCH   5  16
ATOM     16  C   UNK A   2       5.163   3.217  17.024  0.00  0.00    +0.000 C 
BRANCH  16  17
ATOM     17  C   UNK A   2       5.652   4.630  17.289  0.00  0.00    +0.000 A 
ATOM     18  C   UNK A   2       5.197   5.686  16.478  0.00  0.00    +0.000 A 
ATOM     19  C   UNK A   2       5.818   6.939  16.509  0.00  0.00    +0.000 A 
ATOM     20  C   UNK A   2       6.891   7.166  17.369  0.00  0.00    +0.000 A 
ATOM     21  C   UNK A   2       7.292   6.152  18.244  0.00  0.00    +0.000 A 
ATOM     22  C   UNK A   2       6.659   4.901  18.231  0.00  0.00    +0.000 A 
BRANCH  20  23
ATOM     23  O   UNK A   2       7.668   8.290  17.374  0.00  0.00    +0.000 OA
BRANCH  23  24
ATOM     24  C   UNK A   2       8.508   8.469  18.515  0.00  0.00    +0.000 C 
BRANCH  24  25
ATOM     25  C   UNK A   2       8.840   9.936  18.603  0.00  0.00    +0.000 A 
ATOM     26  C   UNK A   2       9.667  10.443  19.611  0.00  0.00    +0.000 A 
ATOM     27  C   UNK A   2       9.936  11.816  19.673  0.00  0.00    +0.000 A 
ATOM     28  C   UNK A   2       9.385  12.679  18.723  0.00  0.00    +0.000 A 
ATOM     29  C   UNK A   2       8.550  12.180  17.728  0.00  0.00    +0.000 A 
ATOM     30  C   UNK A   2       8.277  10.817  17.669  0.00  0.00    +0.000 A 
ENDBRANCH  24  25
ENDBRANCH  23  24
ENDBRANCH  20  23
ENDBRANCH  16  17
ENDBRANCH   5  16
TORSDOF 8
ENDMDL
MODEL 7
REMARK VINA RESULT:      -7.9      2.201      2.902
REMARK  Name = 
REMARK  9 active torsions:
REMARK  status: ('A' for Active; 'I' for Inactive)
REMARK    1  A    between atoms: C_1  and  O_2
REMARK    2  A    between atoms: O_2  and  C_3
REMARK    3  A    between atoms: C_3  and  C_5
REMARK    4  A    between atoms: C_5  and  C_6
REMARK    5  A    between atoms: C_10  and  C_11
REMARK    6  A    between atoms: C_11  and  C_12
REMARK    7  A    between atoms: C_15  and  O_16
REMARK    8  A    between atoms: O_16  and  C_17
REMARK    9  A    between atoms: C_17  and  C_18
REMARK                            x       y       z     vdW  Elec       q    Type
REMARK                         _______ _______ _______ _____ _____    ______ ____
ROOT
ATOM      1  C   UNK A   1       5.047   4.087  17.587  0.00  0.00    +0.000 C 
ATOM      2  N   UNK A   1       3.654   3.659  17.475  0.00  0.00    +0.000 N 
ATOM      3  C   UNK A   2       2.613   4.513  17.784  0.00  0.00    +0.000 C 
ATOM      4  O   UNK A   2       1.506   4.352  17.280  0.00  0.00    +0.000 OA
ATOM      5  C   UNK A   2       2.916   5.627  18.818  0.00  0.00    +0.000 C 
ATOM      6  N   UNK A   2       4.192   5.427  19.506  0.00  0.00    +0.000 N 
ATOM      7  C   UNK A   1       5.257   4.738  18.974  0.00  0.00    +0.000 C 
ATOM      8  O   UNK A   1       6.349   4.783  19.535  0.00  0.00    +0.000 OA
ATOM      9  H   UNK A   1       3.422   2.990  16.749  0.00  0.00    +0.000 HD
ATOM     10  H   UNK A   2       4.353   5.871  20.400  0.00  0.00    +0.000 HD
ENDROOT
BRANCH   1  11
ATOM     11  C   UNK A   1       5.432   5.107  16.548  0.00  0.00    +0.000 C 
BRANCH  11  12
ATOM     12  C   UNK A   1       6.783   5.060  15.917  0.00  0.00    +0.000 C 
ATOM     13  O   UNK A   1       7.769   4.553  16.445  0.00  0.00    +0.000 OA
BRANCH  12  15
ATOM     14  C   UNK A   1       6.662   4.442  13.673  0.00  0.00    +0.000 C 
ATOM     15  O   UNK A   1       6.715   5.495  14.634  0.00  0.00    +0.000 OA
ENDBRANCH  12  15
ENDBRANCH  11  12
ENDBRANCH   1  11
BRANCH   5  16
ATOM     16  C   UNK A   2       2.636   7.084  18.341  0.00  0.00    +0.000 C 
BRANCH  16  17
ATOM     17  C   UNK A   2       1.845   8.019  19.239  0.00  0.00    +0.000 A 
ATOM     18  C   UNK A   2       1.419   9.265  18.743  0.00  0.00    +0.000 A 
ATOM     19  C   UNK A   2       0.933  10.256  19.601  0.00  0.00    +0.000 A 
ATOM     20  C   UNK A   2       0.842  10.012  20.970  0.00  0.00    +0.000 A 
ATOM     21  C   UNK A   2       1.176   8.747  21.462  0.00  0.00    +0.000 A 
ATOM     22  C   UNK A   2       1.644   7.743  20.602  0.00  0.00    +0.000 A 
BRANCH  20  23
ATOM     23  O   UNK A   2       0.532  10.949  21.915  0.00  0.00    +0.000 OA
BRANCH  23  24
ATOM     24  C   UNK A   2       0.162  12.238  21.425  0.00  0.00    +0.000 C 
BRANCH  24  25
ATOM     25  C   UNK A   2      -1.322  12.390  21.635  0.00  0.00    +0.000 A 
ATOM     26  C   UNK A   2      -2.202  12.566  20.562  0.00  0.00    +0.000 A 
ATOM     27  C   UNK A   2      -3.574  12.725  20.798  0.00  0.00    +0.000 A 
ATOM     28  C   UNK A   2      -4.064  12.700  22.106  0.00  0.00    +0.000 A 
ATOM     29  C   UNK A   2      -3.191  12.539  23.176  0.00  0.00    +0.000 A 
ATOM     30  C   UNK A   2      -1.826  12.387  22.944  0.00  0.00    +0.000 A 
ENDBRANCH  24  25
ENDBRANCH  23  24
ENDBRANCH  20  23
ENDBRANCH  16  17
ENDBRANCH   5  16
TORSDOF 8
ENDMDL
MODEL 8
REMARK VINA RESULT:      -7.9      2.620      3.564
REMARK  Name = 
REMARK  9 active torsions:
REMARK  status: ('A' for Active; 'I' for Inactive)
REMARK    1  A    between atoms: C_1  and  O_2
REMARK    2  A    between atoms: O_2  and  C_3
REMARK    3  A    between atoms: C_3  and  C_5
REMARK    4  A    between atoms: C_5  and  C_6
REMARK    5  A    between atoms: C_10  and  C_11
REMARK    6  A    between atoms: C_11  and  C_12
REMARK    7  A    between atoms: C_15  and  O_16
REMARK    8  A    between atoms: O_16  and  C_17
REMARK    9  A    between atoms: C_17  and  C_18
REMARK                            x       y       z     vdW  Elec       q    Type
REMARK                         _______ _______ _______ _____ _____    ______ ____
ROOT
ATOM      1  C   UNK A   1       4.803   3.638  17.558  0.00  0.00    +0.000 C 
ATOM      2  N   UNK A   1       3.368   3.361  17.554  0.00  0.00    +0.000 N 
ATOM      3  C   UNK A   2       2.443   4.360  17.784  0.00  0.00    +0.000 C 
ATOM      4  O   UNK A   2       1.300   4.262  17.346  0.00  0.00    +0.000 OA
ATOM      5  C   UNK A   2       2.916   5.556  18.648  0.00  0.00    +0.000 C 
ATOM      6  N   UNK A   2       4.196   5.302  19.310  0.00  0.00    +0.000 N 
ATOM      7  C   UNK A   1       5.152   4.434  18.837  0.00  0.00    +0.000 C 
ATOM      8  O   UNK A   1       6.270   4.426  19.347  0.00  0.00    +0.000 OA
ATOM      9  H   UNK A   1       3.029   2.635  16.933  0.00  0.00    +0.000 HD
ATOM     10  H   UNK A   2       4.449   5.836  20.131  0.00  0.00    +0.000 HD
ENDROOT
BRANCH   1  11
ATOM     11  C   UNK A   1       5.243   4.466  16.379  0.00  0.00    +0.000 C 
BRANCH  11  12
ATOM     12  C   UNK A   1       6.542   5.198  16.420  0.00  0.00    +0.000 C 
ATOM     13  O   UNK A   1       7.634   4.666  16.242  0.00  0.00    +0.000 OA
BRANCH  12  15
ATOM     14  C   UNK A   1       7.234   7.209  17.372  0.00  0.00    +0.000 C 
ATOM     15  O   UNK A   1       6.322   6.534  16.508  0.00  0.00    +0.000 OA
ENDBRANCH  12  15
ENDBRANCH  11  12
ENDBRANCH   1  11
BRANCH   5  16
ATOM     16  C   UNK A   2       2.771   6.962  17.992  0.00  0.00    +0.000 C 
BRANCH  16  17
ATOM     17  C   UNK A   2       2.159   8.096  18.796  0.00  0.00    +0.000 A 
ATOM     18  C   UNK A   2       1.788   7.876  20.136  0.00  0.00    +0.000 A 
ATOM     19  C   UNK A   2       0.985   8.792  20.822  0.00  0.00    +0.000 A 
ATOM     20  C   UNK A   2       0.556   9.957  20.188  0.00  0.00    +0.000 A 
ATOM     21  C   UNK A   2       0.994  10.229  18.889  0.00  0.00    +0.000 A 
ATOM     22  C   UNK A   2       1.816   9.323  18.205  0.00  0.00    +0.000 A 
BRANCH  20  23
ATOM     23  O   UNK A   2      -0.350  10.841  20.702  0.00  0.00    +0.000 OA
BRANCH  23  24
ATOM     24  C   UNK A   2       0.192  11.992  21.351  0.00  0.00    +0.000 C 
BRANCH  24  25
ATOM     25  C   UNK A   2      -0.878  12.544  22.257  0.00  0.00    +0.000 A 
ATOM     26  C   UNK A   2      -0.800  13.836  22.785  0.00  0.00    +0.000 A 
ATOM     27  C   UNK A   2      -1.804  14.306  23.641  0.00  0.00    +0.000 A 
ATOM     28  C   UNK A   2      -2.888  13.486  23.962  0.00  0.00    +0.000 A 
ATOM     29  C   UNK A   2      -2.961  12.195  23.451  0.00  0.00    +0.000 A 
ATOM     30  C   UNK A   2      -1.962  11.724  22.604  0.00  0.00    +0.000 A 
ENDBRANCH  24  25
ENDBRANCH  23  24
ENDBRANCH  20  23
ENDBRANCH  16  17
ENDBRANCH   5  16
TORSDOF 8
ENDMDL
MODEL 9
REMARK VINA RESULT:      -7.8      2.240      2.796
REMARK  Name = 
REMARK  9 active torsions:
REMARK  status: ('A' for Active; 'I' for Inactive)
REMARK    1  A    between atoms: C_1  and  O_2
REMARK    2  A    between atoms: O_2  and  C_3
REMARK    3  A    between atoms: C_3  and  C_5
REMARK    4  A    between atoms: C_5  and  C_6
REMARK    5  A    between atoms: C_10  and  C_11
REMARK    6  A    between atoms: C_11  and  C_12
REMARK    7  A    between atoms: C_15  and  O_16
REMARK    8  A    between atoms: O_16  and  C_17
REMARK    9  A    between atoms: C_17  and  C_18
REMARK                            x       y       z     vdW  Elec       q    Type
REMARK                         _______ _______ _______ _____ _____    ______ ____
ROOT
ATOM      1  C   UNK A   1       5.138   3.963  17.939  0.00  0.00    +0.000 C 
ATOM      2  N   UNK A   1       3.756   3.498  17.836  0.00  0.00    +0.000 N 
ATOM      3  C   UNK A   2       2.695   4.380  17.902  0.00  0.00    +0.000 C 
ATOM      4  O   UNK A   2       1.621   4.100  17.377  0.00  0.00    +0.000 OA
ATOM      5  C   UNK A   2       2.929   5.687  18.700  0.00  0.00    +0.000 C 
ATOM      6  N   UNK A   2       4.162   5.653  19.488  0.00  0.00    +0.000 N 
ATOM      7  C   UNK A   1       5.260   4.888  19.173  0.00  0.00    +0.000 C 
ATOM      8  O   UNK A   1       6.317   5.064  19.775  0.00  0.00    +0.000 OA
ATOM      9  H   UNK A   1       3.571   2.691  17.250  0.00  0.00    +0.000 HD
ATOM     10  H   UNK A   2       4.267   6.274  20.280  0.00  0.00    +0.000 HD
ENDROOT
BRANCH   1  11
ATOM     11  C   UNK A   1       5.581   4.755  16.737  0.00  0.00    +0.000 C 
BRANCH  11  12
ATOM     12  C   UNK A   1       6.929   4.522  16.142  0.00  0.00    +0.000 C 
ATOM     13  O   UNK A   1       7.970   4.490  16.794  0.00  0.00    +0.000 OA
BRANCH  12  15
ATOM     14  C   UNK A   1       5.491   4.346  14.317  0.00  0.00    +0.000 C 
ATOM     15  O   UNK A   1       6.811   4.186  14.833  0.00  0.00    +0.000 OA
ENDBRANCH  12  15
ENDBRANCH  11  12
ENDBRANCH   1  11
BRANCH   5  16
ATOM     16  C   UNK A   2       2.672   7.011  17.919  0.00  0.00    +0.000 C 
BRANCH  16  17
ATOM     17  C   UNK A   2       2.162   8.227  18.670  0.00  0.00    +0.000 A 
ATOM     18  C   UNK A   2       1.811   8.109  20.028  0.00  0.00    +0.000 A 
ATOM     19  C   UNK A   2       1.091   9.116  20.678  0.00  0.00    +0.000 A 
ATOM     20  C   UNK A   2       0.728  10.272  19.989  0.00  0.00    +0.000 A 
ATOM     21  C   UNK A   2       1.150  10.440  18.666  0.00  0.00    +0.000 A 
ATOM     22  C   UNK A   2       1.890   9.441  18.017  0.00  0.00    +0.000 A 
BRANCH  20  23
ATOM     23  O   UNK A   2      -0.101  11.245  20.470  0.00  0.00    +0.000 OA
BRANCH  23  24
ATOM     24  C   UNK A   2      -0.532  11.091  21.823  0.00  0.00    +0.000 C 
BRANCH  24  25
ATOM     25  C   UNK A   2      -1.850  11.808  21.960  0.00  0.00    +0.000 A 
ATOM     26  C   UNK A   2      -2.493  12.380  20.858  0.00  0.00    +0.000 A 
ATOM     27  C   UNK A   2      -3.707  13.058  21.028  0.00  0.00    +0.000 A 
ATOM     28  C   UNK A   2      -4.280  13.156  22.298  0.00  0.00    +0.000 A 
ATOM     29  C   UNK A   2      -3.636  12.601  23.399  0.00  0.00    +0.000 A 
ATOM     30  C   UNK A   2      -2.427  11.932  23.233  0.00  0.00    +0.000 A 
ENDBRANCH  24  25
ENDBRANCH  23  24
ENDBRANCH  20  23
ENDBRANCH  16  17
ENDBRANCH   5  16
TORSDOF 8
ENDMDL
