MODEL 1
REMARK VINA RESULT:      -7.5      0.000      0.000
REMARK  Name = 
REMARK  7 active torsions:
REMARK  status: ('A' for Active; 'I' for Inactive)
REMARK    1  A    between atoms: C_4  and  O_5
REMARK    2  A    between atoms: O_5  and  C_6
REMARK    3  A    between atoms: C_6  and  C_7
REMARK    4  A    between atoms: C_7  and  N_8
REMARK    5  A    between atoms: N_8  and  C_9
REMARK    6  A    between atoms: C_9  and  C_10
REMARK    7  A    between atoms: C_13  and  C_14
REMARK                            x       y       z     vdW  Elec       q    Type
REMARK                         _______ _______ _______ _____ _____    ______ ____
ROOT
ATOM      1  C   UNL     1       4.935   3.528  17.974  0.00  0.00    +0.000 C 
ENDROOT
BRANCH   1   2
ATOM      2  C   UNL     1       5.811   4.643  18.592  0.00  0.00    +0.000 C 
ATOM      3  C   UNL     1       5.458   5.987  17.955  0.00  0.00    +0.000 C 
ATOM      4  O   UNL     1       5.592   5.900  16.534  0.00  0.00    +0.000 OA
ATOM      5  C   UNL     1       6.909   5.498  16.115  0.00  0.00    +0.000 C 
ATOM      6  C   UNL     1       7.596   4.430  17.017  0.00  0.00    +0.000 C 
ATOM      7  O   UNL     1       7.221   4.436  18.398  0.00  0.00    +0.000 OA
BRANCH   5   8
ATOM      8  C   UNL     1       6.797   4.954  14.694  0.00  0.00    +0.000 A 
ATOM      9  C   UNL     1       7.701   5.365  13.705  0.00  0.00    +0.000 A 
ATOM     10  C   UNL     1       7.627   4.840  12.411  0.00  0.00    +0.000 A 
ATOM     11  C   UNL     1       6.664   3.885  12.091  0.00  0.00    +0.000 A 
ATOM     12  C   UNL     1       5.771   3.451  13.063  0.00  0.00    +0.000 A 
ATOM     13  C   UNL     1       5.835   3.985  14.351  0.00  0.00    +0.000 A 
ENDBRANCH   5   8
ENDBRANCH   1   2
BRANCH   1  14
ATOM     14  N   UNL     1       4.436   2.522  18.922  0.00  0.00    +0.000 NA
ATOM     15  H   UNL     1       5.195   1.867  19.126  0.00  0.00    +0.000 HD
BRANCH  14  16
ATOM     16  C   UNL     1       3.317   1.813  18.280  0.00  0.00    +0.000 C 
BRANCH  16  17
ATOM     17  C   UNL     1       2.015   1.898  19.071  0.00  0.00    +0.000 C 
BRANCH  17  18
ATOM     18  O   UNL     1       1.213   2.911  18.455  0.00  0.00    +0.000 OA
BRANCH  18  22
ATOM     19  C   UNL     1       2.180   6.747  19.727  0.00  0.00    +0.000 A 
ATOM     20  C   UNL     1       1.894   5.731  20.636  0.00  0.00    +0.000 A 
ATOM     21  C   UNL     1       1.577   4.453  20.172  0.00  0.00    +0.000 A 
ATOM     22  C   UNL     1       1.524   4.194  18.802  0.00  0.00    +0.000 A 
ATOM     23  C   UNL     1       1.831   5.212  17.898  0.00  0.00    +0.000 A 
ATOM     24  C   UNL     1       2.156   6.485  18.358  0.00  0.00    +0.000 A 
ENDBRANCH  18  22
ENDBRANCH  17  18
ENDBRANCH  16  17
ENDBRANCH  14  16
ENDBRANCH   1  14
TORSDOF 7
ENDMDL
MODEL 2
REMARK VINA RESULT:      -7.5      4.718      7.927
REMARK  Name = 
REMARK  7 active torsions:
REMARK  status: ('A' for Active; 'I' for Inactive)
REMARK    1  A    between atoms: C_4  and  O_5
REMARK    2  A    between atoms: O_5  and  C_6
REMARK    3  A    between atoms: C_6  and  C_7
REMARK    4  A    between atoms: C_7  and  N_8
REMARK    5  A    between atoms: N_8  and  C_9
REMARK    6  A    between atoms: C_9  and  C_10
REMARK    7  A    between atoms: C_13  and  C_14
REMARK                            x       y       z     vdW  Elec       q    Type
REMARK                         _______ _______ _______ _____ _____    ______ ____
ROOT
ATOM      1  C   UNL     1       7.513   6.302  18.195  0.00  0.00    +0.000 C 
ENDROOT
BRANCH   1   2
ATOM      2  C   UNL     1       7.173   4.837  17.835  0.00  0.00    +0.000 C 
ATOM      3  C   UNL     1       6.285   4.806  16.591  0.00  0.00    +0.000 C 
ATOM      4  O   UNL     1       5.121   5.608  16.805  0.00  0.00    +0.000 OA
ATOM      5  C   UNL     1       4.358   5.199  17.954  0.00  0.00    +0.000 C 
ATOM      6  C   UNL     1       5.198   4.724  19.176  0.00  0.00    +0.000 C 
ATOM      7  O   UNL     1       6.471   4.140  18.878  0.00  0.00    +0.000 OA
BRANCH   5   8
ATOM      8  C   UNL     1       3.485   6.377  18.376  0.00  0.00    +0.000 A 
ATOM      9  C   UNL     1       3.339   7.488  17.533  0.00  0.00    +0.000 A 
ATOM     10  C   UNL     1       2.510   8.553  17.899  0.00  0.00    +0.000 A 
ATOM     11  C   UNL     1       1.802   8.517  19.098  0.00  0.00    +0.000 A 
ATOM     12  C   UNL     1       1.920   7.417  19.938  0.00  0.00    +0.000 A 
ATOM     13  C   UNL     1       2.758   6.359  19.581  0.00  0.00    +0.000 A 
ENDBRANCH   5   8
ENDBRANCH   1   2
BRANCH   1  14
ATOM     14  N   UNL     1       7.578   7.231  17.058  0.00  0.00    +0.000 NA
ATOM     15  H   UNL     1       8.505   7.154  16.632  0.00  0.00    +0.000 HD
BRANCH  14  16
ATOM     16  C   UNL     1       7.373   8.594  17.576  0.00  0.00    +0.000 C 
BRANCH  16  17
ATOM     17  C   UNL     1       8.523   9.088  18.448  0.00  0.00    +0.000 C 
BRANCH  17  18
ATOM     18  O   UNL     1       9.068  10.247  17.809  0.00  0.00    +0.000 OA
BRANCH  18  22
ATOM     19  C   UNL     1      11.654  12.672  19.978  0.00  0.00    +0.000 A 
ATOM     20  C   UNL     1      11.717  12.603  18.588  0.00  0.00    +0.000 A 
ATOM     21  C   UNL     1      10.829  11.780  17.893  0.00  0.00    +0.000 A 
ATOM     22  C   UNL     1       9.893  11.009  18.584  0.00  0.00    +0.000 A 
ATOM     23  C   UNL     1       9.823  11.099  19.976  0.00  0.00    +0.000 A 
ATOM     24  C   UNL     1      10.701  11.925  20.671  0.00  0.00    +0.000 A 
ENDBRANCH  18  22
ENDBRANCH  17  18
ENDBRANCH  16  17
ENDBRANCH  14  16
ENDBRANCH   1  14
TORSDOF 7
ENDMDL
MODEL 3
REMARK VINA RESULT:      -7.3      4.790      7.025
REMARK  Name = 
REMARK  7 active torsions:
REMARK  status: ('A' for Active; 'I' for Inactive)
REMARK    1  A    between atoms: C_4  and  O_5
REMARK    2  A    between atoms: O_5  and  C_6
REMARK    3  A    between atoms: C_6  and  C_7
REMARK    4  A    between atoms: C_7  and  N_8
REMARK    5  A    between atoms: N_8  and  C_9
REMARK    6  A    between atoms: C_9  and  C_10
REMARK    7  A    between atoms: C_13  and  C_14
REMARK                            x       y       z     vdW  Elec       q    Type
REMARK                         _______ _______ _______ _____ _____    ______ ____
ROOT
ATOM      1  C   UNL     1       6.170   7.054  17.184  0.00  0.00    +0.000 C 
ENDROOT
BRANCH   1   2
ATOM      2  C   UNL     1       5.872   5.803  18.042  0.00  0.00    +0.000 C 
ATOM      3  C   UNL     1       7.078   4.863  18.019  0.00  0.00    +0.000 C 
ATOM      4  O   UNL     1       7.416   4.541  16.668  0.00  0.00    +0.000 OA
ATOM      5  C   UNL     1       6.326   3.946  15.941  0.00  0.00    +0.000 C 
ATOM      6  C   UNL     1       4.917   4.527  16.261  0.00  0.00    +0.000 C 
ATOM      7  O   UNL     1       4.737   5.051  17.581  0.00  0.00    +0.000 OA
BRANCH   5   8
ATOM      8  C   UNL     1       6.611   4.122  14.452  0.00  0.00    +0.000 A 
ATOM      9  C   UNL     1       5.857   3.423  13.499  0.00  0.00    +0.000 A 
ATOM     10  C   UNL     1       6.089   3.610  12.133  0.00  0.00    +0.000 A 
ATOM     11  C   UNL     1       7.061   4.509  11.699  0.00  0.00    +0.000 A 
ATOM     12  C   UNL     1       7.806   5.223  12.628  0.00  0.00    +0.000 A 
ATOM     13  C   UNL     1       7.585   5.028  13.992  0.00  0.00    +0.000 A 
ENDBRANCH   5   8
ENDBRANCH   1   2
BRANCH   1  14
ATOM     14  N   UNL     1       7.592   7.395  17.041  0.00  0.00    +0.000 NA
ATOM     15  H   UNL     1       8.121   6.528  16.919  0.00  0.00    +0.000 HD
BRANCH  14  16
ATOM     16  C   UNL     1       8.020   8.077  18.274  0.00  0.00    +0.000 C 
BRANCH  16  17
ATOM     17  C   UNL     1       8.423   9.532  18.051  0.00  0.00    +0.000 C 
BRANCH  17  18
ATOM     18  O   UNL     1       9.141   9.953  19.214  0.00  0.00    +0.000 OA
BRANCH  18  22
ATOM     19  C   UNL     1      11.823  13.108  18.860  0.00  0.00    +0.000 A 
ATOM     20  C   UNL     1      11.442  12.614  20.106  0.00  0.00    +0.000 A 
ATOM     21  C   UNL     1      10.542  11.551  20.185  0.00  0.00    +0.000 A 
ATOM     22  C   UNL     1      10.004  10.994  19.025  0.00  0.00    +0.000 A 
ATOM     23  C   UNL     1      10.405  11.480  17.780  0.00  0.00    +0.000 A 
ATOM     24  C   UNL     1      11.309  12.535  17.696  0.00  0.00    +0.000 A 
ENDBRANCH  18  22
ENDBRANCH  17  18
ENDBRANCH  16  17
ENDBRANCH  14  16
ENDBRANCH   1  14
TORSDOF 7
ENDMDL
MODEL 4
REMARK VINA RESULT:      -7.3      4.766      7.032
REMARK  Name = 
REMARK  7 active torsions:
REMARK  status: ('A' for Active; 'I' for Inactive)
REMARK    1  A    between atoms: C_4  and  O_5
REMARK    2  A    between atoms: O_5  and  C_6
REMARK    3  A    between atoms: C_6  and  C_7
REMARK    4  A    between atoms: C_7  and  N_8
REMARK    5  A    between atoms: N_8  and  C_9
REMARK    6  A    between atoms: C_9  and  C_10
REMARK    7  A    between atoms: C_13  and  C_14
REMARK                            x       y       z     vdW  Elec       q    Type
REMARK                         _______ _______ _______ _____ _____    ______ ____
ROOT
ATOM      1  C   UNL     1       6.075   7.096  17.202  0.00  0.00    +0.000 C 
ENDROOT
BRANCH   1   2
ATOM      2  C   UNL     1       5.767   5.837  18.046  0.00  0.00    +0.000 C 
ATOM      3  C   UNL     1       6.973   4.898  18.030  0.00  0.00    +0.000 C 
ATOM      4  O   UNL     1       7.327   4.587  16.681  0.00  0.00    +0.000 OA
ATOM      5  C   UNL     1       6.247   3.998  15.935  0.00  0.00    +0.000 C 
ATOM      6  C   UNL     1       4.834   4.575  16.244  0.00  0.00    +0.000 C 
ATOM      7  O   UNL     1       4.637   5.088  17.566  0.00  0.00    +0.000 OA
BRANCH   5   8
ATOM      8  C   UNL     1       6.550   4.185  14.452  0.00  0.00    +0.000 A 
ATOM      9  C   UNL     1       7.503   5.126  14.037  0.00  0.00    +0.000 A 
ATOM     10  C   UNL     1       7.811   5.274  12.681  0.00  0.00    +0.000 A 
ATOM     11  C   UNL     1       7.188   4.475  11.724  0.00  0.00    +0.000 A 
ATOM     12  C   UNL     1       6.255   3.525  12.118  0.00  0.00    +0.000 A 
ATOM     13  C   UNL     1       5.936   3.385  13.469  0.00  0.00    +0.000 A 
ENDBRANCH   5   8
ENDBRANCH   1   2
BRANCH   1  14
ATOM     14  N   UNL     1       7.492   7.477  17.136  0.00  0.00    +0.000 NA
ATOM     15  H   UNL     1       8.030   6.823  17.709  0.00  0.00    +0.000 HD
BRANCH  14  16
ATOM     16  C   UNL     1       7.618   8.842  17.676  0.00  0.00    +0.000 C 
BRANCH  16  17
ATOM     17  C   UNL     1       8.823   9.020  18.594  0.00  0.00    +0.000 C 
BRANCH  17  18
ATOM     18  O   UNL     1       8.729  10.329  19.164  0.00  0.00    +0.000 OA
BRANCH  18  22
ATOM     19  C   UNL     1      12.242  12.540  18.972  0.00  0.00    +0.000 A 
ATOM     20  C   UNL     1      11.617  12.069  17.820  0.00  0.00    +0.000 A 
ATOM     21  C   UNL     1      10.436  11.332  17.924  0.00  0.00    +0.000 A 
ATOM     22  C   UNL     1       9.890  11.047  19.176  0.00  0.00    +0.000 A 
ATOM     23  C   UNL     1      10.511  11.539  20.324  0.00  0.00    +0.000 A 
ATOM     24  C   UNL     1      11.685  12.281  20.224  0.00  0.00    +0.000 A 
ENDBRANCH  18  22
ENDBRANCH  17  18
ENDBRANCH  16  17
ENDBRANCH  14  16
ENDBRANCH   1  14
TORSDOF 7
ENDMDL
MODEL 5
REMARK VINA RESULT:      -7.2      1.029      1.736
REMARK  Name = 
REMARK  7 active torsions:
REMARK  status: ('A' for Active; 'I' for Inactive)
REMARK    1  A    between atoms: C_4  and  O_5
REMARK    2  A    between atoms: O_5  and  C_6
REMARK    3  A    between atoms: C_6  and  C_7
REMARK    4  A    between atoms: C_7  and  N_8
REMARK    5  A    between atoms: N_8  and  C_9
REMARK    6  A    between atoms: C_9  and  C_10
REMARK    7  A    between atoms: C_13  and  C_14
REMARK                            x       y       z     vdW  Elec       q    Type
REMARK                         _______ _______ _______ _____ _____    ______ ____
ROOT
ATOM      1  C   UNL     1       4.753   4.572  17.829  0.00  0.00    +0.000 C 
ENDROOT
BRANCH   1   2
ATOM      2  C   UNL     1       5.973   5.387  18.317  0.00  0.00    +0.000 C 
ATOM      3  C   UNL     1       6.078   6.687  17.519  0.00  0.00    +0.000 C 
ATOM      4  O   UNL     1       6.131   6.394  16.121  0.00  0.00    +0.000 OA
ATOM      5  C   UNL     1       7.220   5.522  15.768  0.00  0.00    +0.000 C 
ATOM      6  C   UNL     1       7.532   4.397  16.800  0.00  0.00    +0.000 C 
ATOM      7  O   UNL     1       7.223   4.692  18.166  0.00  0.00    +0.000 OA
BRANCH   5   8
ATOM      8  C   UNL     1       6.888   4.886  14.422  0.00  0.00    +0.000 A 
ATOM      9  C   UNL     1       7.711   5.111  13.309  0.00  0.00    +0.000 A 
ATOM     10  C   UNL     1       7.431   4.498  12.084  0.00  0.00    +0.000 A 
ATOM     11  C   UNL     1       6.341   3.641  11.955  0.00  0.00    +0.000 A 
ATOM     12  C   UNL     1       5.524   3.391  13.051  0.00  0.00    +0.000 A 
ATOM     13  C   UNL     1       5.794   4.012  14.271  0.00  0.00    +0.000 A 
ENDBRANCH   5   8
ENDBRANCH   1   2
BRANCH   1  14
ATOM     14  N   UNL     1       4.737   3.160  18.233  0.00  0.00    +0.000 NA
ATOM     15  H   UNL     1       5.627   2.736  17.961  0.00  0.00    +0.000 HD
BRANCH  14  16
ATOM     16  C   UNL     1       3.627   2.500  17.524  0.00  0.00    +0.000 C 
BRANCH  16  17
ATOM     17  C   UNL     1       2.576   3.477  17.007  0.00  0.00    +0.000 C 
BRANCH  17  18
ATOM     18  O   UNL     1       1.397   3.285  17.797  0.00  0.00    +0.000 OA
BRANCH  18  22
ATOM     19  C   UNL     1       1.938   3.744  21.891  0.00  0.00    +0.000 A 
ATOM     20  C   UNL     1       2.005   4.832  21.023  0.00  0.00    +0.000 A 
ATOM     21  C   UNL     1       1.815   4.639  19.654  0.00  0.00    +0.000 A 
ATOM     22  C   UNL     1       1.579   3.360  19.147  0.00  0.00    +0.000 A 
ATOM     23  C   UNL     1       1.493   2.279  20.025  0.00  0.00    +0.000 A 
ATOM     24  C   UNL     1       1.674   2.469  21.392  0.00  0.00    +0.000 A 
ENDBRANCH  18  22
ENDBRANCH  17  18
ENDBRANCH  16  17
ENDBRANCH  14  16
ENDBRANCH   1  14
TORSDOF 7
ENDMDL
MODEL 6
REMARK VINA RESULT:      -7.2      1.596      2.799
REMARK  Name = 
REMARK  7 active torsions:
REMARK  status: ('A' for Active; 'I' for Inactive)
REMARK    1  A    between atoms: C_4  and  O_5
REMARK    2  A    between atoms: O_5  and  C_6
REMARK    3  A    between atoms: C_6  and  C_7
REMARK    4  A    between atoms: C_7  and  N_8
REMARK    5  A    between atoms: N_8  and  C_9
REMARK    6  A    between atoms: C_9  and  C_10
REMARK    7  A    between atoms: C_13  and  C_14
REMARK                            x       y       z     vdW  Elec       q    Type
REMARK                         _______ _______ _______ _____ _____    ______ ____
ROOT
ATOM      1  C   UNL     1       4.691   6.705  17.027  0.00  0.00    +0.000 C 
ENDROOT
BRANCH   1   2
ATOM      2  C   UNL     1       5.832   6.220  17.952  0.00  0.00    +0.000 C 
ATOM      3  C   UNL     1       7.176   6.709  17.411  0.00  0.00    +0.000 C 
ATOM      4  O   UNL     1       7.339   6.277  16.058  0.00  0.00    +0.000 OA
ATOM      5  C   UNL     1       7.247   4.849  15.906  0.00  0.00    +0.000 C 
ATOM      6  C   UNL     1       6.190   4.151  16.811  0.00  0.00    +0.000 C 
ATOM      7  O   UNL     1       5.911   4.789  18.062  0.00  0.00    +0.000 OA
BRANCH   5   8
ATOM      8  C   UNL     1       6.923   4.558  14.444  0.00  0.00    +0.000 A 
ATOM      9  C   UNL     1       7.722   5.087  13.421  0.00  0.00    +0.000 A 
ATOM     10  C   UNL     1       7.451   4.791  12.081  0.00  0.00    +0.000 A 
ATOM     11  C   UNL     1       6.393   3.950  11.745  0.00  0.00    +0.000 A 
ATOM     12  C   UNL     1       5.600   3.401  12.745  0.00  0.00    +0.000 A 
ATOM     13  C   UNL     1       5.861   3.707  14.082  0.00  0.00    +0.000 A 
ENDBRANCH   5   8
ENDBRANCH   1   2
BRANCH   1  14
ATOM     14  N   UNL     1       3.625   7.468  17.690  0.00  0.00    +0.000 NA
ATOM     15  H   UNL     1       4.016   7.910  18.525  0.00  0.00    +0.000 HD
BRANCH  14  16
ATOM     16  C   UNL     1       2.562   6.522  18.070  0.00  0.00    +0.000 C 
BRANCH  16  17
ATOM     17  C   UNL     1       2.504   6.251  19.570  0.00  0.00    +0.000 C 
BRANCH  17  18
ATOM     18  O   UNL     1       1.723   5.065  19.754  0.00  0.00    +0.000 OA
BRANCH  18  22
ATOM     19  C   UNL     1       3.543   1.561  18.463  0.00  0.00    +0.000 A 
ATOM     20  C   UNL     1       4.039   2.279  19.548  0.00  0.00    +0.000 A 
ATOM     21  C   UNL     1       3.398   3.451  19.955  0.00  0.00    +0.000 A 
ATOM     22  C   UNL     1       2.278   3.917  19.268  0.00  0.00    +0.000 A 
ATOM     23  C   UNL     1       1.775   3.181  18.193  0.00  0.00    +0.000 A 
ATOM     24  C   UNL     1       2.407   2.008  17.790  0.00  0.00    +0.000 A 
ENDBRANCH  18  22
ENDBRANCH  17  18
ENDBRANCH  16  17
ENDBRANCH  14  16
ENDBRANCH   1  14
TORSDOF 7
ENDMDL
MODEL 7
REMARK VINA RESULT:      -7.2      1.464      2.451
REMARK  Name = 
REMARK  7 active torsions:
REMARK  status: ('A' for Active; 'I' for Inactive)
REMARK    1  A    between atoms: C_4  and  O_5
REMARK    2  A    between atoms: O_5  and  C_6
REMARK    3  A    between atoms: C_6  and  C_7
REMARK    4  A    between atoms: C_7  and  N_8
REMARK    5  A    between atoms: N_8  and  C_9
REMARK    6  A    between atoms: C_9  and  C_10
REMARK    7  A    between atoms: C_13  and  C_14
REMARK                            x       y       z     vdW  Elec       q    Type
REMARK                         _______ _______ _______ _____ _____    ______ ____
ROOT
ATOM      1  C   UNL     1       4.933   4.955  18.141  0.00  0.00    +0.000 C 
ENDROOT
BRANCH   1   2
ATOM      2  C   UNL     1       6.261   5.668  18.488  0.00  0.00    +0.000 C 
ATOM      3  C   UNL     1       6.440   6.891  17.588  0.00  0.00    +0.000 C 
ATOM      4  O   UNL     1       6.364   6.498  16.216  0.00  0.00    +0.000 OA
ATOM      5  C   UNL     1       7.332   5.493  15.863  0.00  0.00    +0.000 C 
ATOM      6  C   UNL     1       7.600   4.416  16.955  0.00  0.00    +0.000 C 
ATOM      7  O   UNL     1       7.420   4.836  18.312  0.00  0.00    +0.000 OA
BRANCH   5   8
ATOM      8  C   UNL     1       6.843   4.804  14.592  0.00  0.00    +0.000 A 
ATOM      9  C   UNL     1       5.592   4.171  14.566  0.00  0.00    +0.000 A 
ATOM     10  C   UNL     1       5.123   3.573  13.392  0.00  0.00    +0.000 A 
ATOM     11  C   UNL     1       5.886   3.612  12.227  0.00  0.00    +0.000 A 
ATOM     12  C   UNL     1       7.119   4.250  12.228  0.00  0.00    +0.000 A 
ATOM     13  C   UNL     1       7.595   4.837  13.402  0.00  0.00    +0.000 A 
ENDBRANCH   5   8
ENDBRANCH   1   2
BRANCH   1  14
ATOM     14  N   UNL     1       3.876   5.822  17.602  0.00  0.00    +0.000 NA
ATOM     15  H   UNL     1       3.796   6.645  18.204  0.00  0.00    +0.000 HD
BRANCH  14  16
ATOM     16  C   UNL     1       2.616   5.060  17.619  0.00  0.00    +0.000 C 
BRANCH  16  17
ATOM     17  C   UNL     1       2.734   3.682  16.976  0.00  0.00    +0.000 C 
BRANCH  17  18
ATOM     18  O   UNL     1       1.863   2.805  17.696  0.00  0.00    +0.000 OA
BRANCH  18  22
ATOM     19  C   UNL     1       2.274   2.644  21.828  0.00  0.00    +0.000 A 
ATOM     20  C   UNL     1       1.060   2.976  21.231  0.00  0.00    +0.000 A 
ATOM     21  C   UNL     1       0.959   3.017  19.840  0.00  0.00    +0.000 A 
ATOM     22  C   UNL     1       2.073   2.747  19.043  0.00  0.00    +0.000 A 
ATOM     23  C   UNL     1       3.281   2.396  19.648  0.00  0.00    +0.000 A 
ATOM     24  C   UNL     1       3.383   2.346  21.035  0.00  0.00    +0.000 A 
ENDBRANCH  18  22
ENDBRANCH  17  18
ENDBRANCH  16  17
ENDBRANCH  14  16
ENDBRANCH   1  14
TORSDOF 7
ENDMDL
MODEL 8
REMARK VINA RESULT:      -7.1      1.322      6.791
REMARK  Name = 
REMARK  7 active torsions:
REMARK  status: ('A' for Active; 'I' for Inactive)
REMARK    1  A    between atoms: C_4  and  O_5
REMARK    2  A    between atoms: O_5  and  C_6
REMARK    3  A    between atoms: C_6  and  C_7
REMARK    4  A    between atoms: C_7  and  N_8
REMARK    5  A    between atoms: N_8  and  C_9
REMARK    6  A    between atoms: C_9  and  C_10
REMARK    7  A    between atoms: C_13  and  C_14
REMARK                            x       y       z     vdW  Elec       q    Type
REMARK                         _______ _______ _______ _____ _____    ______ ____
ROOT
ATOM      1  C   UNL     1       4.791   3.575  17.464  0.00  0.00    +0.000 C 
ENDROOT
BRANCH   1   2
ATOM      2  C   UNL     1       3.956   2.500  18.198  0.00  0.00    +0.000 C 
ATOM      3  C   UNL     1       2.495   2.592  17.757  0.00  0.00    +0.000 C 
ATOM      4  O   UNL     1       2.006   3.918  17.975  0.00  0.00    +0.000 OA
ATOM      5  C   UNL     1       2.125   4.345  19.344  0.00  0.00    +0.000 C 
ATOM      6  C   UNL     1       3.415   3.873  20.077  0.00  0.00    +0.000 C 
ATOM      7  O   UNL     1       3.979   2.635  19.629  0.00  0.00    +0.000 OA
BRANCH   5   8
ATOM      8  C   UNL     1       2.071   5.869  19.361  0.00  0.00    +0.000 A 
ATOM      9  C   UNL     1       2.368   6.602  18.203  0.00  0.00    +0.000 A 
ATOM     10  C   UNL     1       2.282   7.998  18.204  0.00  0.00    +0.000 A 
ATOM     11  C   UNL     1       1.881   8.679  19.352  0.00  0.00    +0.000 A 
ATOM     12  C   UNL     1       1.565   7.970  20.503  0.00  0.00    +0.000 A 
ATOM     13  C   UNL     1       1.664   6.578  20.508  0.00  0.00    +0.000 A 
ENDBRANCH   5   8
ENDBRANCH   1   2
BRANCH   1  14
ATOM     14  N   UNL     1       6.064   3.930  18.106  0.00  0.00    +0.000 NA
ATOM     15  H   UNL     1       5.973   3.771  19.113  0.00  0.00    +0.000 HD
BRANCH  14  16
ATOM     16  C   UNL     1       6.322   5.355  17.841  0.00  0.00    +0.000 C 
BRANCH  16  17
ATOM     17  C   UNL     1       6.028   5.764  16.401  0.00  0.00    +0.000 C 
BRANCH  17  18
ATOM     18  O   UNL     1       7.229   5.560  15.652  0.00  0.00    +0.000 OA
BRANCH  18  22
ATOM     19  C   UNL     1       6.524   3.743  11.982  0.00  0.00    +0.000 A 
ATOM     20  C   UNL     1       5.752   3.443  13.102  0.00  0.00    +0.000 A 
ATOM     21  C   UNL     1       6.016   4.076  14.317  0.00  0.00    +0.000 A 
ATOM     22  C   UNL     1       7.063   4.992  14.422  0.00  0.00    +0.000 A 
ATOM     23  C   UNL     1       7.819   5.303  13.291  0.00  0.00    +0.000 A 
ATOM     24  C   UNL     1       7.553   4.680  12.075  0.00  0.00    +0.000 A 
ENDBRANCH  18  22
ENDBRANCH  17  18
ENDBRANCH  16  17
ENDBRANCH  14  16
ENDBRANCH   1  14
TORSDOF 7
ENDMDL
MODEL 9
REMARK VINA RESULT:      -7.1      4.612      7.751
REMARK  Name = 
REMARK  7 active torsions:
REMARK  status: ('A' for Active; 'I' for Inactive)
REMARK    1  A    between atoms: C_4  and  O_5
REMARK    2  A    between atoms: O_5  and  C_6
REMARK    3  A    between atoms: C_6  and  C_7
REMARK    4  A    between atoms: C_7  and  N_8
REMARK    5  A    between atoms: N_8  and  C_9
REMARK    6  A    between atoms: C_9  and  C_10
REMARK    7  A    between atoms: C_13  and  C_14
REMARK                            x       y       z     vdW  Elec       q    Type
REMARK                         _______ _______ _______ _____ _____    ______ ____
ROOT
ATOM      1  C   UNL     1       6.595   6.348  16.675  0.00  0.00    +0.000 C 
ENDROOT
BRANCH   1   2
ATOM      2  C   UNL     1       6.997   4.856  16.713  0.00  0.00    +0.000 C 
ATOM      3  C   UNL     1       5.836   3.997  16.211  0.00  0.00    +0.000 C 
ATOM      4  O   UNL     1       4.661   4.274  16.976  0.00  0.00    +0.000 OA
ATOM      5  C   UNL     1       4.845   4.060  18.388  0.00  0.00    +0.000 C 
ATOM      6  C   UNL     1       6.239   4.471  18.946  0.00  0.00    +0.000 C 
ATOM      7  O   UNL     1       7.335   4.388  18.029  0.00  0.00    +0.000 OA
BRANCH   5   8
ATOM      8  C   UNL     1       3.762   4.847  19.121  0.00  0.00    +0.000 A 
ATOM      9  C   UNL     1       3.456   6.160  18.735  0.00  0.00    +0.000 A 
ATOM     10  C   UNL     1       2.438   6.870  19.378  0.00  0.00    +0.000 A 
ATOM     11  C   UNL     1       1.701   6.277  20.401  0.00  0.00    +0.000 A 
ATOM     12  C   UNL     1       1.978   4.971  20.786  0.00  0.00    +0.000 A 
ATOM     13  C   UNL     1       3.002   4.265  20.153  0.00  0.00    +0.000 A 
ENDBRANCH   5   8
ENDBRANCH   1   2
BRANCH   1  14
ATOM     14  N   UNL     1       7.710   7.302  16.742  0.00  0.00    +0.000 NA
ATOM     15  H   UNL     1       8.569   6.781  16.932  0.00  0.00    +0.000 HD
BRANCH  14  16
ATOM     16  C   UNL     1       7.435   8.242  17.842  0.00  0.00    +0.000 C 
BRANCH  16  17
ATOM     17  C   UNL     1       8.343   9.468  17.830  0.00  0.00    +0.000 C 
BRANCH  17  18
ATOM     18  O   UNL     1       9.113   9.434  19.036  0.00  0.00    +0.000 OA
BRANCH  18  22
ATOM     19  C   UNL     1      10.776  13.002  20.367  0.00  0.00    +0.000 A 
ATOM     20  C   UNL     1       9.944  12.239  21.183  0.00  0.00    +0.000 A 
ATOM     21  C   UNL     1       9.406  11.044  20.703  0.00  0.00    +0.000 A 
ATOM     22  C   UNL     1       9.680  10.620  19.402  0.00  0.00    +0.000 A 
ATOM     23  C   UNL     1      10.531  11.379  18.597  0.00  0.00    +0.000 A 
ATOM     24  C   UNL     1      11.076  12.567  19.076  0.00  0.00    +0.000 A 
ENDBRANCH  18  22
ENDBRANCH  17  18
ENDBRANCH  16  17
ENDBRANCH  14  16
ENDBRANCH   1  14
TORSDOF 7
ENDMDL
