MODEL 1
REMARK VINA RESULT:      -7.8      0.000      0.000
REMARK  Name = 
REMARK  5 active torsions:
REMARK  status: ('A' for Active; 'I' for Inactive)
REMARK    1  A    between atoms: C_1  and  C_2
REMARK    2  A    between atoms: C_7  and  C_9
REMARK    3  A    between atoms: C_12  and  C_13
REMARK    4  A    between atoms: C_13  and  O_14
REMARK    5  A    between atoms: O_14  and  C_15
REMARK                            x       y       z     vdW  Elec       q    Type
REMARK                         _______ _______ _______ _____ _____    ______ ____
ROOT
ATOM      1  C   UNL     1       2.557   7.450  18.721  0.00  0.00    +0.000 A 
ATOM      2  C   UNL     1       2.268   8.483  17.815  0.00  0.00    +0.000 A 
ATOM      3  C   UNL     1       1.477   9.566  18.200  0.00  0.00    +0.000 A 
ATOM      4  C   UNL     1       0.960   9.648  19.500  0.00  0.00    +0.000 A 
ATOM      5  C   UNL     1       1.218   8.602  20.395  0.00  0.00    +0.000 A 
ATOM      6  C   UNL     1       2.011   7.507  20.011  0.00  0.00    +0.000 A 
ENDROOT
BRANCH   1  13
ATOM      7  C   UNL     1       7.390   5.081  13.851  0.00  0.00    +0.000 C 
ATOM      8  C   UNL     1       6.376   4.900  14.920  0.00  0.00    +0.000 A 
ATOM      9  C   UNL     1       6.034   3.705  15.525  0.00  0.00    +0.000 A 
ATOM     10  S   UNL     1       4.870   3.985  16.742  0.00  0.00    +0.000 S 
ATOM     11  C   UNL     1       4.902   5.654  16.390  0.00  0.00    +0.000 A 
ATOM     12  N   UNL     1       4.122   6.574  17.057  0.00  0.00    +0.000 N 
ATOM     13  C   UNL     1       3.414   6.335  18.214  0.00  0.00    +0.000 C 
ATOM     14  O   UNL     1       3.415   5.293  18.862  0.00  0.00    +0.000 OA
ATOM     15  N   UNL     1       5.686   6.008  15.396  0.00  0.00    +0.000 NA
ATOM     16  H   UNL     1       4.136   7.482  16.625  0.00  0.00    +0.000 HD
ENDBRANCH   1  13
BRANCH   4  17
ATOM     17  C   UNL     1       0.137  10.859  19.887  0.00  0.00    +0.000 C 
BRANCH  17  18
ATOM     18  O   UNL     1      -0.429  11.424  18.708  0.00  0.00    +0.000 OA
BRANCH  18  19
ATOM     19  C   UNL     1      -1.771  11.258  18.485  0.00  0.00    +0.000 A 
ATOM     20  C   UNL     1      -2.046  10.363  17.438  0.00  0.00    +0.000 A 
ATOM     21  C   UNL     1      -3.354  10.138  16.992  0.00  0.00    +0.000 A 
ATOM     22  C   UNL     1      -4.411  10.814  17.587  0.00  0.00    +0.000 A 
ATOM     23  C   UNL     1      -4.157  11.708  18.624  0.00  0.00    +0.000 A 
ATOM     24  C   UNL     1      -2.847  11.943  19.072  0.00  0.00    +0.000 A 
ATOM     25 CL   UNL     1      -2.703  13.170  20.279  0.00  0.00    +0.000 Cl
ENDBRANCH  18  19
ENDBRANCH  17  18
ENDBRANCH   4  17
TORSDOF 4
ENDMDL
MODEL 2
REMARK VINA RESULT:      -7.7      0.226      1.008
REMARK  Name = 
REMARK  5 active torsions:
REMARK  status: ('A' for Active; 'I' for Inactive)
REMARK    1  A    between atoms: C_1  and  C_2
REMARK    2  A    between atoms: C_7  and  C_9
REMARK    3  A    between atoms: C_12  and  C_13
REMARK    4  A    between atoms: C_13  and  O_14
REMARK    5  A    between atoms: O_14  and  C_15
REMARK                            x       y       z     vdW  Elec       q    Type
REMARK                         _______ _______ _______ _____ _____    ______ ____
ROOT
ATOM      1  C   UNL     1       2.663   7.525  18.504  0.00  0.00    +0.000 A 
ATOM      2  C   UNL     1       2.167   7.432  19.815  0.00  0.00    +0.000 A 
ATOM      3  C   UNL     1       1.317   8.415  20.324  0.00  0.00    +0.000 A 
ATOM      4  C   UNL     1       0.938   9.510  19.536  0.00  0.00    +0.000 A 
ATOM      5  C   UNL     1       1.459   9.623  18.241  0.00  0.00    +0.000 A 
ATOM      6  C   UNL     1       2.318   8.638  17.725  0.00  0.00    +0.000 A 
ENDROOT
BRANCH   1  13
ATOM      7  C   UNL     1       7.470   5.059  13.655  0.00  0.00    +0.000 C 
ATOM      8  C   UNL     1       6.499   4.903  14.768  0.00  0.00    +0.000 A 
ATOM      9  C   UNL     1       6.241   3.741  15.469  0.00  0.00    +0.000 A 
ATOM     10  S   UNL     1       5.101   4.048  16.701  0.00  0.00    +0.000 S 
ATOM     11  C   UNL     1       5.031   5.686  16.229  0.00  0.00    +0.000 A 
ATOM     12  N   UNL     1       4.223   6.611  16.855  0.00  0.00    +0.000 N 
ATOM     13  C   UNL     1       3.564   6.422  18.050  0.00  0.00    +0.000 C 
ATOM     14  O   UNL     1       3.641   5.431  18.770  0.00  0.00    +0.000 OA
ATOM     15  N   UNL     1       5.765   6.007  15.186  0.00  0.00    +0.000 NA
ATOM     16  H   UNL     1       4.174   7.485  16.359  0.00  0.00    +0.000 HD
ENDBRANCH   1  13
BRANCH   4  17
ATOM     17  C   UNL     1      -0.016  10.534  20.116  0.00  0.00    +0.000 C 
BRANCH  17  18
ATOM     18  O   UNL     1      -0.518  11.344  19.057  0.00  0.00    +0.000 OA
BRANCH  18  19
ATOM     19  C   UNL     1      -1.840  11.223  18.715  0.00  0.00    +0.000 A 
ATOM     20  C   UNL     1      -2.053  10.313  17.665  0.00  0.00    +0.000 A 
ATOM     21  C   UNL     1      -3.322  10.127  17.105  0.00  0.00    +0.000 A 
ATOM     22  C   UNL     1      -4.402  10.856  17.586  0.00  0.00    +0.000 A 
ATOM     23  C   UNL     1      -4.209  11.764  18.625  0.00  0.00    +0.000 A 
ATOM     24  C   UNL     1      -2.937  11.961  19.186  0.00  0.00    +0.000 A 
ATOM     25 CL   UNL     1      -2.856  13.209  20.377  0.00  0.00    +0.000 Cl
ENDBRANCH  18  19
ENDBRANCH  17  18
ENDBRANCH   4  17
TORSDOF 4
ENDMDL
MODEL 3
REMARK VINA RESULT:      -7.6      5.153      9.364
REMARK  Name = 
REMARK  5 active torsions:
REMARK  status: ('A' for Active; 'I' for Inactive)
REMARK    1  A    between atoms: C_1  and  C_2
REMARK    2  A    between atoms: C_7  and  C_9
REMARK    3  A    between atoms: C_12  and  C_13
REMARK    4  A    between atoms: C_13  and  O_14
REMARK    5  A    between atoms: O_14  and  C_15
REMARK                            x       y       z     vdW  Elec       q    Type
REMARK                         _______ _______ _______ _____ _____    ______ ____
ROOT
ATOM      1  C   UNL     1       0.475   9.850  19.529  0.00  0.00    +0.000 A 
ATOM      2  C   UNL     1       0.934   8.913  20.469  0.00  0.00    +0.000 A 
ATOM      3  C   UNL     1       1.831   7.912  20.095  0.00  0.00    +0.000 A 
ATOM      4  C   UNL     1       2.296   7.825  18.776  0.00  0.00    +0.000 A 
ATOM      5  C   UNL     1       1.813   8.737  17.829  0.00  0.00    +0.000 A 
ATOM      6  C   UNL     1       0.907   9.745  18.200  0.00  0.00    +0.000 A 
ENDROOT
BRANCH   1  13
ATOM      7  C   UNL     1      -1.166  14.881  24.498  0.00  0.00    +0.000 C 
ATOM      8  C   UNL     1      -1.486  13.954  23.382  0.00  0.00    +0.000 A 
ATOM      9  C   UNL     1      -2.695  13.864  22.719  0.00  0.00    +0.000 A 
ATOM     10  S   UNL     1      -2.583  12.708  21.468  0.00  0.00    +0.000 S 
ATOM     11  C   UNL     1      -0.955  12.414  21.884  0.00  0.00    +0.000 A 
ATOM     12  N   UNL     1      -0.167  11.498  21.221  0.00  0.00    +0.000 N 
ATOM     13  C   UNL     1      -0.482  10.885  20.028  0.00  0.00    +0.000 C 
ATOM     14  O   UNL     1      -1.476  11.103  19.342  0.00  0.00    +0.000 OA
ATOM     15  N   UNL     1      -0.505  13.085  22.922  0.00  0.00    +0.000 NA
ATOM     16  H   UNL     1       0.707  11.326  21.687  0.00  0.00    +0.000 HD
ENDBRANCH   1  13
BRANCH   4  17
ATOM     17  C   UNL     1       3.298   6.746  18.422  0.00  0.00    +0.000 C 
BRANCH  17  18
ATOM     18  O   UNL     1       3.244   5.726  19.415  0.00  0.00    +0.000 OA
BRANCH  18  19
ATOM     19  C   UNL     1       2.596   4.556  19.115  0.00  0.00    +0.000 A 
ATOM     20  C   UNL     1       1.529   4.281  19.986  0.00  0.00    +0.000 A 
ATOM     21  C   UNL     1       0.809   3.084  19.904  0.00  0.00    +0.000 A 
ATOM     22  C   UNL     1       1.151   2.137  18.949  0.00  0.00    +0.000 A 
ATOM     23  C   UNL     1       2.209   2.391  18.078  0.00  0.00    +0.000 A 
ATOM     24  C   UNL     1       2.940   3.587  18.160  0.00  0.00    +0.000 A 
ATOM     25 CL   UNL     1       4.291   3.684  17.088  0.00  0.00    +0.000 Cl
ENDBRANCH  18  19
ENDBRANCH  17  18
ENDBRANCH   4  17
TORSDOF 4
ENDMDL
MODEL 4
REMARK VINA RESULT:      -7.6      5.088      9.375
REMARK  Name = 
REMARK  5 active torsions:
REMARK  status: ('A' for Active; 'I' for Inactive)
REMARK    1  A    between atoms: C_1  and  C_2
REMARK    2  A    between atoms: C_7  and  C_9
REMARK    3  A    between atoms: C_12  and  C_13
REMARK    4  A    between atoms: C_13  and  O_14
REMARK    5  A    between atoms: O_14  and  C_15
REMARK                            x       y       z     vdW  Elec       q    Type
REMARK                         _______ _______ _______ _____ _____    ______ ____
ROOT
ATOM      1  C   UNL     1       0.537   9.863  19.428  0.00  0.00    +0.000 A 
ATOM      2  C   UNL     1       1.019   9.762  18.113  0.00  0.00    +0.000 A 
ATOM      3  C   UNL     1       1.915   8.753  17.760  0.00  0.00    +0.000 A 
ATOM      4  C   UNL     1       2.348   7.816  18.708  0.00  0.00    +0.000 A 
ATOM      5  C   UNL     1       1.896   7.936  20.029  0.00  0.00    +0.000 A 
ATOM      6  C   UNL     1       0.995   8.952  20.390  0.00  0.00    +0.000 A 
ENDROOT
BRANCH   1  13
ATOM      7  C   UNL     1      -3.365  13.604  24.272  0.00  0.00    +0.000 C 
ATOM      8  C   UNL     1      -3.005  13.172  22.898  0.00  0.00    +0.000 A 
ATOM      9  C   UNL     1      -3.540  13.664  21.722  0.00  0.00    +0.000 A 
ATOM     10  S   UNL     1      -2.781  12.921  20.386  0.00  0.00    +0.000 S 
ATOM     11  C   UNL     1      -1.802  12.011  21.447  0.00  0.00    +0.000 A 
ATOM     12  N   UNL     1      -0.863  11.104  21.005  0.00  0.00    +0.000 N 
ATOM     13  C   UNL     1      -0.421  10.977  19.707  0.00  0.00    +0.000 C 
ATOM     14  O   UNL     1      -0.745  11.684  18.758  0.00  0.00    +0.000 OA
ATOM     15  N   UNL     1      -2.037  12.190  22.728  0.00  0.00    +0.000 NA
ATOM     16  H   UNL     1      -0.490  10.537  21.747  0.00  0.00    +0.000 HD
ENDBRANCH   1  13
BRANCH   4  17
ATOM     17  C   UNL     1       3.292   6.714  18.273  0.00  0.00    +0.000 C 
BRANCH  17  18
ATOM     18  O   UNL     1       3.287   5.690  19.263  0.00  0.00    +0.000 OA
BRANCH  18  19
ATOM     19  C   UNL     1       2.623   4.522  18.989  0.00  0.00    +0.000 A 
ATOM     20  C   UNL     1       1.561   4.274  19.875  0.00  0.00    +0.000 A 
ATOM     21  C   UNL     1       0.827   3.084  19.821  0.00  0.00    +0.000 A 
ATOM     22  C   UNL     1       1.148   2.117  18.879  0.00  0.00    +0.000 A 
ATOM     23  C   UNL     1       2.200   2.344  17.994  0.00  0.00    +0.000 A 
ATOM     24  C   UNL     1       2.946   3.533  18.047  0.00  0.00    +0.000 A 
ATOM     25 CL   UNL     1       4.287   3.596  16.960  0.00  0.00    +0.000 Cl
ENDBRANCH  18  19
ENDBRANCH  17  18
ENDBRANCH   4  17
TORSDOF 4
ENDMDL
MODEL 5
REMARK VINA RESULT:      -7.5      4.793      9.605
REMARK  Name = 
REMARK  5 active torsions:
REMARK  status: ('A' for Active; 'I' for Inactive)
REMARK    1  A    between atoms: C_1  and  C_2
REMARK    2  A    between atoms: C_7  and  C_9
REMARK    3  A    between atoms: C_12  and  C_13
REMARK    4  A    between atoms: C_13  and  O_14
REMARK    5  A    between atoms: O_14  and  C_15
REMARK                            x       y       z     vdW  Elec       q    Type
REMARK                         _______ _______ _______ _____ _____    ______ ____
ROOT
ATOM      1  C   UNL     1       1.271   9.345  19.397  0.00  0.00    +0.000 A 
ATOM      2  C   UNL     1       1.302   8.498  20.518  0.00  0.00    +0.000 A 
ATOM      3  C   UNL     1       1.890   7.236  20.438  0.00  0.00    +0.000 A 
ATOM      4  C   UNL     1       2.466   6.789  19.241  0.00  0.00    +0.000 A 
ATOM      5  C   UNL     1       2.405   7.617  18.113  0.00  0.00    +0.000 A 
ATOM      6  C   UNL     1       1.811   8.888  18.187  0.00  0.00    +0.000 A 
ENDROOT
BRANCH   1  13
ATOM      7  C   UNL     1      -1.280  14.407  23.931  0.00  0.00    +0.000 C 
ATOM      8  C   UNL     1      -1.135  13.757  22.604  0.00  0.00    +0.000 A 
ATOM      9  C   UNL     1      -1.629  14.233  21.405  0.00  0.00    +0.000 A 
ATOM     10  S   UNL     1      -1.166  13.191  20.134  0.00  0.00    +0.000 S 
ATOM     11  C   UNL     1      -0.347  12.193  21.249  0.00  0.00    +0.000 A 
ATOM     12  N   UNL     1       0.320  11.046  20.877  0.00  0.00    +0.000 N 
ATOM     13  C   UNL     1       0.621  10.678  19.584  0.00  0.00    +0.000 C 
ATOM     14  O   UNL     1       0.398  11.337  18.573  0.00  0.00    +0.000 OA
ATOM     15  N   UNL     1      -0.436  12.560  22.509  0.00  0.00    +0.000 NA
ATOM     16  H   UNL     1       0.607  10.490  21.664  0.00  0.00    +0.000 HD
ENDBRANCH   1  13
BRANCH   4  17
ATOM     17  C   UNL     1       3.127   5.426  19.209  0.00  0.00    +0.000 C 
BRANCH  17  18
ATOM     18  O   UNL     1       4.538   5.599  19.294  0.00  0.00    +0.000 OA
BRANCH  18  19
ATOM     19  C   UNL     1       5.306   5.234  18.219  0.00  0.00    +0.000 A 
ATOM     20  C   UNL     1       4.552   4.687  17.167  0.00  0.00    +0.000 A 
ATOM     21  C   UNL     1       5.165   4.163  16.024  0.00  0.00    +0.000 A 
ATOM     22  C   UNL     1       6.549   4.173  15.917  0.00  0.00    +0.000 A 
ATOM     23  C   UNL     1       7.314   4.708  16.951  0.00  0.00    +0.000 A 
ATOM     24  C   UNL     1       6.705   5.230  18.105  0.00  0.00    +0.000 A 
ATOM     25 CL   UNL     1       7.804   5.739  19.336  0.00  0.00    +0.000 Cl
ENDBRANCH  18  19
ENDBRANCH  17  18
ENDBRANCH   4  17
TORSDOF 4
ENDMDL
MODEL 6
REMARK VINA RESULT:      -7.5      4.848      9.620
REMARK  Name = 
REMARK  5 active torsions:
REMARK  status: ('A' for Active; 'I' for Inactive)
REMARK    1  A    between atoms: C_1  and  C_2
REMARK    2  A    between atoms: C_7  and  C_9
REMARK    3  A    between atoms: C_12  and  C_13
REMARK    4  A    between atoms: C_13  and  O_14
REMARK    5  A    between atoms: O_14  and  C_15
REMARK                            x       y       z     vdW  Elec       q    Type
REMARK                         _______ _______ _______ _____ _____    ______ ____
ROOT
ATOM      1  C   UNL     1       1.101   9.001  19.938  0.00  0.00    +0.000 A 
ATOM      2  C   UNL     1       1.805   8.754  18.748  0.00  0.00    +0.000 A 
ATOM      3  C   UNL     1       2.493   7.554  18.566  0.00  0.00    +0.000 A 
ATOM      4  C   UNL     1       2.491   6.569  19.563  0.00  0.00    +0.000 A 
ATOM      5  C   UNL     1       1.819   6.828  20.765  0.00  0.00    +0.000 A 
ATOM      6  C   UNL     1       1.127   8.036  20.955  0.00  0.00    +0.000 A 
ENDROOT
BRANCH   1  13
ATOM      7  C   UNL     1      -1.404  14.382  24.116  0.00  0.00    +0.000 C 
ATOM      8  C   UNL     1      -1.315  13.604  22.855  0.00  0.00    +0.000 A 
ATOM      9  C   UNL     1      -1.916  13.929  21.653  0.00  0.00    +0.000 A 
ATOM     10  S   UNL     1      -1.485  12.784  20.463  0.00  0.00    +0.000 S 
ATOM     11  C   UNL     1      -0.539  11.947  21.609  0.00  0.00    +0.000 A 
ATOM     12  N   UNL     1       0.163  10.801  21.306  0.00  0.00    +0.000 N 
ATOM     13  C   UNL     1       0.394  10.314  20.037  0.00  0.00    +0.000 C 
ATOM     14  O   UNL     1       0.066  10.853  18.985  0.00  0.00    +0.000 OA
ATOM     15  N   UNL     1      -0.561  12.438  22.829  0.00  0.00    +0.000 NA
ATOM     16  H   UNL     1       0.534  10.343  22.121  0.00  0.00    +0.000 HD
ENDBRANCH   1  13
BRANCH   4  17
ATOM     17  C   UNL     1       3.221   5.266  19.309  0.00  0.00    +0.000 C 
BRANCH  17  18
ATOM     18  O   UNL     1       4.623   5.517  19.317  0.00  0.00    +0.000 OA
BRANCH  18  19
ATOM     19  C   UNL     1       5.352   5.182  18.205  0.00  0.00    +0.000 A 
ATOM     20  C   UNL     1       4.560   4.668  17.164  0.00  0.00    +0.000 A 
ATOM     21  C   UNL     1       5.131   4.175  15.986  0.00  0.00    +0.000 A 
ATOM     22  C   UNL     1       6.510   4.184  15.831  0.00  0.00    +0.000 A 
ATOM     23  C   UNL     1       7.312   4.687  16.853  0.00  0.00    +0.000 A 
ATOM     24  C   UNL     1       6.746   5.176  18.042  0.00  0.00    +0.000 A 
ATOM     25 CL   UNL     1       7.888   5.647  19.249  0.00  0.00    +0.000 Cl
ENDBRANCH  18  19
ENDBRANCH  17  18
ENDBRANCH   4  17
TORSDOF 4
ENDMDL
MODEL 7
REMARK VINA RESULT:      -7.4      5.185      9.411
REMARK  Name = 
REMARK  5 active torsions:
REMARK  status: ('A' for Active; 'I' for Inactive)
REMARK    1  A    between atoms: C_1  and  C_2
REMARK    2  A    between atoms: C_7  and  C_9
REMARK    3  A    between atoms: C_12  and  C_13
REMARK    4  A    between atoms: C_13  and  O_14
REMARK    5  A    between atoms: O_14  and  C_15
REMARK                            x       y       z     vdW  Elec       q    Type
REMARK                         _______ _______ _______ _____ _____    ______ ____
ROOT
ATOM      1  C   UNL     1       0.789  10.121  19.523  0.00  0.00    +0.000 A 
ATOM      2  C   UNL     1       1.061   9.079  20.424  0.00  0.00    +0.000 A 
ATOM      3  C   UNL     1       1.834   7.985  20.033  0.00  0.00    +0.000 A 
ATOM      4  C   UNL     1       2.359   7.907  18.736  0.00  0.00    +0.000 A 
ATOM      5  C   UNL     1       2.060   8.928  17.825  0.00  0.00    +0.000 A 
ATOM      6  C   UNL     1       1.279  10.030  18.212  0.00  0.00    +0.000 A 
ENDROOT
BRANCH   1  13
ATOM      7  C   UNL     1      -3.791  12.637  24.561  0.00  0.00    +0.000 C 
ATOM      8  C   UNL     1      -3.113  12.669  23.240  0.00  0.00    +0.000 A 
ATOM      9  C   UNL     1      -3.213  13.673  22.296  0.00  0.00    +0.000 A 
ATOM     10  S   UNL     1      -2.211  13.316  20.962  0.00  0.00    +0.000 S 
ATOM     11  C   UNL     1      -1.715  11.871  21.721  0.00  0.00    +0.000 A 
ATOM     12  N   UNL     1      -0.822  10.992  21.146  0.00  0.00    +0.000 N 
ATOM     13  C   UNL     1      -0.046  11.249  20.037  0.00  0.00    +0.000 C 
ATOM     14  O   UNL     1       0.017  12.313  19.428  0.00  0.00    +0.000 OA
ATOM     15  N   UNL     1      -2.282  11.616  22.880  0.00  0.00    +0.000 NA
ATOM     16  H   UNL     1      -0.760  10.119  21.641  0.00  0.00    +0.000 HD
ENDBRANCH   1  13
BRANCH   4  17
ATOM     17  C   UNL     1       3.224   6.719  18.365  0.00  0.00    +0.000 C 
BRANCH  17  18
ATOM     18  O   UNL     1       3.124   5.740  19.395  0.00  0.00    +0.000 OA
BRANCH  18  19
ATOM     19  C   UNL     1       2.481   4.562  19.115  0.00  0.00    +0.000 A 
ATOM     20  C   UNL     1       1.426   4.289  20.001  0.00  0.00    +0.000 A 
ATOM     21  C   UNL     1       0.714   3.086  19.941  0.00  0.00    +0.000 A 
ATOM     22  C   UNL     1       1.052   2.131  18.992  0.00  0.00    +0.000 A 
ATOM     23  C   UNL     1       2.097   2.383  18.107  0.00  0.00    +0.000 A 
ATOM     24  C   UNL     1       2.821   3.585  18.166  0.00  0.00    +0.000 A 
ATOM     25 CL   UNL     1       4.159   3.680  17.078  0.00  0.00    +0.000 Cl
ENDBRANCH  18  19
ENDBRANCH  17  18
ENDBRANCH   4  17
TORSDOF 4
ENDMDL
MODEL 8
REMARK VINA RESULT:      -7.4      4.311      9.388
REMARK  Name = 
REMARK  5 active torsions:
REMARK  status: ('A' for Active; 'I' for Inactive)
REMARK    1  A    between atoms: C_1  and  C_2
REMARK    2  A    between atoms: C_7  and  C_9
REMARK    3  A    between atoms: C_12  and  C_13
REMARK    4  A    between atoms: C_13  and  O_14
REMARK    5  A    between atoms: O_14  and  C_15
REMARK                            x       y       z     vdW  Elec       q    Type
REMARK                         _______ _______ _______ _____ _____    ______ ____
ROOT
ATOM      1  C   UNL     1       3.425   6.686  18.638  0.00  0.00    +0.000 A 
ATOM      2  C   UNL     1       4.005   7.255  17.492  0.00  0.00    +0.000 A 
ATOM      3  C   UNL     1       5.051   6.610  16.831  0.00  0.00    +0.000 A 
ATOM      4  C   UNL     1       5.538   5.379  17.291  0.00  0.00    +0.000 A 
ATOM      5  C   UNL     1       4.984   4.827  18.453  0.00  0.00    +0.000 A 
ATOM      6  C   UNL     1       3.933   5.474  19.126  0.00  0.00    +0.000 A 
ENDROOT
BRANCH   1  13
ATOM      7  C   UNL     1      -1.169  12.300  18.371  0.00  0.00    +0.000 C 
ATOM      8  C   UNL     1      -0.454  11.194  19.056  0.00  0.00    +0.000 A 
ATOM      9  C   UNL     1      -0.653  10.778  20.359  0.00  0.00    +0.000 A 
ATOM     10  S   UNL     1       0.343   9.433  20.696  0.00  0.00    +0.000 S 
ATOM     11  C   UNL     1       0.961   9.491  19.106  0.00  0.00    +0.000 A 
ATOM     12  N   UNL     1       1.911   8.609  18.640  0.00  0.00    +0.000 N 
ATOM     13  C   UNL     1       2.310   7.453  19.275  0.00  0.00    +0.000 C 
ATOM     14  O   UNL     1       1.843   6.999  20.314  0.00  0.00    +0.000 OA
ATOM     15  N   UNL     1       0.508  10.474  18.359  0.00  0.00    +0.000 NA
ATOM     16  H   UNL     1       2.285   8.875  17.746  0.00  0.00    +0.000 HD
ENDBRANCH   1  13
BRANCH   4  17
ATOM     17  C   UNL     1       6.649   4.696  16.521  0.00  0.00    +0.000 C 
BRANCH  17  18
ATOM     18  O   UNL     1       6.953   5.475  15.368  0.00  0.00    +0.000 OA
BRANCH  18  19
ATOM     19  C   UNL     1       6.786   4.904  14.132  0.00  0.00    +0.000 A 
ATOM     20  C   UNL     1       5.709   4.002  14.086  0.00  0.00    +0.000 A 
ATOM     21  C   UNL     1       5.440   3.244  12.942  0.00  0.00    +0.000 A 
ATOM     22  C   UNL     1       6.250   3.372  11.822  0.00  0.00    +0.000 A 
ATOM     23  C   UNL     1       7.324   4.259  11.850  0.00  0.00    +0.000 A 
ATOM     24  C   UNL     1       7.604   5.018  12.998  0.00  0.00    +0.000 A 
ATOM     25 CL   UNL     1       9.041   5.973  12.902  0.00  0.00    +0.000 Cl
ENDBRANCH  18  19
ENDBRANCH  17  18
ENDBRANCH   4  17
TORSDOF 4
ENDMDL
MODEL 9
REMARK VINA RESULT:      -7.4      5.398      9.883
REMARK  Name = 
REMARK  5 active torsions:
REMARK  status: ('A' for Active; 'I' for Inactive)
REMARK    1  A    between atoms: C_1  and  C_2
REMARK    2  A    between atoms: C_7  and  C_9
REMARK    3  A    between atoms: C_12  and  C_13
REMARK    4  A    between atoms: C_13  and  O_14
REMARK    5  A    between atoms: O_14  and  C_15
REMARK                            x       y       z     vdW  Elec       q    Type
REMARK                         _______ _______ _______ _____ _____    ______ ____
ROOT
ATOM      1  C   UNL     1       0.635  10.175  20.869  0.00  0.00    +0.000 A 
ATOM      2  C   UNL     1       0.922   9.024  21.621  0.00  0.00    +0.000 A 
ATOM      3  C   UNL     1       1.513   7.913  21.021  0.00  0.00    +0.000 A 
ATOM      4  C   UNL     1       1.839   7.924  19.658  0.00  0.00    +0.000 A 
ATOM      5  C   UNL     1       1.523   9.057  18.898  0.00  0.00    +0.000 A 
ATOM      6  C   UNL     1       0.924  10.178  19.497  0.00  0.00    +0.000 A 
ENDROOT
BRANCH   1  13
ATOM      7  C   UNL     1      -4.827  12.623  24.975  0.00  0.00    +0.000 C 
ATOM      8  C   UNL     1      -3.651  12.789  24.083  0.00  0.00    +0.000 A 
ATOM      9  C   UNL     1      -3.041  13.983  23.753  0.00  0.00    +0.000 A 
ATOM     10  S   UNL     1      -1.689  13.686  22.754  0.00  0.00    +0.000 S 
ATOM     11  C   UNL     1      -2.000  12.010  22.831  0.00  0.00    +0.000 A 
ATOM     12  N   UNL     1      -1.223  11.074  22.183  0.00  0.00    +0.000 N 
ATOM     13  C   UNL     1       0.003  11.314  21.603  0.00  0.00    +0.000 C 
ATOM     14  O   UNL     1       0.619  12.375  21.624  0.00  0.00    +0.000 OA
ATOM     15  N   UNL     1      -3.070  11.663  23.513  0.00  0.00    +0.000 NA
ATOM     16  H   UNL     1      -1.630  10.155  22.194  0.00  0.00    +0.000 HD
ENDBRANCH   1  13
BRANCH   4  17
ATOM     17  C   UNL     1       2.515   6.709  19.055  0.00  0.00    +0.000 C 
BRANCH  17  18
ATOM     18  O   UNL     1       2.078   5.548  19.755  0.00  0.00    +0.000 OA
BRANCH  18  19
ATOM     19  C   UNL     1       2.406   4.318  19.246  0.00  0.00    +0.000 A 
ATOM     20  C   UNL     1       2.982   4.390  17.967  0.00  0.00    +0.000 A 
ATOM     21  C   UNL     1       3.292   3.236  17.239  0.00  0.00    +0.000 A 
ATOM     22  C   UNL     1       3.024   1.986  17.780  0.00  0.00    +0.000 A 
ATOM     23  C   UNL     1       2.451   1.895  19.046  0.00  0.00    +0.000 A 
ATOM     24  C   UNL     1       2.130   3.049  19.779  0.00  0.00    +0.000 A 
ATOM     25 CL   UNL     1       1.315   2.756  21.273  0.00  0.00    +0.000 Cl
ENDBRANCH  18  19
ENDBRANCH  17  18
ENDBRANCH   4  17
TORSDOF 4
ENDMDL
