MODEL 1
REMARK VINA RESULT:      -7.5      0.000      0.000
REMARK  Name = 
REMARK  2 active torsions:
REMARK  status: ('A' for Active; 'I' for Inactive)
REMARK    1  A    between atoms: C_2  and  C_3
REMARK    2  A    between atoms: C_11  and  N_12
REMARK                            x       y       z     vdW  Elec       q    Type
REMARK                         _______ _______ _______ _____ _____    ______ ____
ROOT
ATOM      1  O   UNL     1       2.364   7.145  18.968  0.00  0.00    +0.000 OA
ATOM      2  C   UNL     1       2.796   5.998  18.860  0.00  0.00    +0.000 C 
ATOM      3  N   UNL     1       3.997   5.721  18.182  0.00  0.00    +0.000 N 
ATOM      4  C   UNL     1       4.580   4.390  18.032  0.00  0.00    +0.000 C 
ATOM      5  C   UNL     1       6.098   4.402  18.087  0.00  0.00    +0.000 C 
ATOM      6  C   UNL     1       6.723   5.445  17.164  0.00  0.00    +0.000 C 
ATOM      7  C   UNL     1       6.067   6.817  17.359  0.00  0.00    +0.000 C 
ATOM      8  C   UNL     1       4.540   6.763  17.312  0.00  0.00    +0.000 C 
ENDROOT
BRANCH   2   9
ATOM      9  C   UNL     1       2.087   4.891  19.494  0.00  0.00    +0.000 A 
ATOM     10  C   UNL     1       1.296   3.833  18.954  0.00  0.00    +0.000 A 
ATOM     11  C   UNL     1       0.955   3.016  20.004  0.00  0.00    +0.000 A 
ATOM     12  O   UNL     1       1.383   3.552  21.173  0.00  0.00    +0.000 OA
ATOM     13  C   UNL     1       2.031   4.704  20.863  0.00  0.00    +0.000 A 
ENDBRANCH   2   9
BRANCH   6  14
ATOM     14  N   UNL     1       6.762   5.012  15.777  0.00  0.00    +0.000 N 
ATOM     15  C   UNL     1       5.997   4.047  15.188  0.00  0.00    +0.000 A 
ATOM     16  C   UNL     1       6.408   4.058  13.877  0.00  0.00    +0.000 A 
ATOM     17  N   UNL     1       7.372   5.006  13.709  0.00  0.00    +0.000 NA
ATOM     18  N   UNL     1       7.580   5.589  14.882  0.00  0.00    +0.000 NA
ENDBRANCH   6  14
TORSDOF 2
ENDMDL
MODEL 2
REMARK VINA RESULT:      -7.2      2.865      6.242
REMARK  Name = 
REMARK  2 active torsions:
REMARK  status: ('A' for Active; 'I' for Inactive)
REMARK    1  A    between atoms: C_2  and  C_3
REMARK    2  A    between atoms: C_11  and  N_12
REMARK                            x       y       z     vdW  Elec       q    Type
REMARK                         _______ _______ _______ _____ _____    ______ ____
ROOT
ATOM      1  O   UNL     1       4.462   7.313  16.590  0.00  0.00    +0.000 OA
ATOM      2  C   UNL     1       4.622   6.092  16.605  0.00  0.00    +0.000 C 
ATOM      3  N   UNL     1       3.766   5.243  17.331  0.00  0.00    +0.000 N 
ATOM      4  C   UNL     1       3.882   3.788  17.379  0.00  0.00    +0.000 C 
ATOM      5  C   UNL     1       2.534   3.091  17.431  0.00  0.00    +0.000 C 
ATOM      6  C   UNL     1       1.606   3.661  18.501  0.00  0.00    +0.000 C 
ATOM      7  C   UNL     1       1.531   5.189  18.408  0.00  0.00    +0.000 C 
ATOM      8  C   UNL     1       2.906   5.854  18.342  0.00  0.00    +0.000 C 
ENDROOT
BRANCH   2   9
ATOM      9  C   UNL     1       5.685   5.489  15.808  0.00  0.00    +0.000 A 
ATOM     10  C   UNL     1       5.675   4.868  14.523  0.00  0.00    +0.000 A 
ATOM     11  C   UNL     1       6.980   4.569  14.217  0.00  0.00    +0.000 A 
ATOM     12  O   UNL     1       7.787   4.857  15.267  0.00  0.00    +0.000 OA
ATOM     13  C   UNL     1       6.994   5.376  16.240  0.00  0.00    +0.000 A 
ENDBRANCH   2   9
BRANCH   6  14
ATOM     14  N   UNL     1       1.925   3.175  19.833  0.00  0.00    +0.000 N 
ATOM     15  C   UNL     1       3.065   2.541  20.233  0.00  0.00    +0.000 A 
ATOM     16  C   UNL     1       2.870   2.329  21.576  0.00  0.00    +0.000 A 
ATOM     17  N   UNL     1       1.659   2.835  21.945  0.00  0.00    +0.000 NA
ATOM     18  N   UNL     1       1.088   3.355  20.868  0.00  0.00    +0.000 NA
ENDBRANCH   6  14
TORSDOF 2
ENDMDL
MODEL 3
REMARK VINA RESULT:      -7.0      2.383      3.201
REMARK  Name = 
REMARK  2 active torsions:
REMARK  status: ('A' for Active; 'I' for Inactive)
REMARK    1  A    between atoms: C_2  and  C_3
REMARK    2  A    between atoms: C_11  and  N_12
REMARK                            x       y       z     vdW  Elec       q    Type
REMARK                         _______ _______ _______ _____ _____    ______ ____
ROOT
ATOM      1  O   UNL     1       3.602   1.736  17.934  0.00  0.00    +0.000 OA
ATOM      2  C   UNL     1       3.488   2.768  18.595  0.00  0.00    +0.000 C 
ATOM      3  N   UNL     1       4.060   3.983  18.174  0.00  0.00    +0.000 N 
ATOM      4  C   UNL     1       3.949   5.249  18.894  0.00  0.00    +0.000 C 
ATOM      5  C   UNL     1       3.840   6.446  17.967  0.00  0.00    +0.000 C 
ATOM      6  C   UNL     1       4.909   6.460  16.877  0.00  0.00    +0.000 C 
ATOM      7  C   UNL     1       4.985   5.107  16.163  0.00  0.00    +0.000 C 
ATOM      8  C   UNL     1       5.080   3.924  17.128  0.00  0.00    +0.000 C 
ENDROOT
BRANCH   2   9
ATOM      9  C   UNL     1       2.695   2.763  19.820  0.00  0.00    +0.000 A 
ATOM     10  C   UNL     1       1.316   3.043  20.062  0.00  0.00    +0.000 A 
ATOM     11  C   UNL     1       1.086   2.786  21.391  0.00  0.00    +0.000 A 
ATOM     12  O   UNL     1       2.247   2.473  22.016  0.00  0.00    +0.000 OA
ATOM     13  C   UNL     1       3.221   2.500  21.071  0.00  0.00    +0.000 A 
ENDBRANCH   2   9
BRANCH   6  14
ATOM     14  N   UNL     1       6.194   6.935  17.363  0.00  0.00    +0.000 N 
ATOM     15  C   UNL     1       7.082   6.263  18.152  0.00  0.00    +0.000 A 
ATOM     16  C   UNL     1       8.131   7.140  18.286  0.00  0.00    +0.000 A 
ATOM     17  N   UNL     1       7.864   8.280  17.588  0.00  0.00    +0.000 NA
ATOM     18  N   UNL     1       6.673   8.143  17.022  0.00  0.00    +0.000 NA
ENDBRANCH   6  14
TORSDOF 2
ENDMDL
MODEL 4
REMARK VINA RESULT:      -6.9      1.051      1.304
REMARK  Name = 
REMARK  2 active torsions:
REMARK  status: ('A' for Active; 'I' for Inactive)
REMARK    1  A    between atoms: C_2  and  C_3
REMARK    2  A    between atoms: C_11  and  N_12
REMARK                            x       y       z     vdW  Elec       q    Type
REMARK                         _______ _______ _______ _____ _____    ______ ____
ROOT
ATOM      1  O   UNL     1       2.883   7.228  18.366  0.00  0.00    +0.000 OA
ATOM      2  C   UNL     1       3.158   6.054  18.115  0.00  0.00    +0.000 C 
ATOM      3  N   UNL     1       4.339   5.700  17.438  0.00  0.00    +0.000 N 
ATOM      4  C   UNL     1       4.741   4.331  17.124  0.00  0.00    +0.000 C 
ATOM      5  C   UNL     1       6.241   4.121  17.221  0.00  0.00    +0.000 C 
ATOM      6  C   UNL     1       7.045   5.176  16.465  0.00  0.00    +0.000 C 
ATOM      7  C   UNL     1       6.575   6.589  16.826  0.00  0.00    +0.000 C 
ATOM      8  C   UNL     1       5.059   6.760  16.732  0.00  0.00    +0.000 C 
ENDROOT
BRANCH   2   9
ATOM      9  C   UNL     1       2.276   4.987  18.574  0.00  0.00    +0.000 A 
ATOM     10  C   UNL     1       1.994   4.481  19.879  0.00  0.00    +0.000 A 
ATOM     11  C   UNL     1       1.007   3.537  19.734  0.00  0.00    +0.000 A 
ATOM     12  O   UNL     1       0.736   3.340  18.421  0.00  0.00    +0.000 OA
ATOM     13  C   UNL     1       1.532   4.189  17.724  0.00  0.00    +0.000 A 
ENDBRANCH   2   9
BRANCH   6  14
ATOM     14  N   UNL     1       7.087   4.926  15.033  0.00  0.00    +0.000 N 
ATOM     15  C   UNL     1       6.255   4.125  14.307  0.00  0.00    +0.000 A 
ATOM     16  C   UNL     1       6.706   4.267  13.017  0.00  0.00    +0.000 A 
ATOM     17  N   UNL     1       7.759   5.133  12.995  0.00  0.00    +0.000 NA
ATOM     18  N   UNL     1       7.983   5.534  14.239  0.00  0.00    +0.000 NA
ENDBRANCH   6  14
TORSDOF 2
ENDMDL
MODEL 5
REMARK VINA RESULT:      -6.7      2.968      6.321
REMARK  Name = 
REMARK  2 active torsions:
REMARK  status: ('A' for Active; 'I' for Inactive)
REMARK    1  A    between atoms: C_2  and  C_3
REMARK    2  A    between atoms: C_11  and  N_12
REMARK                            x       y       z     vdW  Elec       q    Type
REMARK                         _______ _______ _______ _____ _____    ______ ____
ROOT
ATOM      1  O   UNL     1       7.821   4.458  17.323  0.00  0.00    +0.000 OA
ATOM      2  C   UNL     1       6.733   4.450  16.746  0.00  0.00    +0.000 C 
ATOM      3  N   UNL     1       5.522   4.592  17.449  0.00  0.00    +0.000 N 
ATOM      4  C   UNL     1       4.199   4.612  16.831  0.00  0.00    +0.000 C 
ATOM      5  C   UNL     1       3.240   5.565  17.523  0.00  0.00    +0.000 C 
ATOM      6  C   UNL     1       3.199   5.379  19.038  0.00  0.00    +0.000 C 
ATOM      7  C   UNL     1       4.613   5.357  19.628  0.00  0.00    +0.000 C 
ATOM      8  C   UNL     1       5.554   4.399  18.898  0.00  0.00    +0.000 C 
ENDROOT
BRANCH   2   9
ATOM      9  C   UNL     1       6.683   4.349  15.292  0.00  0.00    +0.000 A 
ATOM     10  C   UNL     1       5.995   3.449  14.423  0.00  0.00    +0.000 A 
ATOM     11  C   UNL     1       6.227   3.880  13.140  0.00  0.00    +0.000 A 
ATOM     12  O   UNL     1       7.101   4.916  13.144  0.00  0.00    +0.000 OA
ATOM     13  C   UNL     1       7.403   5.169  14.443  0.00  0.00    +0.000 A 
ENDBRANCH   2   9
BRANCH   6  14
ATOM     14  N   UNL     1       2.384   4.244  19.439  0.00  0.00    +0.000 N 
ATOM     15  C   UNL     1       2.378   3.614  20.650  0.00  0.00    +0.000 A 
ATOM     16  C   UNL     1       1.418   2.643  20.510  0.00  0.00    +0.000 A 
ATOM     17  N   UNL     1       0.877   2.714  19.261  0.00  0.00    +0.000 NA
ATOM     18  N   UNL     1       1.476   3.703  18.612  0.00  0.00    +0.000 NA
ENDBRANCH   6  14
TORSDOF 2
ENDMDL
MODEL 6
REMARK VINA RESULT:      -6.6      2.248      3.333
REMARK  Name = 
REMARK  2 active torsions:
REMARK  status: ('A' for Active; 'I' for Inactive)
REMARK    1  A    between atoms: C_2  and  C_3
REMARK    2  A    between atoms: C_11  and  N_12
REMARK                            x       y       z     vdW  Elec       q    Type
REMARK                         _______ _______ _______ _____ _____    ______ ____
ROOT
ATOM      1  O   UNL     1       3.604   1.817  17.757  0.00  0.00    +0.000 OA
ATOM      2  C   UNL     1       3.474   2.848  18.417  0.00  0.00    +0.000 C 
ATOM      3  N   UNL     1       4.127   4.042  18.059  0.00  0.00    +0.000 N 
ATOM      4  C   UNL     1       4.005   5.306  18.781  0.00  0.00    +0.000 C 
ATOM      5  C   UNL     1       4.023   6.514  17.860  0.00  0.00    +0.000 C 
ATOM      6  C   UNL     1       5.181   6.493  16.866  0.00  0.00    +0.000 C 
ATOM      7  C   UNL     1       5.265   5.142  16.147  0.00  0.00    +0.000 C 
ATOM      8  C   UNL     1       5.230   3.950  17.104  0.00  0.00    +0.000 C 
ENDROOT
BRANCH   2   9
ATOM      9  C   UNL     1       2.579   2.866  19.569  0.00  0.00    +0.000 A 
ATOM     10  C   UNL     1       2.817   2.669  20.963  0.00  0.00    +0.000 A 
ATOM     11  C   UNL     1       1.626   2.899  21.605  0.00  0.00    +0.000 A 
ATOM     12  O   UNL     1       0.639   3.114  20.702  0.00  0.00    +0.000 OA
ATOM     13  C   UNL     1       1.213   3.055  19.473  0.00  0.00    +0.000 A 
ENDBRANCH   2   9
BRANCH   6  14
ATOM     14  N   UNL     1       6.438   6.912  17.464  0.00  0.00    +0.000 N 
ATOM     15  C   UNL     1       7.070   8.111  17.311  0.00  0.00    +0.000 A 
ATOM     16  C   UNL     1       8.186   7.999  18.104  0.00  0.00    +0.000 A 
ATOM     17  N   UNL     1       8.194   6.776  18.708  0.00  0.00    +0.000 NA
ATOM     18  N   UNL     1       7.114   6.117  18.310  0.00  0.00    +0.000 NA
ENDBRANCH   6  14
TORSDOF 2
ENDMDL
MODEL 7
REMARK VINA RESULT:      -6.6      2.830      6.146
REMARK  Name = 
REMARK  2 active torsions:
REMARK  status: ('A' for Active; 'I' for Inactive)
REMARK    1  A    between atoms: C_2  and  C_3
REMARK    2  A    between atoms: C_11  and  N_12
REMARK                            x       y       z     vdW  Elec       q    Type
REMARK                         _______ _______ _______ _____ _____    ______ ____
ROOT
ATOM      1  O   UNL     1       3.458   7.614  16.707  0.00  0.00    +0.000 OA
ATOM      2  C   UNL     1       4.183   6.722  17.148  0.00  0.00    +0.000 C 
ATOM      3  N   UNL     1       3.650   5.553  17.723  0.00  0.00    +0.000 N 
ATOM      4  C   UNL     1       4.446   4.446  18.247  0.00  0.00    +0.000 C 
ATOM      5  C   UNL     1       3.806   3.092  18.001  0.00  0.00    +0.000 C 
ATOM      6  C   UNL     1       2.339   3.037  18.423  0.00  0.00    +0.000 C 
ATOM      7  C   UNL     1       1.557   4.225  17.852  0.00  0.00    +0.000 C 
ATOM      8  C   UNL     1       2.239   5.569  18.105  0.00  0.00    +0.000 C 
ENDROOT
BRANCH   2   9
ATOM      9  C   UNL     1       5.632   6.836  17.027  0.00  0.00    +0.000 A 
ATOM     10  C   UNL     1       6.584   7.643  17.720  0.00  0.00    +0.000 A 
ATOM     11  C   UNL     1       7.826   7.269  17.267  0.00  0.00    +0.000 A 
ATOM     12  O   UNL     1       7.707   6.368  16.262  0.00  0.00    +0.000 OA
ATOM     13  C   UNL     1       6.379   6.140  16.094  0.00  0.00    +0.000 A 
ENDBRANCH   2   9
BRANCH   6  14
ATOM     14  N   UNL     1       2.177   2.870  19.858  0.00  0.00    +0.000 N 
ATOM     15  C   UNL     1       1.021   2.963  20.578  0.00  0.00    +0.000 A 
ATOM     16  C   UNL     1       1.414   2.692  21.866  0.00  0.00    +0.000 A 
ATOM     17  N   UNL     1       2.754   2.439  21.889  0.00  0.00    +0.000 NA
ATOM     18  N   UNL     1       3.212   2.548  20.650  0.00  0.00    +0.000 NA
ENDBRANCH   6  14
TORSDOF 2
ENDMDL
MODEL 8
REMARK VINA RESULT:      -6.6      0.971      1.106
REMARK  Name = 
REMARK  2 active torsions:
REMARK  status: ('A' for Active; 'I' for Inactive)
REMARK    1  A    between atoms: C_2  and  C_3
REMARK    2  A    between atoms: C_11  and  N_12
REMARK                            x       y       z     vdW  Elec       q    Type
REMARK                         _______ _______ _______ _____ _____    ______ ____
ROOT
ATOM      1  O   UNL     1       2.161   6.945  19.532  0.00  0.00    +0.000 OA
ATOM      2  C   UNL     1       2.663   5.827  19.415  0.00  0.00    +0.000 C 
ATOM      3  N   UNL     1       3.778   5.600  18.589  0.00  0.00    +0.000 N 
ATOM      4  C   UNL     1       4.438   4.308  18.417  0.00  0.00    +0.000 C 
ATOM      5  C   UNL     1       5.943   4.431  18.258  0.00  0.00    +0.000 C 
ATOM      6  C   UNL     1       6.352   5.464  17.212  0.00  0.00    +0.000 C 
ATOM      7  C   UNL     1       5.624   6.794  17.436  0.00  0.00    +0.000 C 
ATOM      8  C   UNL     1       4.114   6.629  17.607  0.00  0.00    +0.000 C 
ENDROOT
BRANCH   2   9
ATOM      9  C   UNL     1       2.136   4.709  20.191  0.00  0.00    +0.000 A 
ATOM     10  C   UNL     1       1.152   3.721  19.888  0.00  0.00    +0.000 A 
ATOM     11  C   UNL     1       1.124   2.850  20.950  0.00  0.00    +0.000 A 
ATOM     12  O   UNL     1       1.939   3.289  21.939  0.00  0.00    +0.000 OA
ATOM     13  C   UNL     1       2.518   4.433  21.491  0.00  0.00    +0.000 A 
ENDBRANCH   2   9
BRANCH   6  14
ATOM     14  N   UNL     1       6.235   4.960  15.853  0.00  0.00    +0.000 N 
ATOM     15  C   UNL     1       7.192   4.968  14.880  0.00  0.00    +0.000 A 
ATOM     16  C   UNL     1       6.582   4.353  13.814  0.00  0.00    +0.000 A 
ATOM     17  N   UNL     1       5.315   3.990  14.162  0.00  0.00    +0.000 NA
ATOM     18  N   UNL     1       5.113   4.365  15.418  0.00  0.00    +0.000 NA
ENDBRANCH   6  14
TORSDOF 2
ENDMDL
MODEL 9
REMARK VINA RESULT:      -6.5      2.995      6.330
REMARK  Name = 
REMARK  2 active torsions:
REMARK  status: ('A' for Active; 'I' for Inactive)
REMARK    1  A    between atoms: C_2  and  C_3
REMARK    2  A    between atoms: C_11  and  N_12
REMARK                            x       y       z     vdW  Elec       q    Type
REMARK                         _______ _______ _______ _____ _____    ______ ____
ROOT
ATOM      1  O   UNL     1       7.986   4.359  17.156  0.00  0.00    +0.000 OA
ATOM      2  C   UNL     1       6.899   4.469  16.588  0.00  0.00    +0.000 C 
ATOM      3  N   UNL     1       5.704   4.650  17.307  0.00  0.00    +0.000 N 
ATOM      4  C   UNL     1       4.384   4.808  16.702  0.00  0.00    +0.000 C 
ATOM      5  C   UNL     1       3.499   5.779  17.464  0.00  0.00    +0.000 C 
ATOM      6  C   UNL     1       3.449   5.493  18.963  0.00  0.00    +0.000 C 
ATOM      7  C   UNL     1       4.858   5.328  19.540  0.00  0.00    +0.000 C 
ATOM      8  C   UNL     1       5.725   4.356  18.739  0.00  0.00    +0.000 C 
ENDROOT
BRANCH   2   9
ATOM      9  C   UNL     1       6.839   4.472  15.130  0.00  0.00    +0.000 A 
ATOM     10  C   UNL     1       7.387   5.360  14.156  0.00  0.00    +0.000 A 
ATOM     11  C   UNL     1       7.101   4.824  12.925  0.00  0.00    +0.000 A 
ATOM     12  O   UNL     1       6.318   3.727  13.061  0.00  0.00    +0.000 OA
ATOM     13  C   UNL     1       6.130   3.541  14.392  0.00  0.00    +0.000 A 
ENDBRANCH   2   9
BRANCH   6  14
ATOM     14  N   UNL     1       2.554   4.395  19.292  0.00  0.00    +0.000 N 
ATOM     15  C   UNL     1       1.506   3.929  18.553  0.00  0.00    +0.000 A 
ATOM     16  C   UNL     1       1.024   2.877  19.293  0.00  0.00    +0.000 A 
ATOM     17  N   UNL     1       1.775   2.732  20.421  0.00  0.00    +0.000 NA
ATOM     18  N   UNL     1       2.715   3.667  20.410  0.00  0.00    +0.000 NA
ENDBRANCH   6  14
TORSDOF 2
ENDMDL
