MODEL 1
REMARK VINA RESULT:      -8.0      0.000      0.000
REMARK  Name = 
REMARK  10 active torsions:
REMARK  status: ('A' for Active; 'I' for Inactive)
REMARK    1  A    between atoms: C_1  and  C_2
REMARK    2  A    between atoms: C_2  and  O_3
REMARK    3  A    between atoms: O_3  and  C_4
REMARK    4  A    between atoms: C_4  and  C_6
REMARK    5  A    between atoms: C_6  and  N_7
REMARK    6  A    between atoms: C_13  and  S_14
REMARK    7  A    between atoms: S_14  and  N_17
REMARK    8  A    between atoms: N_17  and  C_18
REMARK    9  A    between atoms: C_18  and  C_19
REMARK   10  A    between atoms: C_18  and  C_20
REMARK                            x       y       z     vdW  Elec       q    Type
REMARK                         _______ _______ _______ _____ _____    ______ ____
ROOT
ATOM      1  N   UNL     1       3.447   2.631  19.690  0.00  0.00    +0.000 N 
ATOM      2  C   UNL     1       2.534   2.101  18.805  0.00  0.00    +0.000 A 
ATOM      3  O   UNL     1       1.593   1.376  19.099  0.00  0.00    +0.000 OA
ATOM      4  O   UNL     1       2.826   2.487  17.492  0.00  0.00    +0.000 OA
ATOM      5  C   UNL     1       3.915   3.328  17.658  0.00  0.00    +0.000 A 
ATOM      6  C   UNL     1       4.554   4.008  16.645  0.00  0.00    +0.000 A 
ATOM      7  C   UNL     1       5.612   4.846  17.016  0.00  0.00    +0.000 A 
ATOM      8  C   UNL     1       5.991   4.996  18.369  0.00  0.00    +0.000 A 
ATOM      9  C   UNL     1       5.330   4.277  19.377  0.00  0.00    +0.000 A 
ATOM     10  C   UNL     1       4.300   3.448  18.983  0.00  0.00    +0.000 A 
ENDROOT
BRANCH   7  11
ATOM     11  S   UNL     1       6.434   5.788  15.747  0.00  0.00    +0.000 S 
ATOM     12  O   UNL     1       5.415   6.566  15.081  0.00  0.00    +0.000 OA
ATOM     13  O   UNL     1       7.610   6.406  16.316  0.00  0.00    +0.000 OA
BRANCH  11  14
ATOM     14  N   UNL     1       6.922   4.614  14.645  0.00  0.00    +0.000 NA
ATOM     15  H   UNL     1       6.531   3.706  14.904  0.00  0.00    +0.000 HD
BRANCH  14  16
ATOM     16  C   UNL     1       6.868   4.918  13.201  0.00  0.00    +0.000 C 
ATOM     17  C   UNL     1       8.175   5.540  12.713  0.00  0.00    +0.000 C 
BRANCH  16  18
ATOM     18  C   UNL     1       6.553   3.664  12.390  0.00  0.00    +0.000 A 
ATOM     19  C   UNL     1       5.217   3.304  12.151  0.00  0.00    +0.000 A 
ATOM     20  C   UNL     1       4.905   2.180  11.380  0.00  0.00    +0.000 A 
ATOM     21  C   UNL     1       5.923   1.399  10.841  0.00  0.00    +0.000 A 
ATOM     22  C   UNL     1       7.255   1.738  11.074  0.00  0.00    +0.000 A 
ATOM     23  C   UNL     1       7.570   2.861  11.846  0.00  0.00    +0.000 A 
ENDBRANCH  16  18
ENDBRANCH  14  16
ENDBRANCH  11  14
ENDBRANCH   7  11
BRANCH   1  24
ATOM     24  C   UNL     1       3.382   2.476  21.122  0.00  0.00    +0.000 C 
BRANCH  24  25
ATOM     25  C   UNL     1       2.190   3.203  21.720  0.00  0.00    +0.000 C 
ATOM     26  O   UNL     1       1.192   2.676  22.194  0.00  0.00    +0.000 OA
BRANCH  25  27
ATOM     27  O   UNL     1       2.352   4.546  21.525  0.00  0.00    +0.000 OA
BRANCH  27  29
ATOM     28  C   UNL     1       1.457   6.638  20.808  0.00  0.00    +0.000 C 
ATOM     29  C   UNL     1       1.445   5.135  20.583  0.00  0.00    +0.000 C 
ENDBRANCH  27  29
ENDBRANCH  25  27
ENDBRANCH  24  25
ENDBRANCH   1  24
TORSDOF 8
ENDMDL
MODEL 2
REMARK VINA RESULT:      -7.9      3.569      6.091
REMARK  Name = 
REMARK  10 active torsions:
REMARK  status: ('A' for Active; 'I' for Inactive)
REMARK    1  A    between atoms: C_1  and  C_2
REMARK    2  A    between atoms: C_2  and  O_3
REMARK    3  A    between atoms: O_3  and  C_4
REMARK    4  A    between atoms: C_4  and  C_6
REMARK    5  A    between atoms: C_6  and  N_7
REMARK    6  A    between atoms: C_13  and  S_14
REMARK    7  A    between atoms: S_14  and  N_17
REMARK    8  A    between atoms: N_17  and  C_18
REMARK    9  A    between atoms: C_18  and  C_19
REMARK   10  A    between atoms: C_18  and  C_20
REMARK                            x       y       z     vdW  Elec       q    Type
REMARK                         _______ _______ _______ _____ _____    ______ ____
ROOT
ATOM      1  N   UNL     1       1.546   8.568  20.580  0.00  0.00    +0.000 N 
ATOM      2  C   UNL     1       1.460   9.396  19.483  0.00  0.00    +0.000 A 
ATOM      3  O   UNL     1       1.186  10.589  19.510  0.00  0.00    +0.000 OA
ATOM      4  O   UNL     1       1.716   8.693  18.301  0.00  0.00    +0.000 OA
ATOM      5  C   UNL     1       2.025   7.424  18.765  0.00  0.00    +0.000 A 
ATOM      6  C   UNL     1       2.398   6.360  17.974  0.00  0.00    +0.000 A 
ATOM      7  C   UNL     1       2.714   5.165  18.630  0.00  0.00    +0.000 A 
ATOM      8  C   UNL     1       2.667   5.066  20.039  0.00  0.00    +0.000 A 
ATOM      9  C   UNL     1       2.267   6.163  20.816  0.00  0.00    +0.000 A 
ATOM     10  C   UNL     1       1.948   7.326  20.143  0.00  0.00    +0.000 A 
ENDROOT
BRANCH   7  11
ATOM     11  S   UNL     1       3.255   3.777  17.653  0.00  0.00    +0.000 S 
ATOM     12  O   UNL     1       4.122   2.988  18.497  0.00  0.00    +0.000 OA
ATOM     13  O   UNL     1       2.107   3.199  16.993  0.00  0.00    +0.000 OA
BRANCH  11  14
ATOM     14  N   UNL     1       4.247   4.481  16.490  0.00  0.00    +0.000 NA
ATOM     15  H   UNL     1       4.042   5.480  16.413  0.00  0.00    +0.000 HD
BRANCH  14  16
ATOM     16  C   UNL     1       5.685   4.145  16.474  0.00  0.00    +0.000 C 
ATOM     17  C   UNL     1       6.204   3.989  15.046  0.00  0.00    +0.000 C 
BRANCH  16  18
ATOM     18  C   UNL     1       6.501   5.201  17.213  0.00  0.00    +0.000 A 
ATOM     19  C   UNL     1       7.177   4.860  18.396  0.00  0.00    +0.000 A 
ATOM     20  C   UNL     1       7.961   5.801  19.070  0.00  0.00    +0.000 A 
ATOM     21  C   UNL     1       8.077   7.096  18.574  0.00  0.00    +0.000 A 
ATOM     22  C   UNL     1       7.408   7.454  17.405  0.00  0.00    +0.000 A 
ATOM     23  C   UNL     1       6.621   6.515  16.729  0.00  0.00    +0.000 A 
ENDBRANCH  16  18
ENDBRANCH  14  16
ENDBRANCH  11  14
ENDBRANCH   7  11
BRANCH   1  24
ATOM     24  C   UNL     1       1.403   9.002  21.947  0.00  0.00    +0.000 C 
BRANCH  24  25
ATOM     25  C   UNL     1      -0.046   8.976  22.403  0.00  0.00    +0.000 C 
ATOM     26  O   UNL     1      -0.941   8.303  21.910  0.00  0.00    +0.000 OA
BRANCH  25  27
ATOM     27  O   UNL     1      -0.219   9.924  23.372  0.00  0.00    +0.000 OA
BRANCH  27  29
ATOM     28  C   UNL     1      -0.674  11.990  22.270  0.00  0.00    +0.000 C 
ATOM     29  C   UNL     1      -1.264  10.872  23.113  0.00  0.00    +0.000 C 
ENDBRANCH  27  29
ENDBRANCH  25  27
ENDBRANCH  24  25
ENDBRANCH   1  24
TORSDOF 8
ENDMDL
MODEL 3
REMARK VINA RESULT:      -7.7      4.522      8.685
REMARK  Name = 
REMARK  10 active torsions:
REMARK  status: ('A' for Active; 'I' for Inactive)
REMARK    1  A    between atoms: C_1  and  C_2
REMARK    2  A    between atoms: C_2  and  O_3
REMARK    3  A    between atoms: O_3  and  C_4
REMARK    4  A    between atoms: C_4  and  C_6
REMARK    5  A    between atoms: C_6  and  N_7
REMARK    6  A    between atoms: C_13  and  S_14
REMARK    7  A    between atoms: S_14  and  N_17
REMARK    8  A    between atoms: N_17  and  C_18
REMARK    9  A    between atoms: C_18  and  C_19
REMARK   10  A    between atoms: C_18  and  C_20
REMARK                            x       y       z     vdW  Elec       q    Type
REMARK                         _______ _______ _______ _____ _____    ______ ____
ROOT
ATOM      1  N   UNL     1       3.487   4.469  18.654  0.00  0.00    +0.000 N 
ATOM      2  C   UNL     1       3.236   3.545  19.645  0.00  0.00    +0.000 A 
ATOM      3  O   UNL     1       3.648   2.393  19.666  0.00  0.00    +0.000 OA
ATOM      4  O   UNL     1       2.424   4.090  20.645  0.00  0.00    +0.000 OA
ATOM      5  C   UNL     1       2.266   5.402  20.226  0.00  0.00    +0.000 A 
ATOM      6  C   UNL     1       1.569   6.374  20.910  0.00  0.00    +0.000 A 
ATOM      7  C   UNL     1       1.557   7.655  20.348  0.00  0.00    +0.000 A 
ATOM      8  C   UNL     1       2.243   7.937  19.146  0.00  0.00    +0.000 A 
ATOM      9  C   UNL     1       2.931   6.921  18.464  0.00  0.00    +0.000 A 
ATOM     10  C   UNL     1       2.916   5.663  19.033  0.00  0.00    +0.000 A 
ENDROOT
BRANCH   7  11
ATOM     11  S   UNL     1       0.715   8.958  21.224  0.00  0.00    +0.000 S 
ATOM     12  O   UNL     1      -0.579   8.439  21.597  0.00  0.00    +0.000 OA
ATOM     13  O   UNL     1       1.619   9.521  22.201  0.00  0.00    +0.000 OA
BRANCH  11  14
ATOM     14  N   UNL     1       0.430  10.109  20.029  0.00  0.00    +0.000 NA
ATOM     15  H   UNL     1       0.584   9.700  19.105  0.00  0.00    +0.000 HD
BRANCH  14  16
ATOM     16  C   UNL     1      -0.765  10.970  20.131  0.00  0.00    +0.000 C 
ATOM     17  C   UNL     1      -0.382  12.432  20.350  0.00  0.00    +0.000 C 
BRANCH  16  18
ATOM     18  C   UNL     1      -1.639  10.841  18.887  0.00  0.00    +0.000 A 
ATOM     19  C   UNL     1      -2.836  11.571  18.794  0.00  0.00    +0.000 A 
ATOM     20  C   UNL     1      -3.633  11.496  17.648  0.00  0.00    +0.000 A 
ATOM     21  C   UNL     1      -3.249  10.690  16.581  0.00  0.00    +0.000 A 
ATOM     22  C   UNL     1      -2.068   9.953  16.659  0.00  0.00    +0.000 A 
ATOM     23  C   UNL     1      -1.268  10.024  17.805  0.00  0.00    +0.000 A 
ENDBRANCH  16  18
ENDBRANCH  14  16
ENDBRANCH  11  14
ENDBRANCH   7  11
BRANCH   1  24
ATOM     24  C   UNL     1       4.346   4.240  17.520  0.00  0.00    +0.000 C 
BRANCH  24  25
ATOM     25  C   UNL     1       5.795   4.578  17.826  0.00  0.00    +0.000 C 
ATOM     26  O   UNL     1       6.398   4.287  18.851  0.00  0.00    +0.000 OA
BRANCH  25  27
ATOM     27  O   UNL     1       6.281   5.375  16.828  0.00  0.00    +0.000 OA
BRANCH  27  29
ATOM     28  C   UNL     1       7.523   7.293  17.514  0.00  0.00    +0.000 C 
ATOM     29  C   UNL     1       6.163   6.784  17.066  0.00  0.00    +0.000 C 
ENDBRANCH  27  29
ENDBRANCH  25  27
ENDBRANCH  24  25
ENDBRANCH   1  24
TORSDOF 8
ENDMDL
MODEL 4
REMARK VINA RESULT:      -7.6      1.205      2.058
REMARK  Name = 
REMARK  10 active torsions:
REMARK  status: ('A' for Active; 'I' for Inactive)
REMARK    1  A    between atoms: C_1  and  C_2
REMARK    2  A    between atoms: C_2  and  O_3
REMARK    3  A    between atoms: O_3  and  C_4
REMARK    4  A    between atoms: C_4  and  C_6
REMARK    5  A    between atoms: C_6  and  N_7
REMARK    6  A    between atoms: C_13  and  S_14
REMARK    7  A    between atoms: S_14  and  N_17
REMARK    8  A    between atoms: N_17  and  C_18
REMARK    9  A    between atoms: C_18  and  C_19
REMARK   10  A    between atoms: C_18  and  C_20
REMARK                            x       y       z     vdW  Elec       q    Type
REMARK                         _______ _______ _______ _____ _____    ______ ____
ROOT
ATOM      1  N   UNL     1       3.443   2.361  19.345  0.00  0.00    +0.000 N 
ATOM      2  C   UNL     1       4.361   2.367  20.373  0.00  0.00    +0.000 A 
ATOM      3  O   UNL     1       4.278   1.718  21.407  0.00  0.00    +0.000 OA
ATOM      4  O   UNL     1       5.421   3.236  20.094  0.00  0.00    +0.000 OA
ATOM      5  C   UNL     1       5.115   3.689  18.820  0.00  0.00    +0.000 A 
ATOM      6  C   UNL     1       5.892   4.549  18.076  0.00  0.00    +0.000 A 
ATOM      7  C   UNL     1       5.437   4.858  16.789  0.00  0.00    +0.000 A 
ATOM      8  C   UNL     1       4.245   4.298  16.277  0.00  0.00    +0.000 A 
ATOM      9  C   UNL     1       3.467   3.437  17.066  0.00  0.00    +0.000 A 
ATOM     10  C   UNL     1       3.931   3.159  18.335  0.00  0.00    +0.000 A 
ENDROOT
BRANCH   7  11
ATOM     11  S   UNL     1       6.435   5.924  15.768  0.00  0.00    +0.000 S 
ATOM     12  O   UNL     1       5.523   6.737  14.999  0.00  0.00    +0.000 OA
ATOM     13  O   UNL     1       7.472   6.512  16.586  0.00  0.00    +0.000 OA
BRANCH  11  14
ATOM     14  N   UNL     1       7.149   4.860  14.676  0.00  0.00    +0.000 NA
ATOM     15  H   UNL     1       6.928   3.896  14.931  0.00  0.00    +0.000 HD
BRANCH  14  16
ATOM     16  C   UNL     1       7.064   5.151  13.231  0.00  0.00    +0.000 C 
ATOM     17  C   UNL     1       8.390   5.685  12.692  0.00  0.00    +0.000 C 
BRANCH  16  18
ATOM     18  C   UNL     1       6.645   3.910  12.449  0.00  0.00    +0.000 A 
ATOM     19  C   UNL     1       7.623   3.101  11.846  0.00  0.00    +0.000 A 
ATOM     20  C   UNL     1       7.264   1.940  11.155  0.00  0.00    +0.000 A 
ATOM     21  C   UNL     1       5.926   1.572  11.053  0.00  0.00    +0.000 A 
ATOM     22  C   UNL     1       4.942   2.367  11.640  0.00  0.00    +0.000 A 
ATOM     23  C   UNL     1       5.297   3.531  12.330  0.00  0.00    +0.000 A 
ENDBRANCH  16  18
ENDBRANCH  14  16
ENDBRANCH  11  14
ENDBRANCH   7  11
BRANCH   1  24
ATOM     24  C   UNL     1       2.274   1.520  19.298  0.00  0.00    +0.000 C 
BRANCH  24  25
ATOM     25  C   UNL     1       0.989   2.329  19.363  0.00  0.00    +0.000 C 
ATOM     26  O   UNL     1       0.136   2.390  18.487  0.00  0.00    +0.000 OA
BRANCH  25  27
ATOM     27  O   UNL     1       0.999   3.080  20.504  0.00  0.00    +0.000 OA
BRANCH  27  29
ATOM     28  C   UNL     1       2.070   5.185  20.838  0.00  0.00    +0.000 C 
ATOM     29  C   UNL     1       0.830   4.490  20.302  0.00  0.00    +0.000 C 
ENDBRANCH  27  29
ENDBRANCH  25  27
ENDBRANCH  24  25
ENDBRANCH   1  24
TORSDOF 8
ENDMDL
MODEL 5
REMARK VINA RESULT:      -7.5      5.237      9.206
REMARK  Name = 
REMARK  10 active torsions:
REMARK  status: ('A' for Active; 'I' for Inactive)
REMARK    1  A    between atoms: C_1  and  C_2
REMARK    2  A    between atoms: C_2  and  O_3
REMARK    3  A    between atoms: O_3  and  C_4
REMARK    4  A    between atoms: C_4  and  C_6
REMARK    5  A    between atoms: C_6  and  N_7
REMARK    6  A    between atoms: C_13  and  S_14
REMARK    7  A    between atoms: S_14  and  N_17
REMARK    8  A    between atoms: N_17  and  C_18
REMARK    9  A    between atoms: C_18  and  C_19
REMARK   10  A    between atoms: C_18  and  C_20
REMARK                            x       y       z     vdW  Elec       q    Type
REMARK                         _______ _______ _______ _____ _____    ______ ____
ROOT
ATOM      1  N   UNL     1       2.802   5.819  18.714  0.00  0.00    +0.000 N 
ATOM      2  C   UNL     1       2.780   5.118  19.900  0.00  0.00    +0.000 A 
ATOM      3  O   UNL     1       3.241   3.997  20.074  0.00  0.00    +0.000 OA
ATOM      4  O   UNL     1       2.141   5.851  20.906  0.00  0.00    +0.000 OA
ATOM      5  C   UNL     1       1.850   7.048  20.269  0.00  0.00    +0.000 A 
ATOM      6  C   UNL     1       1.247   8.135  20.862  0.00  0.00    +0.000 A 
ATOM      7  C   UNL     1       1.074   9.273  20.067  0.00  0.00    +0.000 A 
ATOM      8  C   UNL     1       1.514   9.305  18.725  0.00  0.00    +0.000 A 
ATOM      9  C   UNL     1       2.110   8.175  18.144  0.00  0.00    +0.000 A 
ATOM     10  C   UNL     1       2.257   7.062  18.946  0.00  0.00    +0.000 A 
ENDROOT
BRANCH   7  11
ATOM     11  S   UNL     1       0.349  10.723  20.805  0.00  0.00    +0.000 S 
ATOM     12  O   UNL     1      -0.651  10.259  21.737  0.00  0.00    +0.000 OA
ATOM     13  O   UNL     1       1.410  11.617  21.212  0.00  0.00    +0.000 OA
BRANCH  11  14
ATOM     14  N   UNL     1      -0.492  11.430  19.530  0.00  0.00    +0.000 NA
ATOM     15  H   UNL     1      -0.097  11.125  18.638  0.00  0.00    +0.000 HD
BRANCH  14  16
ATOM     16  C   UNL     1      -1.967  11.461  19.572  0.00  0.00    +0.000 C 
ATOM     17  C   UNL     1      -2.484  12.830  20.011  0.00  0.00    +0.000 C 
BRANCH  16  18
ATOM     18  C   UNL     1      -2.560  11.090  18.216  0.00  0.00    +0.000 A 
ATOM     19  C   UNL     1      -3.799  11.625  17.825  0.00  0.00    +0.000 A 
ATOM     20  C   UNL     1      -4.344  11.328  16.573  0.00  0.00    +0.000 A 
ATOM     21  C   UNL     1      -3.661  10.492  15.694  0.00  0.00    +0.000 A 
ATOM     22  C   UNL     1      -2.433   9.948  16.069  0.00  0.00    +0.000 A 
ATOM     23  C   UNL     1      -1.886  10.241  17.322  0.00  0.00    +0.000 A 
ENDBRANCH  16  18
ENDBRANCH  14  16
ENDBRANCH  11  14
ENDBRANCH   7  11
BRANCH   1  24
ATOM     24  C   UNL     1       3.448   5.366  17.508  0.00  0.00    +0.000 C 
BRANCH  24  25
ATOM     25  C   UNL     1       4.742   6.115  17.240  0.00  0.00    +0.000 C 
ATOM     26  O   UNL     1       5.006   6.752  16.229  0.00  0.00    +0.000 OA
BRANCH  25  27
ATOM     27  O   UNL     1       5.619   5.856  18.256  0.00  0.00    +0.000 OA
BRANCH  27  29
ATOM     28  C   UNL     1       7.573   4.661  17.590  0.00  0.00    +0.000 C 
ATOM     29  C   UNL     1       6.202   4.546  18.233  0.00  0.00    +0.000 C 
ENDBRANCH  27  29
ENDBRANCH  25  27
ENDBRANCH  24  25
ENDBRANCH   1  24
TORSDOF 8
ENDMDL
MODEL 6
REMARK VINA RESULT:      -7.5      4.950      8.903
REMARK  Name = 
REMARK  10 active torsions:
REMARK  status: ('A' for Active; 'I' for Inactive)
REMARK    1  A    between atoms: C_1  and  C_2
REMARK    2  A    between atoms: C_2  and  O_3
REMARK    3  A    between atoms: O_3  and  C_4
REMARK    4  A    between atoms: C_4  and  C_6
REMARK    5  A    between atoms: C_6  and  N_7
REMARK    6  A    between atoms: C_13  and  S_14
REMARK    7  A    between atoms: S_14  and  N_17
REMARK    8  A    between atoms: N_17  and  C_18
REMARK    9  A    between atoms: C_18  and  C_19
REMARK   10  A    between atoms: C_18  and  C_20
REMARK                            x       y       z     vdW  Elec       q    Type
REMARK                         _______ _______ _______ _____ _____    ______ ____
ROOT
ATOM      1  N   UNL     1       3.939   5.209  18.283  0.00  0.00    +0.000 N 
ATOM      2  C   UNL     1       3.849   4.416  19.406  0.00  0.00    +0.000 A 
ATOM      3  O   UNL     1       4.424   3.349  19.573  0.00  0.00    +0.000 OA
ATOM      4  O   UNL     1       2.990   4.983  20.353  0.00  0.00    +0.000 OA
ATOM      5  C   UNL     1       2.634   6.184  19.759  0.00  0.00    +0.000 A 
ATOM      6  C   UNL     1       1.820   7.139  20.328  0.00  0.00    +0.000 A 
ATOM      7  C   UNL     1       1.609   8.309  19.590  0.00  0.00    +0.000 A 
ATOM      8  C   UNL     1       2.217   8.502  18.329  0.00  0.00    +0.000 A 
ATOM      9  C   UNL     1       3.029   7.504  17.770  0.00  0.00    +0.000 A 
ATOM     10  C   UNL     1       3.210   6.354  18.512  0.00  0.00    +0.000 A 
ENDROOT
BRANCH   7  11
ATOM     11  S   UNL     1       0.607   9.596  20.307  0.00  0.00    +0.000 S 
ATOM     12  O   UNL     1      -0.396   8.941  21.112  0.00  0.00    +0.000 OA
ATOM     13  O   UNL     1       1.478  10.611  20.855  0.00  0.00    +0.000 OA
BRANCH  11  14
ATOM     14  N   UNL     1      -0.204  10.242  18.981  0.00  0.00    +0.000 NA
ATOM     15  H   UNL     1      -0.136   9.605  18.184  0.00  0.00    +0.000 HD
BRANCH  14  16
ATOM     16  C   UNL     1      -1.540  10.840  19.179  0.00  0.00    +0.000 C 
ATOM     17  C   UNL     1      -1.437  12.302  19.611  0.00  0.00    +0.000 C 
BRANCH  16  18
ATOM     18  C   UNL     1      -2.380  10.730  17.911  0.00  0.00    +0.000 A 
ATOM     19  C   UNL     1      -3.569  11.471  17.793  0.00  0.00    +0.000 A 
ATOM     20  C   UNL     1      -4.335  11.414  16.626  0.00  0.00    +0.000 A 
ATOM     21  C   UNL     1      -3.929  10.615  15.561  0.00  0.00    +0.000 A 
ATOM     22  C   UNL     1      -2.756   9.868  15.664  0.00  0.00    +0.000 A 
ATOM     23  C   UNL     1      -1.988   9.921  16.831  0.00  0.00    +0.000 A 
ENDBRANCH  16  18
ENDBRANCH  14  16
ENDBRANCH  11  14
ENDBRANCH   7  11
BRANCH   1  24
ATOM     24  C   UNL     1       4.795   4.937  17.156  0.00  0.00    +0.000 C 
BRANCH  24  25
ATOM     25  C   UNL     1       6.203   5.468  17.369  0.00  0.00    +0.000 C 
ATOM     26  O   UNL     1       6.609   6.041  18.372  0.00  0.00    +0.000 OA
BRANCH  25  27
ATOM     27  O   UNL     1       6.910   5.320  16.209  0.00  0.00    +0.000 OA
BRANCH  27  29
ATOM     28  C   UNL     1       6.661   4.462  13.998  0.00  0.00    +0.000 C 
ATOM     29  C   UNL     1       6.627   4.119  15.477  0.00  0.00    +0.000 C 
ENDBRANCH  27  29
ENDBRANCH  25  27
ENDBRANCH  24  25
ENDBRANCH   1  24
TORSDOF 8
ENDMDL
MODEL 7
REMARK VINA RESULT:      -7.4      4.343      9.112
REMARK  Name = 
REMARK  10 active torsions:
REMARK  status: ('A' for Active; 'I' for Inactive)
REMARK    1  A    between atoms: C_1  and  C_2
REMARK    2  A    between atoms: C_2  and  O_3
REMARK    3  A    between atoms: O_3  and  C_4
REMARK    4  A    between atoms: C_4  and  C_6
REMARK    5  A    between atoms: C_6  and  N_7
REMARK    6  A    between atoms: C_13  and  S_14
REMARK    7  A    between atoms: S_14  and  N_17
REMARK    8  A    between atoms: N_17  and  C_18
REMARK    9  A    between atoms: C_18  and  C_19
REMARK   10  A    between atoms: C_18  and  C_20
REMARK                            x       y       z     vdW  Elec       q    Type
REMARK                         _______ _______ _______ _____ _____    ______ ____
ROOT
ATOM      1  N   UNL     1       4.702   4.760  18.371  0.00  0.00    +0.000 N 
ATOM      2  C   UNL     1       5.259   4.969  17.128  0.00  0.00    +0.000 A 
ATOM      3  O   UNL     1       6.021   4.205  16.550  0.00  0.00    +0.000 OA
ATOM      4  O   UNL     1       4.852   6.197  16.595  0.00  0.00    +0.000 OA
ATOM      5  C   UNL     1       3.972   6.668  17.557  0.00  0.00    +0.000 A 
ATOM      6  C   UNL     1       3.260   7.844  17.473  0.00  0.00    +0.000 A 
ATOM      7  C   UNL     1       2.385   8.130  18.527  0.00  0.00    +0.000 A 
ATOM      8  C   UNL     1       2.232   7.242  19.616  0.00  0.00    +0.000 A 
ATOM      9  C   UNL     1       2.984   6.059  19.681  0.00  0.00    +0.000 A 
ATOM     10  C   UNL     1       3.848   5.807  18.635  0.00  0.00    +0.000 A 
ENDROOT
BRANCH   7  11
ATOM     11  S   UNL     1       1.403   9.613  18.437  0.00  0.00    +0.000 S 
ATOM     12  O   UNL     1       2.271  10.658  17.949  0.00  0.00    +0.000 OA
ATOM     13  O   UNL     1       0.149   9.301  17.788  0.00  0.00    +0.000 OA
BRANCH  11  14
ATOM     14  N   UNL     1       1.096   9.976  20.052  0.00  0.00    +0.000 NA
ATOM     15  H   UNL     1       1.527  10.870  20.298  0.00  0.00    +0.000 HD
BRANCH  14  16
ATOM     16  C   UNL     1      -0.266   9.781  20.586  0.00  0.00    +0.000 C 
ATOM     17  C   UNL     1      -0.293   8.697  21.663  0.00  0.00    +0.000 C 
BRANCH  16  18
ATOM     18  C   UNL     1      -0.826  11.085  21.145  0.00  0.00    +0.000 A 
ATOM     19  C   UNL     1      -1.400  12.029  20.277  0.00  0.00    +0.000 A 
ATOM     20  C   UNL     1      -1.951  13.214  20.771  0.00  0.00    +0.000 A 
ATOM     21  C   UNL     1      -1.934  13.476  22.138  0.00  0.00    +0.000 A 
ATOM     22  C   UNL     1      -1.362  12.554  23.013  0.00  0.00    +0.000 A 
ATOM     23  C   UNL     1      -0.808  11.368  22.522  0.00  0.00    +0.000 A 
ENDBRANCH  16  18
ENDBRANCH  14  16
ENDBRANCH  11  14
ENDBRANCH   7  11
BRANCH   1  24
ATOM     24  C   UNL     1       4.871   3.561  19.152  0.00  0.00    +0.000 C 
BRANCH  24  25
ATOM     25  C   UNL     1       3.784   2.538  18.866  0.00  0.00    +0.000 C 
ATOM     26  O   UNL     1       3.473   2.111  17.762  0.00  0.00    +0.000 OA
BRANCH  25  27
ATOM     27  O   UNL     1       3.119   2.267  20.029  0.00  0.00    +0.000 OA
BRANCH  27  29
ATOM     28  C   UNL     1       1.306   2.841  21.468  0.00  0.00    +0.000 C 
ATOM     29  C   UNL     1       1.728   2.617  20.026  0.00  0.00    +0.000 C 
ENDBRANCH  27  29
ENDBRANCH  25  27
ENDBRANCH  24  25
ENDBRANCH   1  24
TORSDOF 8
ENDMDL
MODEL 8
REMARK VINA RESULT:      -7.4      4.745      7.603
REMARK  Name = 
REMARK  10 active torsions:
REMARK  status: ('A' for Active; 'I' for Inactive)
REMARK    1  A    between atoms: C_1  and  C_2
REMARK    2  A    between atoms: C_2  and  O_3
REMARK    3  A    between atoms: O_3  and  C_4
REMARK    4  A    between atoms: C_4  and  C_6
REMARK    5  A    between atoms: C_6  and  N_7
REMARK    6  A    between atoms: C_13  and  S_14
REMARK    7  A    between atoms: S_14  and  N_17
REMARK    8  A    between atoms: N_17  and  C_18
REMARK    9  A    between atoms: C_18  and  C_19
REMARK   10  A    between atoms: C_18  and  C_20
REMARK                            x       y       z     vdW  Elec       q    Type
REMARK                         _______ _______ _______ _____ _____    ______ ____
ROOT
ATOM      1  N   UNL     1       0.790  10.459  20.436  0.00  0.00    +0.000 N 
ATOM      2  C   UNL     1       0.466  10.101  21.726  0.00  0.00    +0.000 A 
ATOM      3  O   UNL     1      -0.061  10.829  22.557  0.00  0.00    +0.000 OA
ATOM      4  O   UNL     1       0.833   8.776  21.987  0.00  0.00    +0.000 OA
ATOM      5  C   UNL     1       1.326   8.351  20.763  0.00  0.00    +0.000 A 
ATOM      6  C   UNL     1       1.782   7.081  20.489  0.00  0.00    +0.000 A 
ATOM      7  C   UNL     1       2.201   6.829  19.178  0.00  0.00    +0.000 A 
ATOM      8  C   UNL     1       2.143   7.831  18.184  0.00  0.00    +0.000 A 
ATOM      9  C   UNL     1       1.689   9.121  18.498  0.00  0.00    +0.000 A 
ATOM     10  C   UNL     1       1.294   9.346  19.801  0.00  0.00    +0.000 A 
ENDROOT
BRANCH   7  11
ATOM     11  S   UNL     1       2.748   5.185  18.762  0.00  0.00    +0.000 S 
ATOM     12  O   UNL     1       3.676   4.783  19.793  0.00  0.00    +0.000 OA
ATOM     13  O   UNL     1       1.593   4.384  18.425  0.00  0.00    +0.000 OA
BRANCH  11  14
ATOM     14  N   UNL     1       3.665   5.420  17.371  0.00  0.00    +0.000 NA
ATOM     15  H   UNL     1       3.657   6.408  17.109  0.00  0.00    +0.000 HD
BRANCH  14  16
ATOM     16  C   UNL     1       4.983   4.764  17.261  0.00  0.00    +0.000 C 
ATOM     17  C   UNL     1       5.239   4.262  15.841  0.00  0.00    +0.000 C 
BRANCH  16  18
ATOM     18  C   UNL     1       6.101   5.711  17.687  0.00  0.00    +0.000 A 
ATOM     19  C   UNL     1       6.979   5.336  18.719  0.00  0.00    +0.000 A 
ATOM     20  C   UNL     1       8.032   6.172  19.101  0.00  0.00    +0.000 A 
ATOM     21  C   UNL     1       8.223   7.393  18.462  0.00  0.00    +0.000 A 
ATOM     22  C   UNL     1       7.358   7.783  17.440  0.00  0.00    +0.000 A 
ATOM     23  C   UNL     1       6.302   6.951  17.056  0.00  0.00    +0.000 A 
ENDBRANCH  16  18
ENDBRANCH  14  16
ENDBRANCH  11  14
ENDBRANCH   7  11
BRANCH   1  24
ATOM     24  C   UNL     1       0.481  11.733  19.839  0.00  0.00    +0.000 C 
BRANCH  24  25
ATOM     25  C   UNL     1       1.606  12.737  20.026  0.00  0.00    +0.000 C 
ATOM     26  O   UNL     1       2.196  12.965  21.074  0.00  0.00    +0.000 OA
BRANCH  25  27
ATOM     27  O   UNL     1       1.766  13.440  18.866  0.00  0.00    +0.000 OA
BRANCH  27  29
ATOM     28  C   UNL     1       0.256  15.286  18.891  0.00  0.00    +0.000 C 
ATOM     29  C   UNL     1       1.711  14.866  19.009  0.00  0.00    +0.000 C 
ENDBRANCH  27  29
ENDBRANCH  25  27
ENDBRANCH  24  25
ENDBRANCH   1  24
TORSDOF 8
ENDMDL
MODEL 9
REMARK VINA RESULT:      -7.3      4.659      7.481
REMARK  Name = 
REMARK  10 active torsions:
REMARK  status: ('A' for Active; 'I' for Inactive)
REMARK    1  A    between atoms: C_1  and  C_2
REMARK    2  A    between atoms: C_2  and  O_3
REMARK    3  A    between atoms: O_3  and  C_4
REMARK    4  A    between atoms: C_4  and  C_6
REMARK    5  A    between atoms: C_6  and  N_7
REMARK    6  A    between atoms: C_13  and  S_14
REMARK    7  A    between atoms: S_14  and  N_17
REMARK    8  A    between atoms: N_17  and  C_18
REMARK    9  A    between atoms: C_18  and  C_19
REMARK   10  A    between atoms: C_18  and  C_20
REMARK                            x       y       z     vdW  Elec       q    Type
REMARK                         _______ _______ _______ _____ _____    ______ ____
ROOT
ATOM      1  N   UNL     1       0.727  10.529  20.559  0.00  0.00    +0.000 N 
ATOM      2  C   UNL     1       0.484  10.147  21.861  0.00  0.00    +0.000 A 
ATOM      3  O   UNL     1      -0.018  10.850  22.728  0.00  0.00    +0.000 OA
ATOM      4  O   UNL     1       0.901   8.831  22.084  0.00  0.00    +0.000 OA
ATOM      5  C   UNL     1       1.339   8.434  20.830  0.00  0.00    +0.000 A 
ATOM      6  C   UNL     1       1.814   7.180  20.515  0.00  0.00    +0.000 A 
ATOM      7  C   UNL     1       2.169   6.956  19.181  0.00  0.00    +0.000 A 
ATOM      8  C   UNL     1       2.029   7.967  18.203  0.00  0.00    +0.000 A 
ATOM      9  C   UNL     1       1.557   9.240  18.558  0.00  0.00    +0.000 A 
ATOM     10  C   UNL     1       1.226   9.438  19.883  0.00  0.00    +0.000 A 
ENDROOT
BRANCH   7  11
ATOM     11  S   UNL     1       2.737   5.334  18.714  0.00  0.00    +0.000 S 
ATOM     12  O   UNL     1       3.622   4.886  19.764  0.00  0.00    +0.000 OA
ATOM     13  O   UNL     1       1.601   4.547  18.292  0.00  0.00    +0.000 OA
BRANCH  11  14
ATOM     14  N   UNL     1       3.713   5.632  17.375  0.00  0.00    +0.000 NA
ATOM     15  H   UNL     1       3.789   6.639  17.215  0.00  0.00    +0.000 HD
BRANCH  14  16
ATOM     16  C   UNL     1       4.979   4.887  17.228  0.00  0.00    +0.000 C 
ATOM     17  C   UNL     1       5.193   4.431  15.786  0.00  0.00    +0.000 C 
BRANCH  16  18
ATOM     18  C   UNL     1       6.164   5.729  17.690  0.00  0.00    +0.000 A 
ATOM     19  C   UNL     1       6.447   6.948  17.052  0.00  0.00    +0.000 A 
ATOM     20  C   UNL     1       7.506   7.753  17.482  0.00  0.00    +0.000 A 
ATOM     21  C   UNL     1       8.299   7.351  18.553  0.00  0.00    +0.000 A 
ATOM     22  C   UNL     1       8.037   6.140  19.193  0.00  0.00    +0.000 A 
ATOM     23  C   UNL     1       6.980   5.332  18.764  0.00  0.00    +0.000 A 
ENDBRANCH  16  18
ENDBRANCH  14  16
ENDBRANCH  11  14
ENDBRANCH   7  11
BRANCH   1  24
ATOM     24  C   UNL     1       0.351  11.801  19.996  0.00  0.00    +0.000 C 
BRANCH  24  25
ATOM     25  C   UNL     1      -1.112  11.830  19.585  0.00  0.00    +0.000 C 
ATOM     26  O   UNL     1      -1.654  11.054  18.809  0.00  0.00    +0.000 OA
BRANCH  25  27
ATOM     27  O   UNL     1      -1.697  12.943  20.119  0.00  0.00    +0.000 OA
BRANCH  27  29
ATOM     28  C   UNL     1      -3.007  12.621  22.087  0.00  0.00    +0.000 C 
ATOM     29  C   UNL     1      -3.045  12.760  20.574  0.00  0.00    +0.000 C 
ENDBRANCH  27  29
ENDBRANCH  25  27
ENDBRANCH  24  25
ENDBRANCH   1  24
TORSDOF 8
ENDMDL
