MODEL 1
REMARK VINA RESULT:      -8.7      0.000      0.000
REMARK  Name = 
REMARK  5 active torsions:
REMARK  status: ('A' for Active; 'I' for Inactive)
REMARK    1  A    between atoms: O_1  and  C_2
REMARK    2  A    between atoms: C_3  and  C_4
REMARK    3  A    between atoms: C_4  and  C_5
REMARK    4  A    between atoms: C_4  and  N_12
REMARK    5  A    between atoms: C_21  and  C_22
REMARK                            x       y       z     vdW  Elec       q    Type
REMARK                         _______ _______ _______ _____ _____    ______ ____
ROOT
ATOM      1  C   UNL     1       2.454   6.604  20.013  0.00  0.00    +0.000 A 
ATOM      2  C   UNL     1       3.068   6.584  18.796  0.00  0.00    +0.000 A 
ATOM      3  S   UNL     1       2.625   8.090  17.852  0.00  0.00    +0.000 S 
ATOM      4  C   UNL     1       1.696   8.649  19.192  0.00  0.00    +0.000 A 
ATOM      5  N   UNL     1       0.995   9.716  19.444  0.00  0.00    +0.000 NA
ATOM      6  C   UNL     1       0.601   9.475  20.748  0.00  0.00    +0.000 A 
ATOM      7  N   UNL     1       1.016   8.299  21.264  0.00  0.00    +0.000 NA
ATOM      8  N   UNL     1       1.716   7.774  20.232  0.00  0.00    +0.000 N 
ENDROOT
BRANCH   6   9
ATOM      9  C   UNL     1      -0.213  10.461  21.531  0.00  0.00    +0.000 A 
ATOM     10  C   UNL     1      -0.732  10.264  22.799  0.00  0.00    +0.000 A 
ATOM     11  C   UNL     1      -1.426  11.448  23.153  0.00  0.00    +0.000 A 
ATOM     12  C   UNL     1      -1.299  12.295  22.085  0.00  0.00    +0.000 A 
ATOM     13  O   UNL     1      -0.555  11.720  21.104  0.00  0.00    +0.000 OA
ENDBRANCH   6   9
BRANCH   1  14
ATOM     14  O   UNL     1       2.496   5.656  21.002  0.00  0.00    +0.000 OA
ATOM     15  H   UNL     1       2.895   6.040  21.803  0.00  0.00    +0.000 HD
ENDBRANCH   1  14
BRANCH   2  16
ATOM     16  C   UNL     1       4.099   5.657  18.114  0.00  0.00    +0.000 C 
BRANCH  16  17
ATOM     17  C   UNL     1       3.732   4.166  18.171  0.00  0.00    +0.000 A 
ATOM     18  C   UNL     1       2.576   3.718  17.496  0.00  0.00    +0.000 A 
ATOM     19  C   UNL     1       2.078   2.427  17.697  0.00  0.00    +0.000 A 
ATOM     20  C   UNL     1       2.752   1.541  18.532  0.00  0.00    +0.000 A 
ATOM     21  C   UNL     1       3.912   1.952  19.180  0.00  0.00    +0.000 A 
ATOM     22  C   UNL     1       4.372   3.258  19.020  0.00  0.00    +0.000 A 
ATOM     23  F   UNL     1       5.405   3.647  19.776  0.00  0.00    +0.000 F 
ENDBRANCH  16  17
BRANCH  16  24
ATOM     24  N   UNL     1       4.604   6.032  16.757  0.00  0.00    +0.000 NA
ATOM     25  C   UNL     1       5.347   4.902  16.102  0.00  0.00    +0.000 C 
ATOM     26  C   UNL     1       6.700   4.567  16.765  0.00  0.00    +0.000 C 
ATOM     27  O   UNL     1       7.559   5.710  16.789  0.00  0.00    +0.000 OA
ATOM     28  C   UNL     1       6.929   6.845  17.400  0.00  0.00    +0.000 C 
ATOM     29  C   UNL     1       5.566   7.162  16.759  0.00  0.00    +0.000 C 
ENDBRANCH  16  24
ENDBRANCH   2  16
TORSDOF 5
ENDMDL
MODEL 2
REMARK VINA RESULT:      -8.6      2.635      4.017
REMARK  Name = 
REMARK  5 active torsions:
REMARK  status: ('A' for Active; 'I' for Inactive)
REMARK    1  A    between atoms: O_1  and  C_2
REMARK    2  A    between atoms: C_3  and  C_4
REMARK    3  A    between atoms: C_4  and  C_5
REMARK    4  A    between atoms: C_4  and  N_12
REMARK    5  A    between atoms: C_21  and  C_22
REMARK                            x       y       z     vdW  Elec       q    Type
REMARK                         _______ _______ _______ _____ _____    ______ ____
ROOT
ATOM      1  C   UNL     1       2.198   6.944  19.705  0.00  0.00    +0.000 A 
ATOM      2  C   UNL     1       2.870   6.183  18.796  0.00  0.00    +0.000 A 
ATOM      3  S   UNL     1       3.119   7.135  17.251  0.00  0.00    +0.000 S 
ATOM      4  C   UNL     1       2.348   8.496  17.974  0.00  0.00    +0.000 A 
ATOM      5  N   UNL     1       2.080   9.711  17.593  0.00  0.00    +0.000 NA
ATOM      6  C   UNL     1       1.504  10.230  18.739  0.00  0.00    +0.000 A 
ATOM      7  N   UNL     1       1.394   9.363  19.768  0.00  0.00    +0.000 NA
ATOM      8  N   UNL     1       1.938   8.241  19.245  0.00  0.00    +0.000 N 
ENDROOT
BRANCH   6   9
ATOM      9  C   UNL     1       1.052  11.657  18.830  0.00  0.00    +0.000 A 
ATOM     10  C   UNL     1       1.869  12.760  19.007  0.00  0.00    +0.000 A 
ATOM     11  C   UNL     1       1.027  13.900  19.033  0.00  0.00    +0.000 A 
ATOM     12  C   UNL     1      -0.250  13.432  18.878  0.00  0.00    +0.000 A 
ATOM     13  O   UNL     1      -0.251  12.080  18.738  0.00  0.00    +0.000 OA
ENDBRANCH   6   9
BRANCH   1  14
ATOM     14  O   UNL     1       1.786   6.596  20.966  0.00  0.00    +0.000 OA
ATOM     15  H   UNL     1       0.910   6.174  20.916  0.00  0.00    +0.000 HD
ENDBRANCH   1  14
BRANCH   2  16
ATOM     16  C   UNL     1       3.535   4.788  18.826  0.00  0.00    +0.000 C 
BRANCH  16  17
ATOM     17  C   UNL     1       5.043   4.809  18.530  0.00  0.00    +0.000 A 
ATOM     18  C   UNL     1       5.911   5.459  19.433  0.00  0.00    +0.000 A 
ATOM     19  C   UNL     1       7.248   5.698  19.104  0.00  0.00    +0.000 A 
ATOM     20  C   UNL     1       7.760   5.247  17.890  0.00  0.00    +0.000 A 
ATOM     21  C   UNL     1       6.930   4.573  17.001  0.00  0.00    +0.000 A 
ATOM     22  C   UNL     1       5.584   4.387  17.311  0.00  0.00    +0.000 A 
ATOM     23  F   UNL     1       4.797   3.865  16.363  0.00  0.00    +0.000 F 
ENDBRANCH  16  17
BRANCH  16  24
ATOM     24  N   UNL     1       3.229   3.878  19.973  0.00  0.00    +0.000 NA
ATOM     25  C   UNL     1       3.885   2.535  19.817  0.00  0.00    +0.000 C 
ATOM     26  C   UNL     1       3.299   1.674  18.678  0.00  0.00    +0.000 C 
ATOM     27  O   UNL     1       1.896   1.465  18.860  0.00  0.00    +0.000 OA
ATOM     28  C   UNL     1       1.183   2.699  19.018  0.00  0.00    +0.000 C 
ATOM     29  C   UNL     1       1.785   3.573  20.135  0.00  0.00    +0.000 C 
ENDBRANCH  16  24
ENDBRANCH   2  16
TORSDOF 5
ENDMDL
MODEL 3
REMARK VINA RESULT:      -8.3      0.907      1.280
REMARK  Name = 
REMARK  5 active torsions:
REMARK  status: ('A' for Active; 'I' for Inactive)
REMARK    1  A    between atoms: O_1  and  C_2
REMARK    2  A    between atoms: C_3  and  C_4
REMARK    3  A    between atoms: C_4  and  C_5
REMARK    4  A    between atoms: C_4  and  N_12
REMARK    5  A    between atoms: C_21  and  C_22
REMARK                            x       y       z     vdW  Elec       q    Type
REMARK                         _______ _______ _______ _____ _____    ______ ____
ROOT
ATOM      1  C   UNL     1       2.368   6.643  20.112  0.00  0.00    +0.000 A 
ATOM      2  C   UNL     1       3.011   6.567  18.913  0.00  0.00    +0.000 A 
ATOM      3  S   UNL     1       2.619   8.044  17.903  0.00  0.00    +0.000 S 
ATOM      4  C   UNL     1       1.668   8.668  19.198  0.00  0.00    +0.000 A 
ATOM      5  N   UNL     1       0.981   9.755  19.394  0.00  0.00    +0.000 NA
ATOM      6  C   UNL     1       0.551   9.570  20.696  0.00  0.00    +0.000 A 
ATOM      7  N   UNL     1       0.931   8.407  21.264  0.00  0.00    +0.000 NA
ATOM      8  N   UNL     1       1.646   7.833  20.270  0.00  0.00    +0.000 N 
ENDROOT
BRANCH   6   9
ATOM      9  C   UNL     1      -0.264  10.599  21.422  0.00  0.00    +0.000 A 
ATOM     10  C   UNL     1      -0.632  10.553  22.756  0.00  0.00    +0.000 A 
ATOM     11  C   UNL     1      -1.389  11.722  23.018  0.00  0.00    +0.000 A 
ATOM     12  C   UNL     1      -1.447  12.410  21.835  0.00  0.00    +0.000 A 
ATOM     13  O   UNL     1      -0.759  11.752  20.865  0.00  0.00    +0.000 OA
ENDBRANCH   6   9
BRANCH   1  14
ATOM     14  O   UNL     1       2.369   5.731  21.136  0.00  0.00    +0.000 OA
ATOM     15  H   UNL     1       2.770   4.898  20.828  0.00  0.00    +0.000 HD
ENDBRANCH   1  14
BRANCH   2  16
ATOM     16  C   UNL     1       4.041   5.597  18.291  0.00  0.00    +0.000 C 
BRANCH  16  17
ATOM     17  C   UNL     1       3.713   4.112  18.511  0.00  0.00    +0.000 A 
ATOM     18  C   UNL     1       4.551   3.341  19.345  0.00  0.00    +0.000 A 
ATOM     19  C   UNL     1       4.429   1.949  19.402  0.00  0.00    +0.000 A 
ATOM     20  C   UNL     1       3.436   1.305  18.670  0.00  0.00    +0.000 A 
ATOM     21  C   UNL     1       2.578   2.050  17.869  0.00  0.00    +0.000 A 
ATOM     22  C   UNL     1       2.740   3.431  17.773  0.00  0.00    +0.000 A 
ATOM     23  F   UNL     1       1.986   4.082  16.879  0.00  0.00    +0.000 F 
ENDBRANCH  16  17
BRANCH  16  24
ATOM     24  N   UNL     1       4.490   5.842  16.885  0.00  0.00    +0.000 NA
ATOM     25  C   UNL     1       5.355   4.727  16.369  0.00  0.00    +0.000 C 
ATOM     26  C   UNL     1       6.742   4.640  17.040  0.00  0.00    +0.000 C 
ATOM     27  O   UNL     1       7.462   5.867  16.894  0.00  0.00    +0.000 OA
ATOM     28  C   UNL     1       6.709   6.994  17.364  0.00  0.00    +0.000 C 
ATOM     29  C   UNL     1       5.314   7.065  16.717  0.00  0.00    +0.000 C 
ENDBRANCH  16  24
ENDBRANCH   2  16
TORSDOF 5
ENDMDL
MODEL 4
REMARK VINA RESULT:      -8.3      1.316      1.485
REMARK  Name = 
REMARK  5 active torsions:
REMARK  status: ('A' for Active; 'I' for Inactive)
REMARK    1  A    between atoms: O_1  and  C_2
REMARK    2  A    between atoms: C_3  and  C_4
REMARK    3  A    between atoms: C_4  and  C_5
REMARK    4  A    between atoms: C_4  and  N_12
REMARK    5  A    between atoms: C_21  and  C_22
REMARK                            x       y       z     vdW  Elec       q    Type
REMARK                         _______ _______ _______ _____ _____    ______ ____
ROOT
ATOM      1  C   UNL     1       2.476   7.970  18.444  0.00  0.00    +0.000 A 
ATOM      2  C   UNL     1       2.987   6.776  18.858  0.00  0.00    +0.000 A 
ATOM      3  S   UNL     1       2.484   6.451  20.589  0.00  0.00    +0.000 S 
ATOM      4  C   UNL     1       1.582   7.920  20.595  0.00  0.00    +0.000 A 
ATOM      5  N   UNL     1       0.828   8.533  21.460  0.00  0.00    +0.000 NA
ATOM      6  C   UNL     1       0.404   9.623  20.721  0.00  0.00    +0.000 A 
ATOM      7  N   UNL     1       0.900   9.693  19.468  0.00  0.00    +0.000 NA
ATOM      8  N   UNL     1       1.671   8.584  19.412  0.00  0.00    +0.000 N 
ENDROOT
BRANCH   6   9
ATOM      9  C   UNL     1      -0.551  10.639  21.273  0.00  0.00    +0.000 A 
ATOM     10  C   UNL     1      -0.838  10.844  22.611  0.00  0.00    +0.000 A 
ATOM     11  C   UNL     1      -1.786  11.896  22.676  0.00  0.00    +0.000 A 
ATOM     12  C   UNL     1      -2.029  12.268  21.381  0.00  0.00    +0.000 A 
ATOM     13  O   UNL     1      -1.279  11.529  20.522  0.00  0.00    +0.000 OA
ENDBRANCH   6   9
BRANCH   1  14
ATOM     14  O   UNL     1       2.644   8.593  17.234  0.00  0.00    +0.000 OA
ATOM     15  H   UNL     1       2.088   8.156  16.564  0.00  0.00    +0.000 HD
ENDBRANCH   1  14
BRANCH   2  16
ATOM     16  C   UNL     1       3.775   5.635  18.175  0.00  0.00    +0.000 C 
BRANCH  16  17
ATOM     17  C   UNL     1       3.131   4.249  18.334  0.00  0.00    +0.000 A 
ATOM     18  C   UNL     1       1.809   4.051  17.882  0.00  0.00    +0.000 A 
ATOM     19  C   UNL     1       1.104   2.886  18.200  0.00  0.00    +0.000 A 
ATOM     20  C   UNL     1       1.722   1.874  18.929  0.00  0.00    +0.000 A 
ATOM     21  C   UNL     1       3.036   2.035  19.355  0.00  0.00    +0.000 A 
ATOM     22  C   UNL     1       3.714   3.222  19.083  0.00  0.00    +0.000 A 
ATOM     23  F   UNL     1       4.921   3.386  19.637  0.00  0.00    +0.000 F 
ENDBRANCH  16  17
BRANCH  16  24
ATOM     24  N   UNL     1       4.257   5.843  16.774  0.00  0.00    +0.000 NA
ATOM     25  C   UNL     1       5.015   4.653  16.257  0.00  0.00    +0.000 C 
ATOM     26  C   UNL     1       6.381   4.430  16.938  0.00  0.00    +0.000 C 
ATOM     27  O   UNL     1       7.218   5.582  16.804  0.00  0.00    +0.000 OA
ATOM     28  C   UNL     1       6.572   6.773  17.275  0.00  0.00    +0.000 C 
ATOM     29  C   UNL     1       5.196   6.982  16.618  0.00  0.00    +0.000 C 
ENDBRANCH  16  24
ENDBRANCH   2  16
TORSDOF 5
ENDMDL
MODEL 5
REMARK VINA RESULT:      -8.2      1.928      3.586
REMARK  Name = 
REMARK  5 active torsions:
REMARK  status: ('A' for Active; 'I' for Inactive)
REMARK    1  A    between atoms: O_1  and  C_2
REMARK    2  A    between atoms: C_3  and  C_4
REMARK    3  A    between atoms: C_4  and  C_5
REMARK    4  A    between atoms: C_4  and  N_12
REMARK    5  A    between atoms: C_21  and  C_22
REMARK                            x       y       z     vdW  Elec       q    Type
REMARK                         _______ _______ _______ _____ _____    ______ ____
ROOT
ATOM      1  C   UNL     1       2.232   6.501  20.384  0.00  0.00    +0.000 A 
ATOM      2  C   UNL     1       2.775   6.251  19.159  0.00  0.00    +0.000 A 
ATOM      3  S   UNL     1       2.480   7.675  18.045  0.00  0.00    +0.000 S 
ATOM      4  C   UNL     1       1.700   8.513  19.334  0.00  0.00    +0.000 A 
ATOM      5  N   UNL     1       1.155   9.685  19.471  0.00  0.00    +0.000 NA
ATOM      6  C   UNL     1       0.801   9.661  20.809  0.00  0.00    +0.000 A 
ATOM      7  N   UNL     1       1.088   8.513  21.456  0.00  0.00    +0.000 NA
ATOM      8  N   UNL     1       1.661   7.777  20.477  0.00  0.00    +0.000 N 
ENDROOT
BRANCH   6   9
ATOM      9  C   UNL     1       0.160  10.835  21.487  0.00  0.00    +0.000 A 
ATOM     10  C   UNL     1      -0.746  10.778  22.531  0.00  0.00    +0.000 A 
ATOM     11  C   UNL     1      -1.087  12.113  22.860  0.00  0.00    +0.000 A 
ATOM     12  C   UNL     1      -0.379  12.908  21.998  0.00  0.00    +0.000 A 
ATOM     13  O   UNL     1       0.391  12.152  21.173  0.00  0.00    +0.000 OA
ENDBRANCH   6   9
BRANCH   1  14
ATOM     14  O   UNL     1       2.203   5.684  21.484  0.00  0.00    +0.000 OA
ATOM     15  H   UNL     1       2.682   6.110  22.217  0.00  0.00    +0.000 HD
ENDBRANCH   1  14
BRANCH   2  16
ATOM     16  C   UNL     1       3.643   5.118  18.566  0.00  0.00    +0.000 C 
BRANCH  16  17
ATOM     17  C   UNL     1       5.106   5.517  18.319  0.00  0.00    +0.000 A 
ATOM     18  C   UNL     1       6.042   5.376  19.366  0.00  0.00    +0.000 A 
ATOM     19  C   UNL     1       7.323   5.926  19.268  0.00  0.00    +0.000 A 
ATOM     20  C   UNL     1       7.714   6.580  18.104  0.00  0.00    +0.000 A 
ATOM     21  C   UNL     1       6.819   6.700  17.047  0.00  0.00    +0.000 A 
ATOM     22  C   UNL     1       5.525   6.199  17.172  0.00  0.00    +0.000 A 
ATOM     23  F   UNL     1       4.659   6.468  16.188  0.00  0.00    +0.000 F 
ENDBRANCH  16  17
BRANCH  16  24
ATOM     24  N   UNL     1       3.557   3.758  19.183  0.00  0.00    +0.000 NA
ATOM     25  C   UNL     1       4.013   2.682  18.239  0.00  0.00    +0.000 C 
ATOM     26  C   UNL     1       3.068   2.450  17.041  0.00  0.00    +0.000 C 
ATOM     27  O   UNL     1       1.747   2.124  17.483  0.00  0.00    +0.000 OA
ATOM     28  C   UNL     1       1.227   3.102  18.394  0.00  0.00    +0.000 C 
ATOM     29  C   UNL     1       2.182   3.356  19.574  0.00  0.00    +0.000 C 
ENDBRANCH  16  24
ENDBRANCH   2  16
TORSDOF 5
ENDMDL
MODEL 6
REMARK VINA RESULT:      -8.1      2.442      4.096
REMARK  Name = 
REMARK  5 active torsions:
REMARK  status: ('A' for Active; 'I' for Inactive)
REMARK    1  A    between atoms: O_1  and  C_2
REMARK    2  A    between atoms: C_3  and  C_4
REMARK    3  A    between atoms: C_4  and  C_5
REMARK    4  A    between atoms: C_4  and  N_12
REMARK    5  A    between atoms: C_21  and  C_22
REMARK                            x       y       z     vdW  Elec       q    Type
REMARK                         _______ _______ _______ _____ _____    ______ ____
ROOT
ATOM      1  C   UNL     1       2.893   7.439  18.155  0.00  0.00    +0.000 A 
ATOM      2  C   UNL     1       2.889   6.372  19.002  0.00  0.00    +0.000 A 
ATOM      3  S   UNL     1       1.940   6.783  20.514  0.00  0.00    +0.000 S 
ATOM      4  C   UNL     1       1.581   8.336  19.859  0.00  0.00    +0.000 A 
ATOM      5  N   UNL     1       0.894   9.366  20.257  0.00  0.00    +0.000 NA
ATOM      6  C   UNL     1       1.016  10.208  19.167  0.00  0.00    +0.000 A 
ATOM      7  N   UNL     1       1.771   9.729  18.156  0.00  0.00    +0.000 NA
ATOM      8  N   UNL     1       2.137   8.517  18.632  0.00  0.00    +0.000 N 
ENDROOT
BRANCH   6   9
ATOM      9  C   UNL     1       0.342  11.546  19.111  0.00  0.00    +0.000 A 
ATOM     10  C   UNL     1       0.879  12.707  18.582  0.00  0.00    +0.000 A 
ATOM     11  C   UNL     1      -0.095  13.724  18.737  0.00  0.00    +0.000 A 
ATOM     12  C   UNL     1      -1.165  13.133  19.355  0.00  0.00    +0.000 A 
ATOM     13  O   UNL     1      -0.923  11.814  19.573  0.00  0.00    +0.000 OA
ENDBRANCH   6   9
BRANCH   1  14
ATOM     14  O   UNL     1       3.515   7.556  16.938  0.00  0.00    +0.000 OA
ATOM     15  H   UNL     1       2.851   7.753  16.253  0.00  0.00    +0.000 HD
ENDBRANCH   1  14
BRANCH   2  16
ATOM     16  C   UNL     1       3.397   4.915  18.918  0.00  0.00    +0.000 C 
BRANCH  16  17
ATOM     17  C   UNL     1       4.856   4.789  18.452  0.00  0.00    +0.000 A 
ATOM     18  C   UNL     1       5.885   5.301  19.271  0.00  0.00    +0.000 A 
ATOM     19  C   UNL     1       7.196   5.412  18.799  0.00  0.00    +0.000 A 
ATOM     20  C   UNL     1       7.517   4.964  17.521  0.00  0.00    +0.000 A 
ATOM     21  C   UNL     1       6.525   4.424  16.710  0.00  0.00    +0.000 A 
ATOM     22  C   UNL     1       5.209   4.368  17.166  0.00  0.00    +0.000 A 
ATOM     23  F   UNL     1       4.270   3.977  16.297  0.00  0.00    +0.000 F 
ENDBRANCH  16  17
BRANCH  16  24
ATOM     24  N   UNL     1       3.122   3.998  20.068  0.00  0.00    +0.000 NA
ATOM     25  C   UNL     1       3.713   2.633  19.852  0.00  0.00    +0.000 C 
ATOM     26  C   UNL     1       3.027   1.816  18.738  0.00  0.00    +0.000 C 
ATOM     27  O   UNL     1       1.629   1.659  19.001  0.00  0.00    +0.000 OA
ATOM     28  C   UNL     1       0.978   2.918  19.220  0.00  0.00    +0.000 C 
ATOM     29  C   UNL     1       1.679   3.748  20.311  0.00  0.00    +0.000 C 
ENDBRANCH  16  24
ENDBRANCH   2  16
TORSDOF 5
ENDMDL
MODEL 7
REMARK VINA RESULT:      -8.1      2.191      3.576
REMARK  Name = 
REMARK  5 active torsions:
REMARK  status: ('A' for Active; 'I' for Inactive)
REMARK    1  A    between atoms: O_1  and  C_2
REMARK    2  A    between atoms: C_3  and  C_4
REMARK    3  A    between atoms: C_4  and  C_5
REMARK    4  A    between atoms: C_4  and  N_12
REMARK    5  A    between atoms: C_21  and  C_22
REMARK                            x       y       z     vdW  Elec       q    Type
REMARK                         _______ _______ _______ _____ _____    ______ ____
ROOT
ATOM      1  C   UNL     1       2.146   6.798  19.952  0.00  0.00    +0.000 A 
ATOM      2  C   UNL     1       2.699   6.201  18.859  0.00  0.00    +0.000 A 
ATOM      3  S   UNL     1       2.724   7.376  17.454  0.00  0.00    +0.000 S 
ATOM      4  C   UNL     1       2.039   8.591  18.467  0.00  0.00    +0.000 A 
ATOM      5  N   UNL     1       1.707   9.839  18.311  0.00  0.00    +0.000 NA
ATOM      6  C   UNL     1       1.283  10.165  19.587  0.00  0.00    +0.000 A 
ATOM      7  N   UNL     1       1.325   9.154  20.480  0.00  0.00    +0.000 NA
ATOM      8  N   UNL     1       1.809   8.139  19.729  0.00  0.00    +0.000 N 
ENDROOT
BRANCH   6   9
ATOM      9  C   UNL     1       0.829  11.548  19.949  0.00  0.00    +0.000 A 
ATOM     10  C   UNL     1       0.100  12.403  19.140  0.00  0.00    +0.000 A 
ATOM     11  C   UNL     1      -0.109  13.594  19.878  0.00  0.00    +0.000 A 
ATOM     12  C   UNL     1       0.505  13.405  21.087  0.00  0.00    +0.000 A 
ATOM     13  O   UNL     1       1.062  12.167  21.152  0.00  0.00    +0.000 OA
ENDBRANCH   6   9
BRANCH   1  14
ATOM     14  O   UNL     1       1.912   6.256  21.190  0.00  0.00    +0.000 OA
ATOM     15  H   UNL     1       2.395   5.414  21.271  0.00  0.00    +0.000 HD
ENDBRANCH   1  14
BRANCH   2  16
ATOM     16  C   UNL     1       3.380   4.840  18.592  0.00  0.00    +0.000 C 
BRANCH  16  17
ATOM     17  C   UNL     1       4.719   4.947  17.846  0.00  0.00    +0.000 A 
ATOM     18  C   UNL     1       4.804   4.478  16.518  0.00  0.00    +0.000 A 
ATOM     19  C   UNL     1       6.038   4.348  15.875  0.00  0.00    +0.000 A 
ATOM     20  C   UNL     1       7.207   4.733  16.526  0.00  0.00    +0.000 A 
ATOM     21  C   UNL     1       7.142   5.230  17.823  0.00  0.00    +0.000 A 
ATOM     22  C   UNL     1       5.914   5.304  18.478  0.00  0.00    +0.000 A 
ATOM     23  F   UNL     1       5.923   5.649  19.771  0.00  0.00    +0.000 F 
ENDBRANCH  16  17
BRANCH  16  24
ATOM     24  N   UNL     1       3.473   3.858  19.717  0.00  0.00    +0.000 NA
ATOM     25  C   UNL     1       4.089   2.559  19.281  0.00  0.00    +0.000 C 
ATOM     26  C   UNL     1       3.206   1.729  18.325  0.00  0.00    +0.000 C 
ATOM     27  O   UNL     1       1.936   1.442  18.917  0.00  0.00    +0.000 OA
ATOM     28  C   UNL     1       1.270   2.630  19.366  0.00  0.00    +0.000 C 
ATOM     29  C   UNL     1       2.160   3.474  20.296  0.00  0.00    +0.000 C 
ENDBRANCH  16  24
ENDBRANCH   2  16
TORSDOF 5
ENDMDL
MODEL 8
REMARK VINA RESULT:      -8.0      1.818      3.362
REMARK  Name = 
REMARK  5 active torsions:
REMARK  status: ('A' for Active; 'I' for Inactive)
REMARK    1  A    between atoms: O_1  and  C_2
REMARK    2  A    between atoms: C_3  and  C_4
REMARK    3  A    between atoms: C_4  and  C_5
REMARK    4  A    between atoms: C_4  and  N_12
REMARK    5  A    between atoms: C_21  and  C_22
REMARK                            x       y       z     vdW  Elec       q    Type
REMARK                         _______ _______ _______ _____ _____    ______ ____
ROOT
ATOM      1  C   UNL     1       2.112   6.670  20.226  0.00  0.00    +0.000 A 
ATOM      2  C   UNL     1       2.590   6.321  18.998  0.00  0.00    +0.000 A 
ATOM      3  S   UNL     1       2.360   7.709  17.825  0.00  0.00    +0.000 S 
ATOM      4  C   UNL     1       1.691   8.663  19.095  0.00  0.00    +0.000 A 
ATOM      5  N   UNL     1       1.239   9.879  19.191  0.00  0.00    +0.000 NA
ATOM      6  C   UNL     1       0.933   9.945  20.539  0.00  0.00    +0.000 A 
ATOM      7  N   UNL     1       1.159   8.810  21.233  0.00  0.00    +0.000 NA
ATOM      8  N   UNL     1       1.640   7.988  20.273  0.00  0.00    +0.000 N 
ENDROOT
BRANCH   6   9
ATOM      9  C   UNL     1       0.406  11.195  21.178  0.00  0.00    +0.000 A 
ATOM     10  C   UNL     1      -0.517  11.256  22.208  0.00  0.00    +0.000 A 
ATOM     11  C   UNL     1      -0.724  12.627  22.499  0.00  0.00    +0.000 A 
ATOM     12  C   UNL     1       0.075  13.324  21.632  0.00  0.00    +0.000 A 
ATOM     13  O   UNL     1       0.776  12.473  20.838  0.00  0.00    +0.000 OA
ENDBRANCH   6   9
BRANCH   1  14
ATOM     14  O   UNL     1       2.063   5.910  21.366  0.00  0.00    +0.000 OA
ATOM     15  H   UNL     1       1.318   5.285  21.307  0.00  0.00    +0.000 HD
ENDBRANCH   1  14
BRANCH   2  16
ATOM     16  C   UNL     1       3.350   5.100  18.434  0.00  0.00    +0.000 C 
BRANCH  16  17
ATOM     17  C   UNL     1       4.690   5.451  17.769  0.00  0.00    +0.000 A 
ATOM     18  C   UNL     1       4.802   5.366  16.365  0.00  0.00    +0.000 A 
ATOM     19  C   UNL     1       6.046   5.457  15.733  0.00  0.00    +0.000 A 
ATOM     20  C   UNL     1       7.195   5.687  16.485  0.00  0.00    +0.000 A 
ATOM     21  C   UNL     1       7.102   5.808  17.867  0.00  0.00    +0.000 A 
ATOM     22  C   UNL     1       5.867   5.660  18.496  0.00  0.00    +0.000 A 
ATOM     23  F   UNL     1       5.852   5.639  19.833  0.00  0.00    +0.000 F 
ENDBRANCH  16  17
BRANCH  16  24
ATOM     24  N   UNL     1       3.483   3.884  19.296  0.00  0.00    +0.000 NA
ATOM     25  C   UNL     1       3.986   2.698  18.523  0.00  0.00    +0.000 C 
ATOM     26  C   UNL     1       2.979   2.140  17.495  0.00  0.00    +0.000 C 
ATOM     27  O   UNL     1       1.750   1.771  18.127  0.00  0.00    +0.000 OA
ATOM     28  C   UNL     1       1.193   2.849  18.893  0.00  0.00    +0.000 C 
ATOM     29  C   UNL     1       2.206   3.426  19.898  0.00  0.00    +0.000 C 
ENDBRANCH  16  24
ENDBRANCH   2  16
TORSDOF 5
ENDMDL
MODEL 9
REMARK VINA RESULT:      -7.9      1.873      2.276
REMARK  Name = 
REMARK  5 active torsions:
REMARK  status: ('A' for Active; 'I' for Inactive)
REMARK    1  A    between atoms: O_1  and  C_2
REMARK    2  A    between atoms: C_3  and  C_4
REMARK    3  A    between atoms: C_4  and  C_5
REMARK    4  A    between atoms: C_4  and  N_12
REMARK    5  A    between atoms: C_21  and  C_22
REMARK                            x       y       z     vdW  Elec       q    Type
REMARK                         _______ _______ _______ _____ _____    ______ ____
ROOT
ATOM      1  C   UNL     1       2.166   8.321  18.410  0.00  0.00    +0.000 A 
ATOM      2  C   UNL     1       2.592   7.178  19.017  0.00  0.00    +0.000 A 
ATOM      3  S   UNL     1       1.961   7.114  20.735  0.00  0.00    +0.000 S 
ATOM      4  C   UNL     1       1.130   8.602  20.478  0.00  0.00    +0.000 A 
ATOM      5  N   UNL     1       0.349   9.355  21.196  0.00  0.00    +0.000 NA
ATOM      6  C   UNL     1       0.026  10.348  20.288  0.00  0.00    +0.000 A 
ATOM      7  N   UNL     1       0.606  10.226  19.076  0.00  0.00    +0.000 NA
ATOM      8  N   UNL     1       1.328   9.092  19.226  0.00  0.00    +0.000 N 
ENDROOT
BRANCH   6   9
ATOM      9  C   UNL     1      -0.916  11.465  20.627  0.00  0.00    +0.000 A 
ATOM     10  C   UNL     1      -1.162  11.966  21.893  0.00  0.00    +0.000 A 
ATOM     11  C   UNL     1      -2.111  13.008  21.750  0.00  0.00    +0.000 A 
ATOM     12  C   UNL     1      -2.395  13.082  20.413  0.00  0.00    +0.000 A 
ATOM     13  O   UNL     1      -1.669  12.167  19.718  0.00  0.00    +0.000 OA
ENDBRANCH   6   9
BRANCH   1  14
ATOM     14  O   UNL     1       2.442   8.764  17.142  0.00  0.00    +0.000 OA
ATOM     15  H   UNL     1       2.193   8.078  16.497  0.00  0.00    +0.000 HD
ENDBRANCH   1  14
BRANCH   2  16
ATOM     16  C   UNL     1       3.370   5.926  18.553  0.00  0.00    +0.000 C 
BRANCH  16  17
ATOM     17  C   UNL     1       2.701   4.597  18.939  0.00  0.00    +0.000 A 
ATOM     18  C   UNL     1       3.324   3.768  19.897  0.00  0.00    +0.000 A 
ATOM     19  C   UNL     1       2.880   2.461  20.119  0.00  0.00    +0.000 A 
ATOM     20  C   UNL     1       1.774   1.974  19.428  0.00  0.00    +0.000 A 
ATOM     21  C   UNL     1       1.125   2.786  18.505  0.00  0.00    +0.000 A 
ATOM     22  C   UNL     1       1.607   4.068  18.247  0.00  0.00    +0.000 A 
ATOM     23  F   UNL     1       1.038   4.754  17.249  0.00  0.00    +0.000 F 
ENDBRANCH  16  17
BRANCH  16  24
ATOM     24  N   UNL     1       3.872   5.881  17.145  0.00  0.00    +0.000 NA
ATOM     25  C   UNL     1       4.584   4.593  16.841  0.00  0.00    +0.000 C 
ATOM     26  C   UNL     1       5.933   4.429  17.571  0.00  0.00    +0.000 C 
ATOM     27  O   UNL     1       6.819   5.509  17.265  0.00  0.00    +0.000 OA
ATOM     28  C   UNL     1       6.221   6.787  17.525  0.00  0.00    +0.000 C 
ATOM     29  C   UNL     1       4.861   6.941  16.821  0.00  0.00    +0.000 C 
ENDBRANCH  16  24
ENDBRANCH   2  16
TORSDOF 5
ENDMDL
