MODEL 1
REMARK VINA RESULT:      -7.5      0.000      0.000
REMARK  Name = 
REMARK  10 active torsions:
REMARK  status: ('A' for Active; 'I' for Inactive)
REMARK    1  A    between atoms: C_1  and  O_2
REMARK    2  A    between atoms: O_2  and  C_3
REMARK    3  A    between atoms: C_5  and  C_6
REMARK    4  A    between atoms: C_10  and  C_11
REMARK    5  A    between atoms: C_14  and  N_15
REMARK    6  A    between atoms: C_23  and  C_24
REMARK    7  A    between atoms: C_29  and  O_30
REMARK    8  A    between atoms: O_30  and  C_31
REMARK    9  A    between atoms: C_32  and  O_33
REMARK   10  A    between atoms: O_33  and  C_34
REMARK                            x       y       z     vdW  Elec       q    Type
REMARK                         _______ _______ _______ _____ _____    ______ ____
ROOT
ATOM      1  C   UNL     1       2.031   8.085  18.803  0.00  0.00    +0.000 A 
ATOM      2  C   UNL     1       2.303   8.835  17.654  0.00  0.00    +0.000 A 
ATOM      3  N   UNL     1       1.869  10.086  17.425  0.00  0.00    +0.000 NA
ATOM      4  C   UNL     1       1.137  10.659  18.400  0.00  0.00    +0.000 A 
ATOM      5  C   UNL     1       0.769  10.061  19.608  0.00  0.00    +0.000 A 
ATOM      6  C   UNL     1       1.189   8.710  19.792  0.00  0.00    +0.000 A 
ENDROOT
BRANCH   1   9
ATOM      7  C   UNL     1       2.367   4.318  18.368  0.00  0.00    +0.000 A 
ATOM      8  C   UNL     1       1.808   5.593  18.541  0.00  0.00    +0.000 A 
ATOM      9  C   UNL     1       2.571   6.708  18.916  0.00  0.00    +0.000 A 
ATOM     10  C   UNL     1       3.869   6.457  19.373  0.00  0.00    +0.000 A 
ATOM     11  C   UNL     1       4.438   5.178  19.292  0.00  0.00    +0.000 A 
ATOM     12  C   UNL     1       3.714   4.104  18.735  0.00  0.00    +0.000 A 
BRANCH   7  14
ATOM     13  C   UNL     1       0.829   2.475  18.743  0.00  0.00    +0.000 C 
ATOM     14  O   UNL     1       1.641   3.267  17.872  0.00  0.00    +0.000 OA
ENDBRANCH   7  14
BRANCH  11  15
ATOM     15  O   UNL     1       5.696   5.136  19.845  0.00  0.00    +0.000 OA
ATOM     16  C   UNL     1       6.782   5.515  19.011  0.00  0.00    +0.000 C 
ENDBRANCH  11  15
BRANCH  12  17
ATOM     17  O   UNL     1       4.389   2.912  18.670  0.00  0.00    +0.000 OA
ATOM     18  C   UNL     1       4.389   2.030  19.783  0.00  0.00    +0.000 C 
ENDBRANCH  12  17
ENDBRANCH   1   9
BRANCH   5  19
ATOM     19  C   UNL     1      -0.038  10.857  20.577  0.00  0.00    +0.000 A 
ATOM     20  C   UNL     1      -1.220  11.504  20.182  0.00  0.00    +0.000 A 
ATOM     21  C   UNL     1      -2.012  12.221  21.091  0.00  0.00    +0.000 A 
ATOM     22  C   UNL     1      -1.698  12.280  22.456  0.00  0.00    +0.000 A 
ATOM     23  C   UNL     1      -0.511  11.664  22.845  0.00  0.00    +0.000 A 
ATOM     24  C   UNL     1       0.328  11.016  21.923  0.00  0.00    +0.000 A 
BRANCH  22  25
ATOM     25  N   UNL     1      -2.550  12.888  23.352  0.00  0.00    +0.000 N 
ATOM     26  C   UNL     1      -2.422  14.302  23.728  0.00  0.00    +0.000 C 
ATOM     27  C   UNL     1      -3.607  15.134  23.192  0.00  0.00    +0.000 C 
ATOM     28  N   UNL     1      -4.916  14.587  23.584  0.00  0.00    +0.000 NA
ATOM     29  C   UNL     1      -5.012  13.178  23.136  0.00  0.00    +0.000 C 
ATOM     30  C   UNL     1      -3.855  12.282  23.660  0.00  0.00    +0.000 C 
ATOM     31  H   UNL     1      -5.658  15.128  23.131  0.00  0.00    +0.000 HD
ENDBRANCH  22  25
ENDBRANCH   5  19
BRANCH   6  32
ATOM     32  C   UNL     1       0.744   7.943  21.030  0.00  0.00    +0.000 C 
ATOM     33  F   UNL     1       0.889   6.587  20.970  0.00  0.00    +0.000 F 
ATOM     34  F   UNL     1       1.441   8.330  22.142  0.00  0.00    +0.000 F 
ATOM     35  F   UNL     1      -0.572   8.093  21.341  0.00  0.00    +0.000 F 
ENDBRANCH   6  32
TORSDOF 7
ENDMDL
MODEL 2
REMARK VINA RESULT:      -7.5      1.335      1.906
REMARK  Name = 
REMARK  10 active torsions:
REMARK  status: ('A' for Active; 'I' for Inactive)
REMARK    1  A    between atoms: C_1  and  O_2
REMARK    2  A    between atoms: O_2  and  C_3
REMARK    3  A    between atoms: C_5  and  C_6
REMARK    4  A    between atoms: C_10  and  C_11
REMARK    5  A    between atoms: C_14  and  N_15
REMARK    6  A    between atoms: C_23  and  C_24
REMARK    7  A    between atoms: C_29  and  O_30
REMARK    8  A    between atoms: O_30  and  C_31
REMARK    9  A    between atoms: C_32  and  O_33
REMARK   10  A    between atoms: O_33  and  C_34
REMARK                            x       y       z     vdW  Elec       q    Type
REMARK                         _______ _______ _______ _____ _____    ______ ____
ROOT
ATOM      1  C   UNL     1       2.275   7.675  18.993  0.00  0.00    +0.000 A 
ATOM      2  C   UNL     1       2.540   8.144  17.702  0.00  0.00    +0.000 A 
ATOM      3  N   UNL     1       2.169   9.343  17.222  0.00  0.00    +0.000 NA
ATOM      4  C   UNL     1       1.514  10.156  18.072  0.00  0.00    +0.000 A 
ATOM      5  C   UNL     1       1.165   9.855  19.392  0.00  0.00    +0.000 A 
ATOM      6  C   UNL     1       1.514   8.549  19.849  0.00  0.00    +0.000 A 
ENDROOT
BRANCH   1   9
ATOM      7  C   UNL     1       2.184   4.009  20.016  0.00  0.00    +0.000 A 
ATOM      8  C   UNL     1       1.852   5.367  19.900  0.00  0.00    +0.000 A 
ATOM      9  C   UNL     1       2.740   6.321  19.384  0.00  0.00    +0.000 A 
ATOM     10  C   UNL     1       4.072   5.923  19.231  0.00  0.00    +0.000 A 
ATOM     11  C   UNL     1       4.461   4.588  19.415  0.00  0.00    +0.000 A 
ATOM     12  C   UNL     1       3.512   3.603  19.755  0.00  0.00    +0.000 A 
BRANCH   7  14
ATOM     13  C   UNL     1       1.266   2.552  21.730  0.00  0.00    +0.000 C 
ATOM     14  O   UNL     1       1.266   3.065  20.395  0.00  0.00    +0.000 OA
ENDBRANCH   7  14
BRANCH  11  15
ATOM     15  O   UNL     1       5.819   4.422  19.272  0.00  0.00    +0.000 OA
ATOM     16  C   UNL     1       6.605   5.599  19.150  0.00  0.00    +0.000 C 
ENDBRANCH  11  15
BRANCH  12  17
ATOM     17  O   UNL     1       4.003   2.328  19.867  0.00  0.00    +0.000 OA
ATOM     18  C   UNL     1       3.846   1.406  18.799  0.00  0.00    +0.000 C 
ENDBRANCH  12  17
ENDBRANCH   1   9
BRANCH   5  19
ATOM     19  C   UNL     1       0.447  10.889  20.190  0.00  0.00    +0.000 A 
ATOM     20  C   UNL     1       1.140  11.937  20.818  0.00  0.00    +0.000 A 
ATOM     21  C   UNL     1       0.474  12.940  21.537  0.00  0.00    +0.000 A 
ATOM     22  C   UNL     1      -0.924  12.985  21.618  0.00  0.00    +0.000 A 
ATOM     23  C   UNL     1      -1.613  11.932  21.022  0.00  0.00    +0.000 A 
ATOM     24  C   UNL     1      -0.946  10.881  20.371  0.00  0.00    +0.000 A 
BRANCH  22  25
ATOM     25  N   UNL     1      -1.564  14.043  22.228  0.00  0.00    +0.000 N 
ATOM     26  C   UNL     1      -3.009  14.044  22.492  0.00  0.00    +0.000 C 
ATOM     27  C   UNL     1      -3.301  13.973  24.007  0.00  0.00    +0.000 C 
ATOM     28  N   UNL     1      -2.610  15.022  24.775  0.00  0.00    +0.000 NA
ATOM     29  C   UNL     1      -1.154  14.942  24.512  0.00  0.00    +0.000 C 
ATOM     30  C   UNL     1      -0.792  15.027  23.003  0.00  0.00    +0.000 C 
ATOM     31  H   UNL     1      -2.773  14.872  25.774  0.00  0.00    +0.000 HD
ENDBRANCH  22  25
ENDBRANCH   5  19
BRANCH   6  32
ATOM     32  C   UNL     1       1.080   8.094  21.236  0.00  0.00    +0.000 C 
ATOM     33  F   UNL     1       1.315   8.977  22.249  0.00  0.00    +0.000 F 
ATOM     34  F   UNL     1      -0.262   7.838  21.287  0.00  0.00    +0.000 F 
ATOM     35  F   UNL     1       1.695   6.961  21.673  0.00  0.00    +0.000 F 
ENDBRANCH   6  32
TORSDOF 7
ENDMDL
MODEL 3
REMARK VINA RESULT:      -7.4      0.591      2.416
REMARK  Name = 
REMARK  10 active torsions:
REMARK  status: ('A' for Active; 'I' for Inactive)
REMARK    1  A    between atoms: C_1  and  O_2
REMARK    2  A    between atoms: O_2  and  C_3
REMARK    3  A    between atoms: C_5  and  C_6
REMARK    4  A    between atoms: C_10  and  C_11
REMARK    5  A    between atoms: C_14  and  N_15
REMARK    6  A    between atoms: C_23  and  C_24
REMARK    7  A    between atoms: C_29  and  O_30
REMARK    8  A    between atoms: O_30  and  C_31
REMARK    9  A    between atoms: C_32  and  O_33
REMARK   10  A    between atoms: O_33  and  C_34
REMARK                            x       y       z     vdW  Elec       q    Type
REMARK                         _______ _______ _______ _____ _____    ______ ____
ROOT
ATOM      1  C   UNL     1       2.345   7.811  18.614  0.00  0.00    +0.000 A 
ATOM      2  C   UNL     1       2.554   8.620  17.494  0.00  0.00    +0.000 A 
ATOM      3  N   UNL     1       2.031   9.845  17.314  0.00  0.00    +0.000 NA
ATOM      4  C   UNL     1       1.269  10.328  18.315  0.00  0.00    +0.000 A 
ATOM      5  C   UNL     1       0.955   9.662  19.502  0.00  0.00    +0.000 A 
ATOM      6  C   UNL     1       1.470   8.338  19.632  0.00  0.00    +0.000 A 
ENDROOT
BRANCH   1   9
ATOM      7  C   UNL     1       4.885   5.077  19.367  0.00  0.00    +0.000 A 
ATOM      8  C   UNL     1       4.327   6.320  19.031  0.00  0.00    +0.000 A 
ATOM      9  C   UNL     1       2.981   6.472  18.672  0.00  0.00    +0.000 A 
ATOM     10  C   UNL     1       2.266   5.301  18.400  0.00  0.00    +0.000 A 
ATOM     11  C   UNL     1       2.817   4.035  18.647  0.00  0.00    +0.000 A 
ATOM     12  C   UNL     1       4.113   3.908  19.187  0.00  0.00    +0.000 A 
BRANCH   7  14
ATOM     13  C   UNL     1       7.242   5.644  19.202  0.00  0.00    +0.000 C 
ATOM     14  O   UNL     1       6.164   4.960  19.845  0.00  0.00    +0.000 OA
ENDBRANCH   7  14
BRANCH  11  15
ATOM     15  O   UNL     1       1.974   3.019  18.259  0.00  0.00    +0.000 OA
ATOM     16  C   UNL     1       0.819   2.799  19.057  0.00  0.00    +0.000 C 
ENDBRANCH  11  15
BRANCH  12  17
ATOM     17  O   UNL     1       4.527   2.623  19.425  0.00  0.00    +0.000 OA
ATOM     18  C   UNL     1       4.361   2.045  20.711  0.00  0.00    +0.000 C 
ENDBRANCH  12  17
ENDBRANCH   1   9
BRANCH   5  19
ATOM     19  C   UNL     1       0.102  10.362  20.505  0.00  0.00    +0.000 A 
ATOM     20  C   UNL     1       0.369  10.267  21.880  0.00  0.00    +0.000 A 
ATOM     21  C   UNL     1      -0.399  10.953  22.833  0.00  0.00    +0.000 A 
ATOM     22  C   UNL     1      -1.437  11.819  22.460  0.00  0.00    +0.000 A 
ATOM     23  C   UNL     1      -1.722  11.892  21.099  0.00  0.00    +0.000 A 
ATOM     24  C   UNL     1      -1.009  11.142  20.148  0.00  0.00    +0.000 A 
BRANCH  22  25
ATOM     25  N   UNL     1      -2.101  12.575  23.401  0.00  0.00    +0.000 N 
ATOM     26  C   UNL     1      -1.720  13.959  23.713  0.00  0.00    +0.000 C 
ATOM     27  C   UNL     1      -2.803  14.956  23.247  0.00  0.00    +0.000 C 
ATOM     28  N   UNL     1      -4.141  14.634  23.766  0.00  0.00    +0.000 NA
ATOM     29  C   UNL     1      -4.496  13.248  23.380  0.00  0.00    +0.000 C 
ATOM     30  C   UNL     1      -3.453  12.192  23.838  0.00  0.00    +0.000 C 
ATOM     31  H   UNL     1      -4.826  15.276  23.357  0.00  0.00    +0.000 HD
ENDBRANCH  22  25
ENDBRANCH   5  19
BRANCH   6  32
ATOM     32  C   UNL     1       1.092   7.495  20.843  0.00  0.00    +0.000 C 
ATOM     33  F   UNL     1       1.347   6.159  20.737  0.00  0.00    +0.000 F 
ATOM     34  F   UNL     1       1.756   7.900  21.968  0.00  0.00    +0.000 F 
ATOM     35  F   UNL     1      -0.233   7.526  21.157  0.00  0.00    +0.000 F 
ENDBRANCH   6  32
TORSDOF 7
ENDMDL
MODEL 4
REMARK VINA RESULT:      -7.4      1.174      1.335
REMARK  Name = 
REMARK  10 active torsions:
REMARK  status: ('A' for Active; 'I' for Inactive)
REMARK    1  A    between atoms: C_1  and  O_2
REMARK    2  A    between atoms: O_2  and  C_3
REMARK    3  A    between atoms: C_5  and  C_6
REMARK    4  A    between atoms: C_10  and  C_11
REMARK    5  A    between atoms: C_14  and  N_15
REMARK    6  A    between atoms: C_23  and  C_24
REMARK    7  A    between atoms: C_29  and  O_30
REMARK    8  A    between atoms: O_30  and  C_31
REMARK    9  A    between atoms: C_32  and  O_33
REMARK   10  A    between atoms: O_33  and  C_34
REMARK                            x       y       z     vdW  Elec       q    Type
REMARK                         _______ _______ _______ _____ _____    ______ ____
ROOT
ATOM      1  C   UNL     1       2.379   7.589  18.927  0.00  0.00    +0.000 A 
ATOM      2  C   UNL     1       2.788   8.122  17.701  0.00  0.00    +0.000 A 
ATOM      3  N   UNL     1       2.418   9.319  17.214  0.00  0.00    +0.000 NA
ATOM      4  C   UNL     1       1.610  10.063  17.994  0.00  0.00    +0.000 A 
ATOM      5  C   UNL     1       1.104   9.691  19.243  0.00  0.00    +0.000 A 
ATOM      6  C   UNL     1       1.462   8.388  19.700  0.00  0.00    +0.000 A 
ENDROOT
BRANCH   1   9
ATOM      7  C   UNL     1       2.339   3.938  20.005  0.00  0.00    +0.000 A 
ATOM      8  C   UNL     1       1.991   5.291  19.873  0.00  0.00    +0.000 A 
ATOM      9  C   UNL     1       2.862   6.246  19.332  0.00  0.00    +0.000 A 
ATOM     10  C   UNL     1       4.197   5.860  19.170  0.00  0.00    +0.000 A 
ATOM     11  C   UNL     1       4.603   4.532  19.370  0.00  0.00    +0.000 A 
ATOM     12  C   UNL     1       3.668   3.542  19.735  0.00  0.00    +0.000 A 
BRANCH   7  14
ATOM     13  C   UNL     1       1.387   2.574  21.775  0.00  0.00    +0.000 C 
ATOM     14  O   UNL     1       1.435   2.990  20.409  0.00  0.00    +0.000 OA
ENDBRANCH   7  14
BRANCH  11  15
ATOM     15  O   UNL     1       5.960   4.378  19.214  0.00  0.00    +0.000 OA
ATOM     16  C   UNL     1       6.757   5.552  19.285  0.00  0.00    +0.000 C 
ENDBRANCH  11  15
BRANCH  12  17
ATOM     17  O   UNL     1       4.174   2.274  19.860  0.00  0.00    +0.000 OA
ATOM     18  C   UNL     1       3.971   1.320  18.829  0.00  0.00    +0.000 C 
ENDBRANCH  12  17
ENDBRANCH   1   9
BRANCH   5  19
ATOM     19  C   UNL     1       0.229  10.655  19.970  0.00  0.00    +0.000 A 
ATOM     20  C   UNL     1      -1.032  11.016  19.468  0.00  0.00    +0.000 A 
ATOM     21  C   UNL     1      -1.884  11.888  20.161  0.00  0.00    +0.000 A 
ATOM     22  C   UNL     1      -1.548  12.400  21.423  0.00  0.00    +0.000 A 
ATOM     23  C   UNL     1      -0.286  12.066  21.909  0.00  0.00    +0.000 A 
ATOM     24  C   UNL     1       0.603  11.260  21.180  0.00  0.00    +0.000 A 
BRANCH  22  25
ATOM     25  N   UNL     1      -2.447  13.158  22.141  0.00  0.00    +0.000 N 
ATOM     26  C   UNL     1      -3.675  13.700  21.545  0.00  0.00    +0.000 C 
ATOM     27  C   UNL     1      -4.931  13.020  22.133  0.00  0.00    +0.000 C 
ATOM     28  N   UNL     1      -4.976  13.070  23.603  0.00  0.00    +0.000 NA
ATOM     29  C   UNL     1      -3.739  12.465  24.152  0.00  0.00    +0.000 C 
ATOM     30  C   UNL     1      -2.437  13.120  23.612  0.00  0.00    +0.000 C 
ATOM     31  H   UNL     1      -5.781  12.533  23.935  0.00  0.00    +0.000 HD
ENDBRANCH  22  25
ENDBRANCH   5  19
BRANCH   6  32
ATOM     32  C   UNL     1       0.872   7.855  20.999  0.00  0.00    +0.000 C 
ATOM     33  F   UNL     1       0.729   6.500  21.072  0.00  0.00    +0.000 F 
ATOM     34  F   UNL     1       1.639   8.194  22.079  0.00  0.00    +0.000 F 
ATOM     35  F   UNL     1      -0.383   8.307  21.273  0.00  0.00    +0.000 F 
ENDBRANCH   6  32
TORSDOF 7
ENDMDL
MODEL 5
REMARK VINA RESULT:      -7.4      1.208      1.467
REMARK  Name = 
REMARK  10 active torsions:
REMARK  status: ('A' for Active; 'I' for Inactive)
REMARK    1  A    between atoms: C_1  and  O_2
REMARK    2  A    between atoms: O_2  and  C_3
REMARK    3  A    between atoms: C_5  and  C_6
REMARK    4  A    between atoms: C_10  and  C_11
REMARK    5  A    between atoms: C_14  and  N_15
REMARK    6  A    between atoms: C_23  and  C_24
REMARK    7  A    between atoms: C_29  and  O_30
REMARK    8  A    between atoms: O_30  and  C_31
REMARK    9  A    between atoms: C_32  and  O_33
REMARK   10  A    between atoms: O_33  and  C_34
REMARK                            x       y       z     vdW  Elec       q    Type
REMARK                         _______ _______ _______ _____ _____    ______ ____
ROOT
ATOM      1  C   UNL     1       2.289   7.598  18.931  0.00  0.00    +0.000 A 
ATOM      2  C   UNL     1       2.497   8.070  17.632  0.00  0.00    +0.000 A 
ATOM      3  N   UNL     1       2.136   9.283  17.181  0.00  0.00    +0.000 NA
ATOM      4  C   UNL     1       1.553  10.109  18.071  0.00  0.00    +0.000 A 
ATOM      5  C   UNL     1       1.268   9.807  19.406  0.00  0.00    +0.000 A 
ATOM      6  C   UNL     1       1.603   8.488  19.834  0.00  0.00    +0.000 A 
ENDROOT
BRANCH   1   9
ATOM      7  C   UNL     1       2.155   3.879  19.733  0.00  0.00    +0.000 A 
ATOM      8  C   UNL     1       1.816   5.239  19.663  0.00  0.00    +0.000 A 
ATOM      9  C   UNL     1       2.735   6.228  19.287  0.00  0.00    +0.000 A 
ATOM     10  C   UNL     1       4.081   5.851  19.237  0.00  0.00    +0.000 A 
ATOM     11  C   UNL     1       4.470   4.512  19.382  0.00  0.00    +0.000 A 
ATOM     12  C   UNL     1       3.507   3.501  19.575  0.00  0.00    +0.000 A 
BRANCH   7  14
ATOM     13  C   UNL     1       0.479   2.336  18.889  0.00  0.00    +0.000 C 
ATOM     14  O   UNL     1       1.219   2.907  19.971  0.00  0.00    +0.000 OA
ENDBRANCH   7  14
BRANCH  11  15
ATOM     15  O   UNL     1       5.837   4.365  19.358  0.00  0.00    +0.000 OA
ATOM     16  C   UNL     1       6.614   5.554  19.322  0.00  0.00    +0.000 C 
ENDBRANCH  11  15
BRANCH  12  17
ATOM     17  O   UNL     1       4.003   2.226  19.661  0.00  0.00    +0.000 OA
ATOM     18  C   UNL     1       3.910   1.347  18.549  0.00  0.00    +0.000 C 
ENDBRANCH  12  17
ENDBRANCH   1   9
BRANCH   5  19
ATOM     19  C   UNL     1       0.626  10.855  20.249  0.00  0.00    +0.000 A 
ATOM     20  C   UNL     1      -0.704  10.730  20.681  0.00  0.00    +0.000 A 
ATOM     21  C   UNL     1      -1.308  11.687  21.509  0.00  0.00    +0.000 A 
ATOM     22  C   UNL     1      -0.598  12.791  22.001  0.00  0.00    +0.000 A 
ATOM     23  C   UNL     1       0.713  12.933  21.551  0.00  0.00    +0.000 A 
ATOM     24  C   UNL     1       1.295  12.021  20.655  0.00  0.00    +0.000 A 
BRANCH  22  25
ATOM     25  N   UNL     1      -1.171  13.655  22.908  0.00  0.00    +0.000 N 
ATOM     26  C   UNL     1      -0.689  15.029  23.102  0.00  0.00    +0.000 C 
ATOM     27  C   UNL     1      -1.724  16.061  22.605  0.00  0.00    +0.000 C 
ATOM     28  N   UNL     1      -3.058  15.868  23.196  0.00  0.00    +0.000 NA
ATOM     29  C   UNL     1      -3.518  14.485  22.926  0.00  0.00    +0.000 C 
ATOM     30  C   UNL     1      -2.526  13.396  23.422  0.00  0.00    +0.000 C 
ATOM     31  H   UNL     1      -3.717  16.524  22.766  0.00  0.00    +0.000 HD
ENDBRANCH  22  25
ENDBRANCH   5  19
BRANCH   6  32
ATOM     32  C   UNL     1       1.232   8.034  21.240  0.00  0.00    +0.000 C 
ATOM     33  F   UNL     1       1.524   8.914  22.242  0.00  0.00    +0.000 F 
ATOM     34  F   UNL     1      -0.108   7.789  21.356  0.00  0.00    +0.000 F 
ATOM     35  F   UNL     1       1.859   6.895  21.646  0.00  0.00    +0.000 F 
ENDBRANCH   6  32
TORSDOF 7
ENDMDL
MODEL 6
REMARK VINA RESULT:      -7.4      1.106      1.592
REMARK  Name = 
REMARK  10 active torsions:
REMARK  status: ('A' for Active; 'I' for Inactive)
REMARK    1  A    between atoms: C_1  and  O_2
REMARK    2  A    between atoms: O_2  and  C_3
REMARK    3  A    between atoms: C_5  and  C_6
REMARK    4  A    between atoms: C_10  and  C_11
REMARK    5  A    between atoms: C_14  and  N_15
REMARK    6  A    between atoms: C_23  and  C_24
REMARK    7  A    between atoms: C_29  and  O_30
REMARK    8  A    between atoms: O_30  and  C_31
REMARK    9  A    between atoms: C_32  and  O_33
REMARK   10  A    between atoms: O_33  and  C_34
REMARK                            x       y       z     vdW  Elec       q    Type
REMARK                         _______ _______ _______ _____ _____    ______ ____
ROOT
ATOM      1  C   UNL     1       2.190   7.796  19.035  0.00  0.00    +0.000 A 
ATOM      2  C   UNL     1       2.573   8.327  17.800  0.00  0.00    +0.000 A 
ATOM      3  N   UNL     1       2.184   9.518  17.314  0.00  0.00    +0.000 NA
ATOM      4  C   UNL     1       1.382  10.259  18.104  0.00  0.00    +0.000 A 
ATOM      5  C   UNL     1       0.901   9.888  19.362  0.00  0.00    +0.000 A 
ATOM      6  C   UNL     1       1.278   8.590  19.819  0.00  0.00    +0.000 A 
ENDROOT
BRANCH   1   9
ATOM      7  C   UNL     1       2.203   4.129  20.060  0.00  0.00    +0.000 A 
ATOM      8  C   UNL     1       1.827   5.475  19.935  0.00  0.00    +0.000 A 
ATOM      9  C   UNL     1       2.692   6.459  19.438  0.00  0.00    +0.000 A 
ATOM     10  C   UNL     1       4.041   6.108  19.317  0.00  0.00    +0.000 A 
ATOM     11  C   UNL     1       4.472   4.788  19.512  0.00  0.00    +0.000 A 
ATOM     12  C   UNL     1       3.550   3.771  19.831  0.00  0.00    +0.000 A 
BRANCH   7  14
ATOM     13  C   UNL     1       1.337   2.599  21.736  0.00  0.00    +0.000 C 
ATOM     14  O   UNL     1       1.310   3.155  20.419  0.00  0.00    +0.000 OA
ENDBRANCH   7  14
BRANCH  11  15
ATOM     15  O   UNL     1       5.838   4.669  19.402  0.00  0.00    +0.000 OA
ATOM     16  C   UNL     1       6.380   4.646  18.089  0.00  0.00    +0.000 C 
ENDBRANCH  11  15
BRANCH  12  17
ATOM     17  O   UNL     1       4.083   2.514  19.956  0.00  0.00    +0.000 OA
ATOM     18  C   UNL     1       3.939   1.569  18.906  0.00  0.00    +0.000 C 
ENDBRANCH  12  17
ENDBRANCH   1   9
BRANCH   5  19
ATOM     19  C   UNL     1       0.029  10.847  20.100  0.00  0.00    +0.000 A 
ATOM     20  C   UNL     1      -1.238  11.203  19.611  0.00  0.00    +0.000 A 
ATOM     21  C   UNL     1      -2.087  12.071  20.314  0.00  0.00    +0.000 A 
ATOM     22  C   UNL     1      -1.741  12.582  21.573  0.00  0.00    +0.000 A 
ATOM     23  C   UNL     1      -0.473  12.253  22.047  0.00  0.00    +0.000 A 
ATOM     24  C   UNL     1       0.413  11.451  21.307  0.00  0.00    +0.000 A 
BRANCH  22  25
ATOM     25  N   UNL     1      -2.635  13.336  22.301  0.00  0.00    +0.000 N 
ATOM     26  C   UNL     1      -3.902  12.787  22.805  0.00  0.00    +0.000 C 
ATOM     27  C   UNL     1      -3.892  12.683  24.346  0.00  0.00    +0.000 C 
ATOM     28  N   UNL     1      -3.552  13.953  25.006  0.00  0.00    +0.000 NA
ATOM     29  C   UNL     1      -2.245  14.434  24.500  0.00  0.00    +0.000 C 
ATOM     30  C   UNL     1      -2.196  14.579  22.953  0.00  0.00    +0.000 C 
ATOM     31  H   UNL     1      -3.479  13.801  26.015  0.00  0.00    +0.000 HD
ENDBRANCH  22  25
ENDBRANCH   5  19
BRANCH   6  32
ATOM     32  C   UNL     1       0.715   8.058  21.131  0.00  0.00    +0.000 C 
ATOM     33  F   UNL     1      -0.548   8.470  21.442  0.00  0.00    +0.000 F 
ATOM     34  F   UNL     1       0.660   6.692  21.140  0.00  0.00    +0.000 F 
ATOM     35  F   UNL     1       1.429   8.413  22.234  0.00  0.00    +0.000 F 
ENDBRANCH   6  32
TORSDOF 7
ENDMDL
MODEL 7
REMARK VINA RESULT:      -7.3      0.311      1.079
REMARK  Name = 
REMARK  10 active torsions:
REMARK  status: ('A' for Active; 'I' for Inactive)
REMARK    1  A    between atoms: C_1  and  O_2
REMARK    2  A    between atoms: O_2  and  C_3
REMARK    3  A    between atoms: C_5  and  C_6
REMARK    4  A    between atoms: C_10  and  C_11
REMARK    5  A    between atoms: C_14  and  N_15
REMARK    6  A    between atoms: C_23  and  C_24
REMARK    7  A    between atoms: C_29  and  O_30
REMARK    8  A    between atoms: O_30  and  C_31
REMARK    9  A    between atoms: C_32  and  O_33
REMARK   10  A    between atoms: O_33  and  C_34
REMARK                            x       y       z     vdW  Elec       q    Type
REMARK                         _______ _______ _______ _____ _____    ______ ____
ROOT
ATOM      1  C   UNL     1       2.164   7.888  18.812  0.00  0.00    +0.000 A 
ATOM      2  C   UNL     1       2.467   8.643  17.675  0.00  0.00    +0.000 A 
ATOM      3  N   UNL     1       2.009   9.882  17.423  0.00  0.00    +0.000 NA
ATOM      4  C   UNL     1       1.219  10.435  18.363  0.00  0.00    +0.000 A 
ATOM      5  C   UNL     1       0.814   9.829  19.555  0.00  0.00    +0.000 A 
ATOM      6  C   UNL     1       1.262   8.491  19.761  0.00  0.00    +0.000 A 
ENDROOT
BRANCH   1   9
ATOM      7  C   UNL     1       2.578   4.119  18.469  0.00  0.00    +0.000 A 
ATOM      8  C   UNL     1       1.994   5.386  18.618  0.00  0.00    +0.000 A 
ATOM      9  C   UNL     1       2.737   6.526  18.952  0.00  0.00    +0.000 A 
ATOM     10  C   UNL     1       4.046   6.316  19.396  0.00  0.00    +0.000 A 
ATOM     11  C   UNL     1       4.643   5.048  19.339  0.00  0.00    +0.000 A 
ATOM     12  C   UNL     1       3.935   3.944  18.821  0.00  0.00    +0.000 A 
BRANCH   7  14
ATOM     13  C   UNL     1       0.899   2.405  18.849  0.00  0.00    +0.000 C 
ATOM     14  O   UNL     1       1.868   3.040  18.012  0.00  0.00    +0.000 OA
ENDBRANCH   7  14
BRANCH  11  15
ATOM     15  O   UNL     1       5.909   5.048  19.874  0.00  0.00    +0.000 OA
ATOM     16  C   UNL     1       6.953   5.572  19.066  0.00  0.00    +0.000 C 
ENDBRANCH  11  15
BRANCH  12  17
ATOM     17  O   UNL     1       4.635   2.766  18.777  0.00  0.00    +0.000 OA
ATOM     18  C   UNL     1       4.558   1.849  19.858  0.00  0.00    +0.000 C 
ENDBRANCH  12  17
ENDBRANCH   1   9
BRANCH   5  19
ATOM     19  C   UNL     1      -0.057  10.603  20.485  0.00  0.00    +0.000 A 
ATOM     20  C   UNL     1       0.255  10.721  21.848  0.00  0.00    +0.000 A 
ATOM     21  C   UNL     1      -0.532  11.480  22.727  0.00  0.00    +0.000 A 
ATOM     22  C   UNL     1      -1.640  12.212  22.279  0.00  0.00    +0.000 A 
ATOM     23  C   UNL     1      -1.969  12.074  20.932  0.00  0.00    +0.000 A 
ATOM     24  C   UNL     1      -1.232  11.249  20.067  0.00  0.00    +0.000 A 
BRANCH  22  25
ATOM     25  N   UNL     1      -2.330  13.046  23.132  0.00  0.00    +0.000 N 
ATOM     26  C   UNL     1      -2.190  14.508  23.091  0.00  0.00    +0.000 C 
ATOM     27  C   UNL     1      -3.489  15.181  22.596  0.00  0.00    +0.000 C 
ATOM     28  N   UNL     1      -4.675  14.773  23.365  0.00  0.00    +0.000 NA
ATOM     29  C   UNL     1      -4.798  13.297  23.331  0.00  0.00    +0.000 C 
ATOM     30  C   UNL     1      -3.527  12.559  23.836  0.00  0.00    +0.000 C 
ATOM     31  H   UNL     1      -5.511  15.183  22.940  0.00  0.00    +0.000 HD
ENDBRANCH  22  25
ENDBRANCH   5  19
BRANCH   6  32
ATOM     32  C   UNL     1       0.784   7.713  20.980  0.00  0.00    +0.000 C 
ATOM     33  F   UNL     1      -0.541   7.838  21.279  0.00  0.00    +0.000 F 
ATOM     34  F   UNL     1       0.995   6.370  20.837  0.00  0.00    +0.000 F 
ATOM     35  F   UNL     1       1.392   8.067  22.146  0.00  0.00    +0.000 F 
ENDBRANCH   6  32
TORSDOF 7
ENDMDL
MODEL 8
REMARK VINA RESULT:      -7.3      1.400      1.888
REMARK  Name = 
REMARK  10 active torsions:
REMARK  status: ('A' for Active; 'I' for Inactive)
REMARK    1  A    between atoms: C_1  and  O_2
REMARK    2  A    between atoms: O_2  and  C_3
REMARK    3  A    between atoms: C_5  and  C_6
REMARK    4  A    between atoms: C_10  and  C_11
REMARK    5  A    between atoms: C_14  and  N_15
REMARK    6  A    between atoms: C_23  and  C_24
REMARK    7  A    between atoms: C_29  and  O_30
REMARK    8  A    between atoms: O_30  and  C_31
REMARK    9  A    between atoms: C_32  and  O_33
REMARK   10  A    between atoms: O_33  and  C_34
REMARK                            x       y       z     vdW  Elec       q    Type
REMARK                         _______ _______ _______ _____ _____    ______ ____
ROOT
ATOM      1  C   UNL     1       2.264   7.668  18.930  0.00  0.00    +0.000 A 
ATOM      2  C   UNL     1       2.517   8.141  17.639  0.00  0.00    +0.000 A 
ATOM      3  N   UNL     1       2.140   9.341  17.165  0.00  0.00    +0.000 NA
ATOM      4  C   UNL     1       1.492  10.152  18.024  0.00  0.00    +0.000 A 
ATOM      5  C   UNL     1       1.156   9.847  19.346  0.00  0.00    +0.000 A 
ATOM      6  C   UNL     1       1.511   8.540  19.796  0.00  0.00    +0.000 A 
ENDROOT
BRANCH   1   9
ATOM      7  C   UNL     1       2.202   3.954  19.762  0.00  0.00    +0.000 A 
ATOM      8  C   UNL     1       1.830   5.304  19.669  0.00  0.00    +0.000 A 
ATOM      9  C   UNL     1       2.734   6.314  19.313  0.00  0.00    +0.000 A 
ATOM     10  C   UNL     1       4.090   5.973  19.310  0.00  0.00    +0.000 A 
ATOM     11  C   UNL     1       4.510   4.646  19.480  0.00  0.00    +0.000 A 
ATOM     12  C   UNL     1       3.568   3.611  19.651  0.00  0.00    +0.000 A 
BRANCH   7  14
ATOM     13  C   UNL     1       0.560   2.394  18.884  0.00  0.00    +0.000 C 
ATOM     14  O   UNL     1       1.285   2.960  19.979  0.00  0.00    +0.000 OA
ENDBRANCH   7  14
BRANCH  11  15
ATOM     15  O   UNL     1       5.881   4.535  19.501  0.00  0.00    +0.000 OA
ATOM     16  C   UNL     1       6.567   4.779  18.282  0.00  0.00    +0.000 C 
ENDBRANCH  11  15
BRANCH  12  17
ATOM     17  O   UNL     1       4.095   2.350  19.765  0.00  0.00    +0.000 OA
ATOM     18  C   UNL     1       4.000   1.436  18.682  0.00  0.00    +0.000 C 
ENDBRANCH  12  17
ENDBRANCH   1   9
BRANCH   5  19
ATOM     19  C   UNL     1       0.445  10.879  20.154  0.00  0.00    +0.000 A 
ATOM     20  C   UNL     1       1.145  11.913  20.794  0.00  0.00    +0.000 A 
ATOM     21  C   UNL     1       0.487  12.914  21.523  0.00  0.00    +0.000 A 
ATOM     22  C   UNL     1      -0.912  12.970  21.602  0.00  0.00    +0.000 A 
ATOM     23  C   UNL     1      -1.608  11.929  20.992  0.00  0.00    +0.000 A 
ATOM     24  C   UNL     1      -0.948  10.880  20.331  0.00  0.00    +0.000 A 
BRANCH  22  25
ATOM     25  N   UNL     1      -1.544  14.026  22.221  0.00  0.00    +0.000 N 
ATOM     26  C   UNL     1      -1.962  13.980  23.629  0.00  0.00    +0.000 C 
ATOM     27  C   UNL     1      -1.128  14.952  24.492  0.00  0.00    +0.000 C 
ATOM     28  N   UNL     1      -1.131  16.329  23.972  0.00  0.00    +0.000 NA
ATOM     29  C   UNL     1      -0.653  16.324  22.570  0.00  0.00    +0.000 C 
ATOM     30  C   UNL     1      -1.465  15.378  21.643  0.00  0.00    +0.000 C 
ATOM     31  H   UNL     1      -0.498  16.904  24.534  0.00  0.00    +0.000 HD
ENDBRANCH  22  25
ENDBRANCH   5  19
BRANCH   6  32
ATOM     32  C   UNL     1       1.090   8.081  21.186  0.00  0.00    +0.000 C 
ATOM     33  F   UNL     1       1.561   6.860  21.573  0.00  0.00    +0.000 F 
ATOM     34  F   UNL     1       1.509   8.951  22.154  0.00  0.00    +0.000 F 
ATOM     35  F   UNL     1      -0.255   7.953  21.352  0.00  0.00    +0.000 F 
ENDBRANCH   6  32
TORSDOF 7
ENDMDL
MODEL 9
REMARK VINA RESULT:      -7.3      1.426      1.819
REMARK  Name = 
REMARK  10 active torsions:
REMARK  status: ('A' for Active; 'I' for Inactive)
REMARK    1  A    between atoms: C_1  and  O_2
REMARK    2  A    between atoms: O_2  and  C_3
REMARK    3  A    between atoms: C_5  and  C_6
REMARK    4  A    between atoms: C_10  and  C_11
REMARK    5  A    between atoms: C_14  and  N_15
REMARK    6  A    between atoms: C_23  and  C_24
REMARK    7  A    between atoms: C_29  and  O_30
REMARK    8  A    between atoms: O_30  and  C_31
REMARK    9  A    between atoms: C_32  and  O_33
REMARK   10  A    between atoms: O_33  and  C_34
REMARK                            x       y       z     vdW  Elec       q    Type
REMARK                         _______ _______ _______ _____ _____    ______ ____
ROOT
ATOM      1  C   UNL     1       2.221   7.670  18.972  0.00  0.00    +0.000 A 
ATOM      2  C   UNL     1       2.432   8.151  17.676  0.00  0.00    +0.000 A 
ATOM      3  N   UNL     1       2.066   9.365  17.231  0.00  0.00    +0.000 NA
ATOM      4  C   UNL     1       1.475  10.182  18.125  0.00  0.00    +0.000 A 
ATOM      5  C   UNL     1       1.187   9.870  19.456  0.00  0.00    +0.000 A 
ATOM      6  C   UNL     1       1.527   8.550  19.877  0.00  0.00    +0.000 A 
ENDROOT
BRANCH   1   9
ATOM      7  C   UNL     1       2.104   3.942  19.737  0.00  0.00    +0.000 A 
ATOM      8  C   UNL     1       1.756   5.300  19.676  0.00  0.00    +0.000 A 
ATOM      9  C   UNL     1       2.672   6.299  19.320  0.00  0.00    +0.000 A 
ATOM     10  C   UNL     1       4.021   5.933  19.283  0.00  0.00    +0.000 A 
ATOM     11  C   UNL     1       4.418   4.594  19.420  0.00  0.00    +0.000 A 
ATOM     12  C   UNL     1       3.460   3.575  19.592  0.00  0.00    +0.000 A 
BRANCH   7  14
ATOM     13  C   UNL     1       0.506   2.340  18.853  0.00  0.00    +0.000 C 
ATOM     14  O   UNL     1       1.171   2.962  19.955  0.00  0.00    +0.000 OA
ENDBRANCH   7  14
BRANCH  11  15
ATOM     15  O   UNL     1       5.786   4.457  19.411  0.00  0.00    +0.000 OA
ATOM     16  C   UNL     1       6.454   4.722  18.186  0.00  0.00    +0.000 C 
ENDBRANCH  11  15
BRANCH  12  17
ATOM     17  O   UNL     1       3.964   2.302  19.672  0.00  0.00    +0.000 OA
ATOM     18  C   UNL     1       3.915   1.443  18.543  0.00  0.00    +0.000 C 
ENDBRANCH  12  17
ENDBRANCH   1   9
BRANCH   5  19
ATOM     19  C   UNL     1       0.537  10.910  20.304  0.00  0.00    +0.000 A 
ATOM     20  C   UNL     1       1.240  12.047  20.731  0.00  0.00    +0.000 A 
ATOM     21  C   UNL     1       0.630  13.054  21.494  0.00  0.00    +0.000 A 
ATOM     22  C   UNL     1      -0.732  13.007  21.821  0.00  0.00    +0.000 A 
ATOM     23  C   UNL     1      -1.425  11.866  21.424  0.00  0.00    +0.000 A 
ATOM     24  C   UNL     1      -0.798  10.818  20.732  0.00  0.00    +0.000 A 
BRANCH  22  25
ATOM     25  N   UNL     1      -1.341  14.061  22.468  0.00  0.00    +0.000 N 
ATOM     26  C   UNL     1      -0.579  15.170  23.058  0.00  0.00    +0.000 C 
ATOM     27  C   UNL     1      -0.819  16.487  22.287  0.00  0.00    +0.000 C 
ATOM     28  N   UNL     1      -2.246  16.822  22.153  0.00  0.00    +0.000 NA
ATOM     29  C   UNL     1      -2.955  15.693  21.506  0.00  0.00    +0.000 C 
ATOM     30  C   UNL     1      -2.769  14.339  22.247  0.00  0.00    +0.000 C 
ATOM     31  H   UNL     1      -2.344  17.653  21.564  0.00  0.00    +0.000 HD
ENDBRANCH  22  25
ENDBRANCH   5  19
BRANCH   6  32
ATOM     32  C   UNL     1       1.153   8.085  21.279  0.00  0.00    +0.000 C 
ATOM     33  F   UNL     1       1.413   8.969  22.285  0.00  0.00    +0.000 F 
ATOM     34  F   UNL     1      -0.182   7.808  21.381  0.00  0.00    +0.000 F 
ATOM     35  F   UNL     1       1.802   6.960  21.689  0.00  0.00    +0.000 F 
ENDBRANCH   6  32
TORSDOF 7
ENDMDL
