MODEL 1
REMARK VINA RESULT:      -7.5      0.000      0.000
REMARK  Name = 
REMARK  2 active torsions:
REMARK  status: ('A' for Active; 'I' for Inactive)
REMARK    1  A    between atoms: N_3  and  C_4
REMARK    2  A    between atoms: C_10  and  C_11
REMARK                            x       y       z     vdW  Elec       q    Type
REMARK                         _______ _______ _______ _____ _____    ______ ____
ROOT
ATOM      1  C   UNL     1       7.017   5.185  16.937  0.00  0.00    +0.000 A 
ATOM      2  C   UNL     1       7.359   5.120  15.570  0.00  0.00    +0.000 A 
ATOM      3  C   UNL     1       6.520   4.502  14.638  0.00  0.00    +0.000 A 
ATOM      4  C   UNL     1       5.296   3.947  15.023  0.00  0.00    +0.000 A 
ATOM      5  C   UNL     1       4.960   4.039  16.373  0.00  0.00    +0.000 A 
ATOM      6  N   UNL     1       3.858   3.623  17.070  0.00  0.00    +0.000 N 
ATOM      7  C   UNL     1       4.023   3.936  18.398  0.00  0.00    +0.000 A 
ATOM      8  N   UNL     1       5.172   4.563  18.579  0.00  0.00    +0.000 NA
ATOM      9  C   UNL     1       5.774   4.635  17.335  0.00  0.00    +0.000 A 
ATOM     10  H   UNL     1       3.045   3.144  16.709  0.00  0.00    +0.000 HD
ENDROOT
BRANCH   7  11
ATOM     11  C   UNL     1       3.022   3.568  19.398  0.00  0.00    +0.000 A 
ATOM     12  C   UNL     1       1.688   3.928  19.262  0.00  0.00    +0.000 A 
ATOM     13  C   UNL     1       0.799   3.574  20.272  0.00  0.00    +0.000 A 
ATOM     14  C   UNL     1       1.267   2.876  21.379  0.00  0.00    +0.000 A 
ATOM     15  C   UNL     1       2.614   2.552  21.429  0.00  0.00    +0.000 A 
ATOM     16  N   UNL     1       3.505   2.878  20.466  0.00  0.00    +0.000 NA
ENDBRANCH   7  11
BRANCH   1  19
ATOM     17  S   UNL     1       7.850   8.594  17.775  0.00  0.00    +0.000 S 
ATOM     18  C   UNL     1       7.813   7.002  17.836  0.00  0.00    +0.000 C 
ATOM     19  N   UNL     1       7.779   5.831  17.934  0.00  0.00    +0.000 NA
ENDBRANCH   1  19
TORSDOF 2
ENDMDL
MODEL 2
REMARK VINA RESULT:      -7.1      0.708      1.168
REMARK  Name = 
REMARK  2 active torsions:
REMARK  status: ('A' for Active; 'I' for Inactive)
REMARK    1  A    between atoms: N_3  and  C_4
REMARK    2  A    between atoms: C_10  and  C_11
REMARK                            x       y       z     vdW  Elec       q    Type
REMARK                         _______ _______ _______ _____ _____    ______ ____
ROOT
ATOM      1  C   UNL     1       7.023   5.449  17.222  0.00  0.00    +0.000 A 
ATOM      2  C   UNL     1       7.394   5.390  15.862  0.00  0.00    +0.000 A 
ATOM      3  C   UNL     1       6.602   4.728  14.919  0.00  0.00    +0.000 A 
ATOM      4  C   UNL     1       5.399   4.120  15.284  0.00  0.00    +0.000 A 
ATOM      5  C   UNL     1       5.032   4.205  16.628  0.00  0.00    +0.000 A 
ATOM      6  N   UNL     1       3.938   3.742  17.307  0.00  0.00    +0.000 N 
ATOM      7  C   UNL     1       4.062   4.072  18.635  0.00  0.00    +0.000 A 
ATOM      8  N   UNL     1       5.178   4.752  18.833  0.00  0.00    +0.000 NA
ATOM      9  C   UNL     1       5.799   4.844  17.601  0.00  0.00    +0.000 A 
ATOM     10  H   UNL     1       3.155   3.224  16.934  0.00  0.00    +0.000 HD
ENDROOT
BRANCH   7  11
ATOM     11  C   UNL     1       3.061   3.664  19.618  0.00  0.00    +0.000 A 
ATOM     12  C   UNL     1       3.379   2.831  20.682  0.00  0.00    +0.000 A 
ATOM     13  C   UNL     1       2.365   2.456  21.558  0.00  0.00    +0.000 A 
ATOM     14  C   UNL     1       1.073   2.923  21.346  0.00  0.00    +0.000 A 
ATOM     15  C   UNL     1       0.846   3.756  20.262  0.00  0.00    +0.000 A 
ATOM     16  N   UNL     1       1.807   4.142  19.392  0.00  0.00    +0.000 NA
ENDBRANCH   7  11
BRANCH   1  19
ATOM     17  S   UNL     1       8.014   8.863  17.840  0.00  0.00    +0.000 S 
ATOM     18  C   UNL     1       7.860   7.288  18.033  0.00  0.00    +0.000 C 
ATOM     19  N   UNL     1       7.734   6.136  18.228  0.00  0.00    +0.000 NA
ENDBRANCH   1  19
TORSDOF 2
ENDMDL
MODEL 3
REMARK VINA RESULT:      -6.9      2.024      2.912
REMARK  Name = 
REMARK  2 active torsions:
REMARK  status: ('A' for Active; 'I' for Inactive)
REMARK    1  A    between atoms: N_3  and  C_4
REMARK    2  A    between atoms: C_10  and  C_11
REMARK                            x       y       z     vdW  Elec       q    Type
REMARK                         _______ _______ _______ _____ _____    ______ ____
ROOT
ATOM      1  C   UNL     1       6.287   6.179  16.741  0.00  0.00    +0.000 A 
ATOM      2  C   UNL     1       7.546   6.658  17.159  0.00  0.00    +0.000 A 
ATOM      3  C   UNL     1       7.984   6.498  18.477  0.00  0.00    +0.000 A 
ATOM      4  C   UNL     1       7.202   5.833  19.425  0.00  0.00    +0.000 A 
ATOM      5  C   UNL     1       5.969   5.344  18.991  0.00  0.00    +0.000 A 
ATOM      6  N   UNL     1       4.983   4.651  19.640  0.00  0.00    +0.000 N 
ATOM      7  C   UNL     1       3.948   4.422  18.766  0.00  0.00    +0.000 A 
ATOM      8  N   UNL     1       4.239   4.913  17.574  0.00  0.00    +0.000 NA
ATOM      9  C   UNL     1       5.489   5.495  17.691  0.00  0.00    +0.000 A 
ATOM     10  H   UNL     1       4.971   4.355  20.606  0.00  0.00    +0.000 HD
ENDROOT
BRANCH   7  11
ATOM     11  C   UNL     1       2.728   3.740  19.192  0.00  0.00    +0.000 A 
ATOM     12  C   UNL     1       1.875   3.131  18.281  0.00  0.00    +0.000 A 
ATOM     13  C   UNL     1       0.713   2.532  18.757  0.00  0.00    +0.000 A 
ATOM     14  C   UNL     1       0.440   2.559  20.119  0.00  0.00    +0.000 A 
ATOM     15  C   UNL     1       1.350   3.183  20.958  0.00  0.00    +0.000 A 
ATOM     16  N   UNL     1       2.489   3.773  20.531  0.00  0.00    +0.000 NA
ENDBRANCH   7  11
BRANCH   1  19
ATOM     17  S   UNL     1       6.187   3.998  13.868  0.00  0.00    +0.000 S 
ATOM     18  C   UNL     1       5.986   5.295  14.774  0.00  0.00    +0.000 C 
ATOM     19  N   UNL     1       5.787   6.254  15.424  0.00  0.00    +0.000 NA
ENDBRANCH   1  19
TORSDOF 2
ENDMDL
MODEL 4
REMARK VINA RESULT:      -6.9      2.080      3.029
REMARK  Name = 
REMARK  2 active torsions:
REMARK  status: ('A' for Active; 'I' for Inactive)
REMARK    1  A    between atoms: N_3  and  C_4
REMARK    2  A    between atoms: C_10  and  C_11
REMARK                            x       y       z     vdW  Elec       q    Type
REMARK                         _______ _______ _______ _____ _____    ______ ____
ROOT
ATOM      1  C   UNL     1       6.263   6.172  16.729  0.00  0.00    +0.000 A 
ATOM      2  C   UNL     1       7.534   6.640  17.123  0.00  0.00    +0.000 A 
ATOM      3  C   UNL     1       7.991   6.487  18.435  0.00  0.00    +0.000 A 
ATOM      4  C   UNL     1       7.216   5.840  19.401  0.00  0.00    +0.000 A 
ATOM      5  C   UNL     1       5.972   5.360  18.991  0.00  0.00    +0.000 A 
ATOM      6  N   UNL     1       4.989   4.684  19.662  0.00  0.00    +0.000 N 
ATOM      7  C   UNL     1       3.937   4.458  18.807  0.00  0.00    +0.000 A 
ATOM      8  N   UNL     1       4.215   4.936  17.606  0.00  0.00    +0.000 NA
ATOM      9  C   UNL     1       5.473   5.505  17.698  0.00  0.00    +0.000 A 
ATOM     10  H   UNL     1       4.989   4.397  20.630  0.00  0.00    +0.000 HD
ENDROOT
BRANCH   7  11
ATOM     11  C   UNL     1       2.717   3.793  19.258  0.00  0.00    +0.000 A 
ATOM     12  C   UNL     1       2.347   3.776  20.597  0.00  0.00    +0.000 A 
ATOM     13  C   UNL     1       1.190   3.092  20.958  0.00  0.00    +0.000 A 
ATOM     14  C   UNL     1       0.442   2.452  19.976  0.00  0.00    +0.000 A 
ATOM     15  C   UNL     1       0.882   2.526  18.664  0.00  0.00    +0.000 A 
ATOM     16  N   UNL     1       1.999   3.183  18.277  0.00  0.00    +0.000 NA
ENDBRANCH   7  11
BRANCH   1  19
ATOM     17  S   UNL     1       6.178   4.003  13.846  0.00  0.00    +0.000 S 
ATOM     18  C   UNL     1       5.957   5.289  14.762  0.00  0.00    +0.000 C 
ATOM     19  N   UNL     1       5.743   6.240  15.419  0.00  0.00    +0.000 NA
ENDBRANCH   1  19
TORSDOF 2
ENDMDL
MODEL 5
REMARK VINA RESULT:      -6.6      1.978      2.802
REMARK  Name = 
REMARK  2 active torsions:
REMARK  status: ('A' for Active; 'I' for Inactive)
REMARK    1  A    between atoms: N_3  and  C_4
REMARK    2  A    between atoms: C_10  and  C_11
REMARK                            x       y       z     vdW  Elec       q    Type
REMARK                         _______ _______ _______ _____ _____    ______ ____
ROOT
ATOM      1  C   UNL     1       6.276   4.586  16.056  0.00  0.00    +0.000 A 
ATOM      2  C   UNL     1       7.261   5.581  15.886  0.00  0.00    +0.000 A 
ATOM      3  C   UNL     1       7.466   6.575  16.847  0.00  0.00    +0.000 A 
ATOM      4  C   UNL     1       6.718   6.605  18.027  0.00  0.00    +0.000 A 
ATOM      5  C   UNL     1       5.763   5.602  18.193  0.00  0.00    +0.000 A 
ATOM      6  N   UNL     1       4.888   5.334  19.211  0.00  0.00    +0.000 N 
ATOM      7  C   UNL     1       4.136   4.233  18.877  0.00  0.00    +0.000 A 
ATOM      8  N   UNL     1       4.512   3.764  17.700  0.00  0.00    +0.000 NA
ATOM      9  C   UNL     1       5.519   4.602  17.254  0.00  0.00    +0.000 A 
ATOM     10  H   UNL     1       4.769   5.847  20.073  0.00  0.00    +0.000 HD
ENDROOT
BRANCH   7  11
ATOM     11  C   UNL     1       3.080   3.737  19.756  0.00  0.00    +0.000 A 
ATOM     12  C   UNL     1       1.762   4.154  19.621  0.00  0.00    +0.000 A 
ATOM     13  C   UNL     1       0.816   3.667  20.517  0.00  0.00    +0.000 A 
ATOM     14  C   UNL     1       1.212   2.783  21.515  0.00  0.00    +0.000 A 
ATOM     15  C   UNL     1       2.547   2.415  21.572  0.00  0.00    +0.000 A 
ATOM     16  N   UNL     1       3.493   2.867  20.717  0.00  0.00    +0.000 NA
ENDBRANCH   7  11
BRANCH   1  19
ATOM     17  S   UNL     1       6.604   4.041  12.504  0.00  0.00    +0.000 S 
ATOM     18  C   UNL     1       6.263   3.769  14.038  0.00  0.00    +0.000 C 
ATOM     19  N   UNL     1       6.036   3.520  15.164  0.00  0.00    +0.000 NA
ENDBRANCH   1  19
TORSDOF 2
ENDMDL
MODEL 6
REMARK VINA RESULT:      -6.6      2.687      6.142
REMARK  Name = 
REMARK  2 active torsions:
REMARK  status: ('A' for Active; 'I' for Inactive)
REMARK    1  A    between atoms: N_3  and  C_4
REMARK    2  A    between atoms: C_10  and  C_11
REMARK                            x       y       z     vdW  Elec       q    Type
REMARK                         _______ _______ _______ _____ _____    ______ ____
ROOT
ATOM      1  C   UNL     1       3.270   5.559  18.756  0.00  0.00    +0.000 A 
ATOM      2  C   UNL     1       2.908   4.777  19.873  0.00  0.00    +0.000 A 
ATOM      3  C   UNL     1       3.299   3.440  19.982  0.00  0.00    +0.000 A 
ATOM      4  C   UNL     1       4.087   2.834  19.000  0.00  0.00    +0.000 A 
ATOM      5  C   UNL     1       4.458   3.626  17.913  0.00  0.00    +0.000 A 
ATOM      6  N   UNL     1       5.218   3.360  16.806  0.00  0.00    +0.000 N 
ATOM      7  C   UNL     1       5.266   4.482  16.015  0.00  0.00    +0.000 A 
ATOM      8  N   UNL     1       4.592   5.468  16.581  0.00  0.00    +0.000 NA
ATOM      9  C   UNL     1       4.077   4.958  17.760  0.00  0.00    +0.000 A 
ATOM     10  H   UNL     1       5.670   2.489  16.564  0.00  0.00    +0.000 HD
ENDROOT
BRANCH   7  11
ATOM     11  C   UNL     1       5.970   4.482  14.734  0.00  0.00    +0.000 A 
ATOM     12  C   UNL     1       5.519   3.736  13.653  0.00  0.00    +0.000 A 
ATOM     13  C   UNL     1       6.262   3.757  12.476  0.00  0.00    +0.000 A 
ATOM     14  C   UNL     1       7.424   4.518  12.417  0.00  0.00    +0.000 A 
ATOM     15  C   UNL     1       7.796   5.237  13.542  0.00  0.00    +0.000 A 
ATOM     16  N   UNL     1       7.098   5.241  14.700  0.00  0.00    +0.000 NA
ENDBRANCH   7  11
BRANCH   1  19
ATOM     17  S   UNL     1       1.479   8.072  20.627  0.00  0.00    +0.000 S 
ATOM     18  C   UNL     1       2.314   7.387  19.454  0.00  0.00    +0.000 C 
ATOM     19  N   UNL     1       2.961   6.926  18.589  0.00  0.00    +0.000 NA
ENDBRANCH   1  19
TORSDOF 2
ENDMDL
MODEL 7
REMARK VINA RESULT:      -6.5      4.018      4.902
REMARK  Name = 
REMARK  2 active torsions:
REMARK  status: ('A' for Active; 'I' for Inactive)
REMARK    1  A    between atoms: N_3  and  C_4
REMARK    2  A    between atoms: C_10  and  C_11
REMARK                            x       y       z     vdW  Elec       q    Type
REMARK                         _______ _______ _______ _____ _____    ______ ____
ROOT
ATOM      1  C   UNL     1       3.856   4.185  17.174  0.00  0.00    +0.000 A 
ATOM      2  C   UNL     1       4.874   4.100  16.202  0.00  0.00    +0.000 A 
ATOM      3  C   UNL     1       5.496   5.245  15.697  0.00  0.00    +0.000 A 
ATOM      4  C   UNL     1       5.150   6.519  16.156  0.00  0.00    +0.000 A 
ATOM      5  C   UNL     1       4.158   6.587  17.135  0.00  0.00    +0.000 A 
ATOM      6  N   UNL     1       3.601   7.647  17.798  0.00  0.00    +0.000 N 
ATOM      7  C   UNL     1       2.637   7.181  18.659  0.00  0.00    +0.000 A 
ATOM      8  N   UNL     1       2.571   5.862  18.598  0.00  0.00    +0.000 NA
ATOM      9  C   UNL     1       3.505   5.471  17.654  0.00  0.00    +0.000 A 
ATOM     10  H   UNL     1       3.821   8.627  17.688  0.00  0.00    +0.000 HD
ENDROOT
BRANCH   7  11
ATOM     11  C   UNL     1       1.835   8.093  19.471  0.00  0.00    +0.000 A 
ATOM     12  C   UNL     1       1.516   7.806  20.792  0.00  0.00    +0.000 A 
ATOM     13  C   UNL     1       0.718   8.704  21.493  0.00  0.00    +0.000 A 
ATOM     14  C   UNL     1       0.266   9.855  20.857  0.00  0.00    +0.000 A 
ATOM     15  C   UNL     1       0.638  10.065  19.538  0.00  0.00    +0.000 A 
ATOM     16  N   UNL     1       1.414   9.215  18.828  0.00  0.00    +0.000 NA
ENDBRANCH   7  11
BRANCH   1  19
ATOM     17  S   UNL     1       4.357   2.162  20.120  0.00  0.00    +0.000 S 
ATOM     18  C   UNL     1       3.726   2.694  18.756  0.00  0.00    +0.000 C 
ATOM     19  N   UNL     1       3.211   3.082  17.773  0.00  0.00    +0.000 NA
ENDBRANCH   1  19
TORSDOF 2
ENDMDL
MODEL 8
REMARK VINA RESULT:      -6.5      3.797      5.355
REMARK  Name = 
REMARK  2 active torsions:
REMARK  status: ('A' for Active; 'I' for Inactive)
REMARK    1  A    between atoms: N_3  and  C_4
REMARK    2  A    between atoms: C_10  and  C_11
REMARK                            x       y       z     vdW  Elec       q    Type
REMARK                         _______ _______ _______ _____ _____    ______ ____
ROOT
ATOM      1  C   UNL     1       4.065   4.049  18.767  0.00  0.00    +0.000 A 
ATOM      2  C   UNL     1       4.107   2.766  19.352  0.00  0.00    +0.000 A 
ATOM      3  C   UNL     1       3.399   2.476  20.521  0.00  0.00    +0.000 A 
ATOM      4  C   UNL     1       2.600   3.440  21.142  0.00  0.00    +0.000 A 
ATOM      5  C   UNL     1       2.548   4.697  20.539  0.00  0.00    +0.000 A 
ATOM      6  N   UNL     1       1.871   5.840  20.868  0.00  0.00    +0.000 N 
ATOM      7  C   UNL     1       2.178   6.821  19.957  0.00  0.00    +0.000 A 
ATOM      8  N   UNL     1       3.002   6.348  19.038  0.00  0.00    +0.000 NA
ATOM      9  C   UNL     1       3.250   5.031  19.382  0.00  0.00    +0.000 A 
ATOM     10  H   UNL     1       1.253   5.986  21.654  0.00  0.00    +0.000 HD
ENDROOT
BRANCH   7  11
ATOM     11  C   UNL     1       1.636   8.173  20.080  0.00  0.00    +0.000 A 
ATOM     12  C   UNL     1       1.143   8.654  21.285  0.00  0.00    +0.000 A 
ATOM     13  C   UNL     1       0.610   9.939  21.319  0.00  0.00    +0.000 A 
ATOM     14  C   UNL     1       0.586  10.698  20.154  0.00  0.00    +0.000 A 
ATOM     15  C   UNL     1       1.105  10.140  18.997  0.00  0.00    +0.000 A 
ATOM     16  N   UNL     1       1.633   8.897  18.928  0.00  0.00    +0.000 NA
ENDBRANCH   7  11
BRANCH   1  19
ATOM     17  S   UNL     1       7.447   4.768  17.735  0.00  0.00    +0.000 S 
ATOM     18  C   UNL     1       5.865   4.580  17.663  0.00  0.00    +0.000 C 
ATOM     19  N   UNL     1       4.706   4.414  17.564  0.00  0.00    +0.000 NA
ENDBRANCH   1  19
TORSDOF 2
ENDMDL
MODEL 9
REMARK VINA RESULT:      -6.4      3.148      6.562
REMARK  Name = 
REMARK  2 active torsions:
REMARK  status: ('A' for Active; 'I' for Inactive)
REMARK    1  A    between atoms: N_3  and  C_4
REMARK    2  A    between atoms: C_10  and  C_11
REMARK                            x       y       z     vdW  Elec       q    Type
REMARK                         _______ _______ _______ _____ _____    ______ ____
ROOT
ATOM      1  C   UNL     1       3.612   4.647  18.655  0.00  0.00    +0.000 A 
ATOM      2  C   UNL     1       3.052   5.687  19.425  0.00  0.00    +0.000 A 
ATOM      3  C   UNL     1       3.124   7.020  19.009  0.00  0.00    +0.000 A 
ATOM      4  C   UNL     1       3.731   7.369  17.800  0.00  0.00    +0.000 A 
ATOM      5  C   UNL     1       4.259   6.327  17.037  0.00  0.00    +0.000 A 
ATOM      6  N   UNL     1       4.896   6.315  15.825  0.00  0.00    +0.000 N 
ATOM      7  C   UNL     1       5.244   5.023  15.515  0.00  0.00    +0.000 A 
ATOM      8  N   UNL     1       4.832   4.199  16.464  0.00  0.00    +0.000 NA
ATOM      9  C   UNL     1       4.221   4.989  17.423  0.00  0.00    +0.000 A 
ATOM     10  H   UNL     1       5.111   7.105  15.234  0.00  0.00    +0.000 HD
ENDROOT
BRANCH   7  11
ATOM     11  C   UNL     1       5.983   4.704  14.296  0.00  0.00    +0.000 A 
ATOM     12  C   UNL     1       5.534   3.742  13.401  0.00  0.00    +0.000 A 
ATOM     13  C   UNL     1       6.309   3.466  12.278  0.00  0.00    +0.000 A 
ATOM     14  C   UNL     1       7.501   4.156  12.086  0.00  0.00    +0.000 A 
ATOM     15  C   UNL     1       7.868   5.105  13.027  0.00  0.00    +0.000 A 
ATOM     16  N   UNL     1       7.140   5.400  14.127  0.00  0.00    +0.000 NA
ENDBRANCH   7  11
BRANCH   1  19
ATOM     17  S   UNL     1       1.005   2.166  18.927  0.00  0.00    +0.000 S 
ATOM     18  C   UNL     1       2.455   2.829  18.969  0.00  0.00    +0.000 C 
ATOM     19  N   UNL     1       3.542   3.274  18.973  0.00  0.00    +0.000 NA
ENDBRANCH   1  19
TORSDOF 2
ENDMDL
