MODEL 1
REMARK VINA RESULT:      -6.4      0.000      0.000
REMARK  Name = 
REMARK  14 active torsions:
REMARK  status: ('A' for Active; 'I' for Inactive)
REMARK    1  A    between atoms: C_1  and  C_2
REMARK    2  A    between atoms: C_2  and  N_3
REMARK    3  A    between atoms: N_3  and  C_4
REMARK    4  A    between atoms: N_3  and  C_6
REMARK    5  A    between atoms: C_4  and  C_5
REMARK    6  A    between atoms: C_6  and  C_7
REMARK    7  A    between atoms: C_7  and  C_8
REMARK    8  A    between atoms: C_8  and  N_9
REMARK    9  A    between atoms: C_10  and  C_12
REMARK   10  A    between atoms: N_14  and  C_15
REMARK   11  A    between atoms: C_15  and  C_16
REMARK   12  A    between atoms: C_16  and  C_17
REMARK   13  A    between atoms: C_16  and  C_18
REMARK   14  A    between atoms: N_29  and  C_30
REMARK                            x       y       z     vdW  Elec       q    Type
REMARK                         _______ _______ _______ _____ _____    ______ ____
ROOT
ATOM      1  C   UNL     1      -0.985  11.465  20.127  0.00  0.00    +0.000 A 
ATOM      2  C   UNL     1      -0.967  11.937  21.393  0.00  0.00    +0.000 A 
ATOM      3  N   UNL     1      -2.041  12.604  21.974  0.00  0.00    +0.000 N 
ATOM      4  C   UNL     1      -3.250  12.792  21.280  0.00  0.00    +0.000 A 
ATOM      5  O   UNL     1      -4.213  13.390  21.771  0.00  0.00    +0.000 OA
ATOM      6  C   UNL     1      -3.264  12.237  19.944  0.00  0.00    +0.000 A 
ATOM      7  C   UNL     1      -2.177  11.603  19.356  0.00  0.00    +0.000 A 
ATOM      8  C   UNL     1      -2.553  11.198  18.048  0.00  0.00    +0.000 A 
ATOM      9  C   UNL     1      -1.911  10.525  16.988  0.00  0.00    +0.000 A 
ATOM     10  C   UNL     1      -2.583  10.254  15.801  0.00  0.00    +0.000 A 
ATOM     11  C   UNL     1      -3.905  10.635  15.653  0.00  0.00    +0.000 A 
ATOM     12  C   UNL     1      -4.581  11.304  16.680  0.00  0.00    +0.000 A 
ATOM     13  C   UNL     1      -3.889  11.582  17.872  0.00  0.00    +0.000 A 
ATOM     14  N   UNL     1      -4.295  12.215  19.035  0.00  0.00    +0.000 N 
ATOM     15  C   UNL     1      -5.615  12.751  19.291  0.00  0.00    +0.000 C 
ENDROOT
BRANCH   1  17
ATOM     16  N   UNL     1       0.510   9.607  19.605  0.00  0.00    +0.000 N 
ATOM     17  C   UNL     1       0.316  10.969  19.551  0.00  0.00    +0.000 C 
ATOM     18  O   UNL     1       1.172  11.695  19.100  0.00  0.00    +0.000 OA
ATOM     19  H   UNL     1      -0.222   8.978  19.866  0.00  0.00    +0.000 HD
BRANCH  16  20
ATOM     20  C   UNL     1       1.743   9.013  19.149  0.00  0.00    +0.000 C 
BRANCH  20  21
ATOM     21  C   UNL     1       1.986   7.643  19.768  0.00  0.00    +0.000 C 
BRANCH  21  22
ATOM     22  C   UNL     1       2.695   6.663  18.812  0.00  0.00    +0.000 C 
BRANCH  22  23
ATOM     23  N   UNL     1       3.016   5.342  19.408  0.00  0.00    +0.000 NA
BRANCH  23  25
ATOM     24  C   UNL     1       1.252   3.988  20.679  0.00  0.00    +0.000 C 
ATOM     25  C   UNL     1       1.808   4.492  19.353  0.00  0.00    +0.000 C 
ENDBRANCH  23  25
BRANCH  23  26
ATOM     26  C   UNL     1       4.189   4.733  18.747  0.00  0.00    +0.000 C 
ATOM     27  C   UNL     1       3.957   4.097  17.381  0.00  0.00    +0.000 C 
ENDBRANCH  23  26
ENDBRANCH  22  23
ENDBRANCH  21  22
ENDBRANCH  20  21
ENDBRANCH  16  20
ENDBRANCH   1  17
BRANCH   3  28
ATOM     28  C   UNL     1      -1.892  13.271  23.274  0.00  0.00    +0.000 C 
BRANCH  28  29
ATOM     29  C   UNL     1      -0.969  14.509  23.307  0.00  0.00    +0.000 C 
ATOM     30  C   UNL     1      -1.231  15.480  22.152  0.00  0.00    +0.000 C 
ATOM     31  C   UNL     1      -1.098  15.262  24.631  0.00  0.00    +0.000 C 
ENDBRANCH  28  29
ENDBRANCH   3  28
TORSDOF 9
ENDMDL
MODEL 2
REMARK VINA RESULT:      -6.3      3.142      9.881
REMARK  Name = 
REMARK  14 active torsions:
REMARK  status: ('A' for Active; 'I' for Inactive)
REMARK    1  A    between atoms: C_1  and  C_2
REMARK    2  A    between atoms: C_2  and  N_3
REMARK    3  A    between atoms: N_3  and  C_4
REMARK    4  A    between atoms: N_3  and  C_6
REMARK    5  A    between atoms: C_4  and  C_5
REMARK    6  A    between atoms: C_6  and  C_7
REMARK    7  A    between atoms: C_7  and  C_8
REMARK    8  A    between atoms: C_8  and  N_9
REMARK    9  A    between atoms: C_10  and  C_12
REMARK   10  A    between atoms: N_14  and  C_15
REMARK   11  A    between atoms: C_15  and  C_16
REMARK   12  A    between atoms: C_16  and  C_17
REMARK   13  A    between atoms: C_16  and  C_18
REMARK   14  A    between atoms: N_29  and  C_30
REMARK                            x       y       z     vdW  Elec       q    Type
REMARK                         _______ _______ _______ _____ _____    ______ ____
ROOT
ATOM      1  C   UNL     1       3.375   6.535  18.263  0.00  0.00    +0.000 A 
ATOM      2  C   UNL     1       4.403   7.060  17.561  0.00  0.00    +0.000 A 
ATOM      3  N   UNL     1       5.375   6.284  16.937  0.00  0.00    +0.000 N 
ATOM      4  C   UNL     1       5.322   4.878  16.964  0.00  0.00    +0.000 A 
ATOM      5  O   UNL     1       6.179   4.169  16.427  0.00  0.00    +0.000 OA
ATOM      6  C   UNL     1       4.187   4.339  17.681  0.00  0.00    +0.000 A 
ATOM      7  C   UNL     1       3.238   5.117  18.332  0.00  0.00    +0.000 A 
ATOM      8  C   UNL     1       2.284   4.250  18.926  0.00  0.00    +0.000 A 
ATOM      9  C   UNL     1       1.115   4.428  19.695  0.00  0.00    +0.000 A 
ATOM     10  C   UNL     1       0.367   3.337  20.124  0.00  0.00    +0.000 A 
ATOM     11  C   UNL     1       0.760   2.054  19.785  0.00  0.00    +0.000 A 
ATOM     12  C   UNL     1       1.912   1.831  19.022  0.00  0.00    +0.000 A 
ATOM     13  C   UNL     1       2.667   2.941  18.603  0.00  0.00    +0.000 A 
ATOM     14  N   UNL     1       3.828   3.023  17.851  0.00  0.00    +0.000 N 
ATOM     15  C   UNL     1       4.553   1.903  17.289  0.00  0.00    +0.000 C 
ENDROOT
BRANCH   1  17
ATOM     16  N   UNL     1       1.963   8.523  18.369  0.00  0.00    +0.000 N 
ATOM     17  C   UNL     1       2.529   7.484  19.072  0.00  0.00    +0.000 C 
ATOM     18  O   UNL     1       2.371   7.391  20.267  0.00  0.00    +0.000 OA
ATOM     19  H   UNL     1       1.983   8.560  17.370  0.00  0.00    +0.000 HD
BRANCH  16  20
ATOM     20  C   UNL     1       1.187   9.538  19.039  0.00  0.00    +0.000 C 
BRANCH  20  21
ATOM     21  C   UNL     1       0.339  10.349  18.069  0.00  0.00    +0.000 C 
BRANCH  21  22
ATOM     22  C   UNL     1      -1.177  10.147  18.273  0.00  0.00    +0.000 C 
BRANCH  22  23
ATOM     23  N   UNL     1      -2.034  10.883  17.310  0.00  0.00    +0.000 NA
BRANCH  23  25
ATOM     24  C   UNL     1      -3.346  10.509  15.142  0.00  0.00    +0.000 C 
ATOM     25  C   UNL     1      -2.446   9.953  16.238  0.00  0.00    +0.000 C 
ENDBRANCH  23  25
BRANCH  23  26
ATOM     26  C   UNL     1      -3.174  11.525  17.997  0.00  0.00    +0.000 C 
ATOM     27  C   UNL     1      -2.896  12.143  19.363  0.00  0.00    +0.000 C 
ENDBRANCH  23  26
ENDBRANCH  22  23
ENDBRANCH  21  22
ENDBRANCH  20  21
ENDBRANCH  16  20
ENDBRANCH   1  17
BRANCH   3  28
ATOM     28  C   UNL     1       6.576   6.908  16.364  0.00  0.00    +0.000 C 
BRANCH  28  29
ATOM     29  C   UNL     1       7.728   7.208  17.348  0.00  0.00    +0.000 C 
ATOM     30  C   UNL     1       7.798   8.685  17.753  0.00  0.00    +0.000 C 
ATOM     31  C   UNL     1       7.619   6.351  18.608  0.00  0.00    +0.000 C 
ENDBRANCH  28  29
ENDBRANCH   3  28
TORSDOF 9
ENDMDL
MODEL 3
REMARK VINA RESULT:      -6.3      0.911      1.416
REMARK  Name = 
REMARK  14 active torsions:
REMARK  status: ('A' for Active; 'I' for Inactive)
REMARK    1  A    between atoms: C_1  and  C_2
REMARK    2  A    between atoms: C_2  and  N_3
REMARK    3  A    between atoms: N_3  and  C_4
REMARK    4  A    between atoms: N_3  and  C_6
REMARK    5  A    between atoms: C_4  and  C_5
REMARK    6  A    between atoms: C_6  and  C_7
REMARK    7  A    between atoms: C_7  and  C_8
REMARK    8  A    between atoms: C_8  and  N_9
REMARK    9  A    between atoms: C_10  and  C_12
REMARK   10  A    between atoms: N_14  and  C_15
REMARK   11  A    between atoms: C_15  and  C_16
REMARK   12  A    between atoms: C_16  and  C_17
REMARK   13  A    between atoms: C_16  and  C_18
REMARK   14  A    between atoms: N_29  and  C_30
REMARK                            x       y       z     vdW  Elec       q    Type
REMARK                         _______ _______ _______ _____ _____    ______ ____
ROOT
ATOM      1  C   UNL     1      -0.571  11.463  19.825  0.00  0.00    +0.000 A 
ATOM      2  C   UNL     1      -0.418  11.898  21.095  0.00  0.00    +0.000 A 
ATOM      3  N   UNL     1      -1.442  12.489  21.828  0.00  0.00    +0.000 N 
ATOM      4  C   UNL     1      -2.736  12.634  21.295  0.00  0.00    +0.000 A 
ATOM      5  O   UNL     1      -3.658  13.165  21.923  0.00  0.00    +0.000 OA
ATOM      6  C   UNL     1      -2.889  12.119  19.952  0.00  0.00    +0.000 A 
ATOM      7  C   UNL     1      -1.854  11.561  19.212  0.00  0.00    +0.000 A 
ATOM      8  C   UNL     1      -2.371  11.176  17.947  0.00  0.00    +0.000 A 
ATOM      9  C   UNL     1      -1.834  10.570  16.792  0.00  0.00    +0.000 A 
ATOM     10  C   UNL     1      -2.635  10.300  15.688  0.00  0.00    +0.000 A 
ATOM     11  C   UNL     1      -3.982  10.615  15.717  0.00  0.00    +0.000 A 
ATOM     12  C   UNL     1      -4.557  11.215  16.843  0.00  0.00    +0.000 A 
ATOM     13  C   UNL     1      -3.736  11.494  17.951  0.00  0.00    +0.000 A 
ATOM     14  N   UNL     1      -4.023  12.070  19.177  0.00  0.00    +0.000 N 
ATOM     15  C   UNL     1      -5.326  12.528  19.612  0.00  0.00    +0.000 C 
ENDROOT
BRANCH   1  17
ATOM     16  N   UNL     1       0.947   9.705  19.074  0.00  0.00    +0.000 N 
ATOM     17  C   UNL     1       0.671  11.054  19.076  0.00  0.00    +0.000 C 
ATOM     18  O   UNL     1       1.418  11.836  18.536  0.00  0.00    +0.000 OA
ATOM     19  H   UNL     1       0.292   9.030  19.412  0.00  0.00    +0.000 HD
BRANCH  16  20
ATOM     20  C   UNL     1       2.142   9.192  18.450  0.00  0.00    +0.000 C 
BRANCH  20  21
ATOM     21  C   UNL     1       1.911   7.841  17.787  0.00  0.00    +0.000 C 
BRANCH  21  22
ATOM     22  C   UNL     1       2.618   6.680  18.516  0.00  0.00    +0.000 C 
BRANCH  22  23
ATOM     23  N   UNL     1       2.826   5.465  17.688  0.00  0.00    +0.000 NA
BRANCH  23  25
ATOM     24  C   UNL     1       4.806   5.360  19.308  0.00  0.00    +0.000 C 
ATOM     25  C   UNL     1       4.143   4.886  18.022  0.00  0.00    +0.000 C 
ENDBRANCH  23  25
BRANCH  23  26
ATOM     26  C   UNL     1       1.709   4.512  17.854  0.00  0.00    +0.000 C 
ATOM     27  C   UNL     1       2.079   3.051  18.089  0.00  0.00    +0.000 C 
ENDBRANCH  23  26
ENDBRANCH  22  23
ENDBRANCH  21  22
ENDBRANCH  20  21
ENDBRANCH  16  20
ENDBRANCH   1  17
BRANCH   3  28
ATOM     28  C   UNL     1      -1.164  13.124  23.124  0.00  0.00    +0.000 C 
BRANCH  28  29
ATOM     29  C   UNL     1      -1.053  14.664  23.122  0.00  0.00    +0.000 C 
ATOM     30  C   UNL     1      -1.193  15.275  24.521  0.00  0.00    +0.000 C 
ATOM     31  C   UNL     1       0.267  15.125  22.507  0.00  0.00    +0.000 C 
ENDBRANCH  28  29
ENDBRANCH   3  28
TORSDOF 9
ENDMDL
MODEL 4
REMARK VINA RESULT:      -6.2      0.919      1.195
REMARK  Name = 
REMARK  14 active torsions:
REMARK  status: ('A' for Active; 'I' for Inactive)
REMARK    1  A    between atoms: C_1  and  C_2
REMARK    2  A    between atoms: C_2  and  N_3
REMARK    3  A    between atoms: N_3  and  C_4
REMARK    4  A    between atoms: N_3  and  C_6
REMARK    5  A    between atoms: C_4  and  C_5
REMARK    6  A    between atoms: C_6  and  C_7
REMARK    7  A    between atoms: C_7  and  C_8
REMARK    8  A    between atoms: C_8  and  N_9
REMARK    9  A    between atoms: C_10  and  C_12
REMARK   10  A    between atoms: N_14  and  C_15
REMARK   11  A    between atoms: C_15  and  C_16
REMARK   12  A    between atoms: C_16  and  C_17
REMARK   13  A    between atoms: C_16  and  C_18
REMARK   14  A    between atoms: N_29  and  C_30
REMARK                            x       y       z     vdW  Elec       q    Type
REMARK                         _______ _______ _______ _____ _____    ______ ____
ROOT
ATOM      1  C   UNL     1      -0.685  11.392  19.826  0.00  0.00    +0.000 A 
ATOM      2  C   UNL     1      -0.552  11.846  21.092  0.00  0.00    +0.000 A 
ATOM      3  N   UNL     1      -1.572  12.493  21.782  0.00  0.00    +0.000 N 
ATOM      4  C   UNL     1      -2.842  12.680  21.208  0.00  0.00    +0.000 A 
ATOM      5  O   UNL     1      -3.760  13.261  21.797  0.00  0.00    +0.000 OA
ATOM      6  C   UNL     1      -2.977  12.145  19.871  0.00  0.00    +0.000 A 
ATOM      7  C   UNL     1      -1.945  11.530  19.173  0.00  0.00    +0.000 A 
ATOM      8  C   UNL     1      -2.440  11.141  17.901  0.00  0.00    +0.000 A 
ATOM      9  C   UNL     1      -1.896  10.490  16.774  0.00  0.00    +0.000 A 
ATOM     10  C   UNL     1      -2.674  10.230  15.651  0.00  0.00    +0.000 A 
ATOM     11  C   UNL     1      -4.008  10.601  15.635  0.00  0.00    +0.000 A 
ATOM     12  C   UNL     1      -4.589  11.247  16.731  0.00  0.00    +0.000 A 
ATOM     13  C   UNL     1      -3.790  11.514  17.857  0.00  0.00    +0.000 A 
ATOM     14  N   UNL     1      -4.089  12.126  19.063  0.00  0.00    +0.000 N 
ATOM     15  C   UNL     1      -5.384  12.646  19.450  0.00  0.00    +0.000 C 
ENDROOT
BRANCH   1  17
ATOM     16  N   UNL     1       0.678   9.554  18.979  0.00  0.00    +0.000 N 
ATOM     17  C   UNL     1       0.560  10.917  19.123  0.00  0.00    +0.000 C 
ATOM     18  O   UNL     1       1.435  11.656  18.734  0.00  0.00    +0.000 OA
ATOM     19  H   UNL     1      -0.076   8.932  19.186  0.00  0.00    +0.000 HD
BRANCH  16  20
ATOM     20  C   UNL     1       1.854   8.969  18.384  0.00  0.00    +0.000 C 
BRANCH  20  21
ATOM     21  C   UNL     1       2.300   7.706  19.109  0.00  0.00    +0.000 C 
BRANCH  21  22
ATOM     22  C   UNL     1       2.478   6.497  18.168  0.00  0.00    +0.000 C 
BRANCH  22  23
ATOM     23  N   UNL     1       3.833   5.892  18.189  0.00  0.00    +0.000 NA
BRANCH  23  25
ATOM     24  C   UNL     1       2.795   3.681  17.416  0.00  0.00    +0.000 C 
ATOM     25  C   UNL     1       3.697   4.434  18.386  0.00  0.00    +0.000 C 
ENDBRANCH  23  25
BRANCH  23  26
ATOM     26  C   UNL     1       4.592   6.248  16.971  0.00  0.00    +0.000 C 
ATOM     27  C   UNL     1       5.962   6.885  17.176  0.00  0.00    +0.000 C 
ENDBRANCH  23  26
ENDBRANCH  22  23
ENDBRANCH  21  22
ENDBRANCH  20  21
ENDBRANCH  16  20
ENDBRANCH   1  17
BRANCH   3  28
ATOM     28  C   UNL     1      -1.306  13.143  23.073  0.00  0.00    +0.000 C 
BRANCH  28  29
ATOM     29  C   UNL     1      -0.607  14.518  23.017  0.00  0.00    +0.000 C 
ATOM     30  C   UNL     1      -0.882  15.276  21.713  0.00  0.00    +0.000 C 
ATOM     31  C   UNL     1      -1.016  15.397  24.198  0.00  0.00    +0.000 C 
ENDBRANCH  28  29
ENDBRANCH   3  28
TORSDOF 9
ENDMDL
MODEL 5
REMARK VINA RESULT:      -6.2      3.020      4.374
REMARK  Name = 
REMARK  14 active torsions:
REMARK  status: ('A' for Active; 'I' for Inactive)
REMARK    1  A    between atoms: C_1  and  C_2
REMARK    2  A    between atoms: C_2  and  N_3
REMARK    3  A    between atoms: N_3  and  C_4
REMARK    4  A    between atoms: N_3  and  C_6
REMARK    5  A    between atoms: C_4  and  C_5
REMARK    6  A    between atoms: C_6  and  C_7
REMARK    7  A    between atoms: C_7  and  C_8
REMARK    8  A    between atoms: C_8  and  N_9
REMARK    9  A    between atoms: C_10  and  C_12
REMARK   10  A    between atoms: N_14  and  C_15
REMARK   11  A    between atoms: C_15  and  C_16
REMARK   12  A    between atoms: C_16  and  C_17
REMARK   13  A    between atoms: C_16  and  C_18
REMARK   14  A    between atoms: N_29  and  C_30
REMARK                            x       y       z     vdW  Elec       q    Type
REMARK                         _______ _______ _______ _____ _____    ______ ____
ROOT
ATOM      1  C   UNL     1       0.979  12.879  19.229  0.00  0.00    +0.000 A 
ATOM      2  C   UNL     1       0.822  14.109  18.691  0.00  0.00    +0.000 A 
ATOM      3  N   UNL     1      -0.098  15.037  19.167  0.00  0.00    +0.000 N 
ATOM      4  C   UNL     1      -0.907  14.763  20.285  0.00  0.00    +0.000 A 
ATOM      5  O   UNL     1      -1.738  15.567  20.718  0.00  0.00    +0.000 OA
ATOM      6  C   UNL     1      -0.689  13.459  20.873  0.00  0.00    +0.000 A 
ATOM      7  C   UNL     1       0.206  12.522  20.373  0.00  0.00    +0.000 A 
ATOM      8  C   UNL     1       0.147  11.368  21.197  0.00  0.00    +0.000 A 
ATOM      9  C   UNL     1       0.797  10.116  21.211  0.00  0.00    +0.000 A 
ATOM     10  C   UNL     1       0.519   9.176  22.197  0.00  0.00    +0.000 A 
ATOM     11  C   UNL     1      -0.397   9.468  23.192  0.00  0.00    +0.000 A 
ATOM     12  C   UNL     1      -1.064  10.698  23.218  0.00  0.00    +0.000 A 
ATOM     13  C   UNL     1      -0.784  11.638  22.209  0.00  0.00    +0.000 A 
ATOM     14  N   UNL     1      -1.280  12.911  21.986  0.00  0.00    +0.000 N 
ATOM     15  C   UNL     1      -2.253  13.597  22.811  0.00  0.00    +0.000 C 
ENDROOT
BRANCH   1  17
ATOM     16  N   UNL     1       1.283  10.660  18.258  0.00  0.00    +0.000 N 
ATOM     17  C   UNL     1       1.843  11.898  18.480  0.00  0.00    +0.000 C 
ATOM     18  O   UNL     1       2.973  12.136  18.120  0.00  0.00    +0.000 OA
ATOM     19  H   UNL     1       0.318  10.475  18.442  0.00  0.00    +0.000 HD
BRANCH  16  20
ATOM     20  C   UNL     1       2.032   9.610  17.613  0.00  0.00    +0.000 C 
BRANCH  20  21
ATOM     21  C   UNL     1       2.000   8.309  18.404  0.00  0.00    +0.000 C 
BRANCH  21  22
ATOM     22  C   UNL     1       3.093   7.310  17.973  0.00  0.00    +0.000 C 
BRANCH  22  23
ATOM     23  N   UNL     1       2.804   5.894  18.312  0.00  0.00    +0.000 NA
BRANCH  23  25
ATOM     24  C   UNL     1       3.507   3.520  17.653  0.00  0.00    +0.000 C 
ATOM     25  C   UNL     1       3.685   5.026  17.502  0.00  0.00    +0.000 C 
ENDBRANCH  23  25
BRANCH  23  26
ATOM     26  C   UNL     1       2.929   5.660  19.766  0.00  0.00    +0.000 C 
ATOM     27  C   UNL     1       1.681   5.173  20.494  0.00  0.00    +0.000 C 
ENDBRANCH  23  26
ENDBRANCH  22  23
ENDBRANCH  21  22
ENDBRANCH  20  21
ENDBRANCH  16  20
ENDBRANCH   1  17
BRANCH   3  28
ATOM     28  C   UNL     1      -0.367  16.274  18.420  0.00  0.00    +0.000 C 
BRANCH  28  29
ATOM     29  C   UNL     1       0.771  17.318  18.392  0.00  0.00    +0.000 C 
ATOM     30  C   UNL     1       0.703  18.243  17.172  0.00  0.00    +0.000 C 
ATOM     31  C   UNL     1       0.776  18.167  19.661  0.00  0.00    +0.000 C 
ENDBRANCH  28  29
ENDBRANCH   3  28
TORSDOF 9
ENDMDL
MODEL 6
REMARK VINA RESULT:      -6.1      2.965      9.790
REMARK  Name = 
REMARK  14 active torsions:
REMARK  status: ('A' for Active; 'I' for Inactive)
REMARK    1  A    between atoms: C_1  and  C_2
REMARK    2  A    between atoms: C_2  and  N_3
REMARK    3  A    between atoms: N_3  and  C_4
REMARK    4  A    between atoms: N_3  and  C_6
REMARK    5  A    between atoms: C_4  and  C_5
REMARK    6  A    between atoms: C_6  and  C_7
REMARK    7  A    between atoms: C_7  and  C_8
REMARK    8  A    between atoms: C_8  and  N_9
REMARK    9  A    between atoms: C_10  and  C_12
REMARK   10  A    between atoms: N_14  and  C_15
REMARK   11  A    between atoms: C_15  and  C_16
REMARK   12  A    between atoms: C_16  and  C_17
REMARK   13  A    between atoms: C_16  and  C_18
REMARK   14  A    between atoms: N_29  and  C_30
REMARK                            x       y       z     vdW  Elec       q    Type
REMARK                         _______ _______ _______ _____ _____    ______ ____
ROOT
ATOM      1  C   UNL     1       3.374   6.536  18.243  0.00  0.00    +0.000 A 
ATOM      2  C   UNL     1       4.406   7.072  17.556  0.00  0.00    +0.000 A 
ATOM      3  N   UNL     1       5.380   6.307  16.922  0.00  0.00    +0.000 N 
ATOM      4  C   UNL     1       5.324   4.902  16.922  0.00  0.00    +0.000 A 
ATOM      5  O   UNL     1       6.183   4.202  16.375  0.00  0.00    +0.000 OA
ATOM      6  C   UNL     1       4.186   4.350  17.623  0.00  0.00    +0.000 A 
ATOM      7  C   UNL     1       3.235   5.117  18.284  0.00  0.00    +0.000 A 
ATOM      8  C   UNL     1       2.277   4.240  18.858  0.00  0.00    +0.000 A 
ATOM      9  C   UNL     1       1.105   4.405  19.625  0.00  0.00    +0.000 A 
ATOM     10  C   UNL     1       0.354   3.307  20.030  0.00  0.00    +0.000 A 
ATOM     11  C   UNL     1       0.747   2.030  19.668  0.00  0.00    +0.000 A 
ATOM     12  C   UNL     1       1.902   1.821  18.906  0.00  0.00    +0.000 A 
ATOM     13  C   UNL     1       2.660   2.937  18.511  0.00  0.00    +0.000 A 
ATOM     14  N   UNL     1       3.824   3.032  17.767  0.00  0.00    +0.000 N 
ATOM     15  C   UNL     1       4.550   1.921  17.186  0.00  0.00    +0.000 C 
ENDROOT
BRANCH   1  17
ATOM     16  N   UNL     1       1.959   8.520  18.380  0.00  0.00    +0.000 N 
ATOM     17  C   UNL     1       2.526   7.471  19.066  0.00  0.00    +0.000 C 
ATOM     18  O   UNL     1       2.367   7.358  20.260  0.00  0.00    +0.000 OA
ATOM     19  H   UNL     1       1.980   8.573  17.382  0.00  0.00    +0.000 HD
BRANCH  16  20
ATOM     20  C   UNL     1       1.181   9.523  19.065  0.00  0.00    +0.000 C 
BRANCH  20  21
ATOM     21  C   UNL     1       1.421  10.919  18.507  0.00  0.00    +0.000 C 
BRANCH  21  22
ATOM     22  C   UNL     1       0.316  11.924  18.891  0.00  0.00    +0.000 C 
BRANCH  22  23
ATOM     23  N   UNL     1      -0.999  11.308  19.202  0.00  0.00    +0.000 NA
BRANCH  23  25
ATOM     24  C   UNL     1      -2.662  12.948  20.254  0.00  0.00    +0.000 C 
ATOM     25  C   UNL     1      -1.536  11.937  20.427  0.00  0.00    +0.000 C 
ENDBRANCH  23  25
BRANCH  23  26
ATOM     26  C   UNL     1      -1.915  11.402  18.047  0.00  0.00    +0.000 C 
ATOM     27  C   UNL     1      -2.139  10.127  17.241  0.00  0.00    +0.000 C 
ENDBRANCH  23  26
ENDBRANCH  22  23
ENDBRANCH  21  22
ENDBRANCH  20  21
ENDBRANCH  16  20
ENDBRANCH   1  17
BRANCH   3  28
ATOM     28  C   UNL     1       6.584   6.941  16.366  0.00  0.00    +0.000 C 
BRANCH  28  29
ATOM     29  C   UNL     1       7.737   7.208  17.358  0.00  0.00    +0.000 C 
ATOM     30  C   UNL     1       7.841   8.680  17.772  0.00  0.00    +0.000 C 
ATOM     31  C   UNL     1       7.601   6.346  18.612  0.00  0.00    +0.000 C 
ENDBRANCH  28  29
ENDBRANCH   3  28
TORSDOF 9
ENDMDL
MODEL 7
REMARK VINA RESULT:      -6.1      2.457      3.002
REMARK  Name = 
REMARK  14 active torsions:
REMARK  status: ('A' for Active; 'I' for Inactive)
REMARK    1  A    between atoms: C_1  and  C_2
REMARK    2  A    between atoms: C_2  and  N_3
REMARK    3  A    between atoms: N_3  and  C_4
REMARK    4  A    between atoms: N_3  and  C_6
REMARK    5  A    between atoms: C_4  and  C_5
REMARK    6  A    between atoms: C_6  and  C_7
REMARK    7  A    between atoms: C_7  and  C_8
REMARK    8  A    between atoms: C_8  and  N_9
REMARK    9  A    between atoms: C_10  and  C_12
REMARK   10  A    between atoms: N_14  and  C_15
REMARK   11  A    between atoms: C_15  and  C_16
REMARK   12  A    between atoms: C_16  and  C_17
REMARK   13  A    between atoms: C_16  and  C_18
REMARK   14  A    between atoms: N_29  and  C_30
REMARK                            x       y       z     vdW  Elec       q    Type
REMARK                         _______ _______ _______ _____ _____    ______ ____
ROOT
ATOM      1  C   UNL     1       0.906  11.561  19.394  0.00  0.00    +0.000 A 
ATOM      2  C   UNL     1       1.714  12.326  20.160  0.00  0.00    +0.000 A 
ATOM      3  N   UNL     1       1.263  13.430  20.878  0.00  0.00    +0.000 N 
ATOM      4  C   UNL     1      -0.094  13.797  20.883  0.00  0.00    +0.000 A 
ATOM      5  O   UNL     1      -0.515  14.779  21.504  0.00  0.00    +0.000 OA
ATOM      6  C   UNL     1      -0.948  12.936  20.094  0.00  0.00    +0.000 A 
ATOM      7  C   UNL     1      -0.488  11.856  19.352  0.00  0.00    +0.000 A 
ATOM      8  C   UNL     1      -1.601  11.254  18.708  0.00  0.00    +0.000 A 
ATOM      9  C   UNL     1      -1.780  10.152  17.846  0.00  0.00    +0.000 A 
ATOM     10  C   UNL     1      -3.045   9.799  17.389  0.00  0.00    +0.000 A 
ATOM     11  C   UNL     1      -4.153  10.524  17.790  0.00  0.00    +0.000 A 
ATOM     12  C   UNL     1      -4.021  11.624  18.646  0.00  0.00    +0.000 A 
ATOM     13  C   UNL     1      -2.736  11.979  19.094  0.00  0.00    +0.000 A 
ATOM     14  N   UNL     1      -2.312  12.998  19.931  0.00  0.00    +0.000 N 
ATOM     15  C   UNL     1      -3.165  13.973  20.577  0.00  0.00    +0.000 C 
ENDROOT
BRANCH   1  17
ATOM     16  N   UNL     1       1.445   9.231  18.903  0.00  0.00    +0.000 N 
ATOM     17  C   UNL     1       1.559  10.541  18.497  0.00  0.00    +0.000 C 
ATOM     18  O   UNL     1       2.185  10.825  17.502  0.00  0.00    +0.000 OA
ATOM     19  H   UNL     1       0.842   8.960  19.653  0.00  0.00    +0.000 HD
BRANCH  16  20
ATOM     20  C   UNL     1       2.083   8.167  18.168  0.00  0.00    +0.000 C 
BRANCH  20  21
ATOM     21  C   UNL     1       2.545   7.036  19.077  0.00  0.00    +0.000 C 
BRANCH  21  22
ATOM     22  C   UNL     1       2.877   5.739  18.311  0.00  0.00    +0.000 C 
BRANCH  22  23
ATOM     23  N   UNL     1       2.108   4.547  18.752  0.00  0.00    +0.000 NA
BRANCH  23  25
ATOM     24  C   UNL     1       2.440   2.167  17.866  0.00  0.00    +0.000 C 
ATOM     25  C   UNL     1       2.980   3.359  18.647  0.00  0.00    +0.000 C 
ENDBRANCH  23  25
BRANCH  23  26
ATOM     26  C   UNL     1       1.550   4.746  20.105  0.00  0.00    +0.000 C 
ATOM     27  C   UNL     1       2.141   3.896  21.225  0.00  0.00    +0.000 C 
ENDBRANCH  23  26
ENDBRANCH  22  23
ENDBRANCH  21  22
ENDBRANCH  20  21
ENDBRANCH  16  20
ENDBRANCH   1  17
BRANCH   3  28
ATOM     28  C   UNL     1       2.218  14.340  21.526  0.00  0.00    +0.000 C 
BRANCH  28  29
ATOM     29  C   UNL     1       3.691  14.218  21.080  0.00  0.00    +0.000 C 
ATOM     30  C   UNL     1       4.079  15.244  20.008  0.00  0.00    +0.000 C 
ATOM     31  C   UNL     1       4.643  14.355  22.267  0.00  0.00    +0.000 C 
ENDBRANCH  28  29
ENDBRANCH   3  28
TORSDOF 9
ENDMDL
MODEL 8
REMARK VINA RESULT:      -6.1      3.244      9.703
REMARK  Name = 
REMARK  14 active torsions:
REMARK  status: ('A' for Active; 'I' for Inactive)
REMARK    1  A    between atoms: C_1  and  C_2
REMARK    2  A    between atoms: C_2  and  N_3
REMARK    3  A    between atoms: N_3  and  C_4
REMARK    4  A    between atoms: N_3  and  C_6
REMARK    5  A    between atoms: C_4  and  C_5
REMARK    6  A    between atoms: C_6  and  C_7
REMARK    7  A    between atoms: C_7  and  C_8
REMARK    8  A    between atoms: C_8  and  N_9
REMARK    9  A    between atoms: C_10  and  C_12
REMARK   10  A    between atoms: N_14  and  C_15
REMARK   11  A    between atoms: C_15  and  C_16
REMARK   12  A    between atoms: C_16  and  C_17
REMARK   13  A    between atoms: C_16  and  C_18
REMARK   14  A    between atoms: N_29  and  C_30
REMARK                            x       y       z     vdW  Elec       q    Type
REMARK                         _______ _______ _______ _____ _____    ______ ____
ROOT
ATOM      1  C   UNL     1       3.391   6.560  18.001  0.00  0.00    +0.000 A 
ATOM      2  C   UNL     1       4.465   7.039  17.335  0.00  0.00    +0.000 A 
ATOM      3  N   UNL     1       5.499   6.230  16.874  0.00  0.00    +0.000 N 
ATOM      4  C   UNL     1       5.468   4.834  17.038  0.00  0.00    +0.000 A 
ATOM      5  O   UNL     1       6.379   4.098  16.646  0.00  0.00    +0.000 OA
ATOM      6  C   UNL     1       4.287   4.339  17.711  0.00  0.00    +0.000 A 
ATOM      7  C   UNL     1       3.274   5.153  18.201  0.00  0.00    +0.000 A 
ATOM      8  C   UNL     1       2.289   4.325  18.800  0.00  0.00    +0.000 A 
ATOM      9  C   UNL     1       1.058   4.548  19.450  0.00  0.00    +0.000 A 
ATOM     10  C   UNL     1       0.296   3.486  19.925  0.00  0.00    +0.000 A 
ATOM     11  C   UNL     1       0.738   2.186  19.750  0.00  0.00    +0.000 A 
ATOM     12  C   UNL     1       1.953   1.919  19.109  0.00  0.00    +0.000 A 
ATOM     13  C   UNL     1       2.721   3.001  18.643  0.00  0.00    +0.000 A 
ATOM     14  N   UNL     1       3.938   3.037  17.983  0.00  0.00    +0.000 N 
ATOM     15  C   UNL     1       4.727   1.886  17.597  0.00  0.00    +0.000 C 
ENDROOT
BRANCH   1  17
ATOM     16  N   UNL     1       1.818   8.412  17.771  0.00  0.00    +0.000 N 
ATOM     17  C   UNL     1       2.465   7.563  18.639  0.00  0.00    +0.000 C 
ATOM     18  O   UNL     1       2.309   7.668  19.834  0.00  0.00    +0.000 OA
ATOM     19  H   UNL     1       1.840   8.275  16.781  0.00  0.00    +0.000 HD
BRANCH  16  20
ATOM     20  C   UNL     1       0.957   9.460  18.260  0.00  0.00    +0.000 C 
BRANCH  20  21
ATOM     21  C   UNL     1       1.730  10.725  18.610  0.00  0.00    +0.000 C 
BRANCH  21  22
ATOM     22  C   UNL     1       1.132  11.489  19.809  0.00  0.00    +0.000 C 
BRANCH  22  23
ATOM     23  N   UNL     1      -0.054  10.842  20.425  0.00  0.00    +0.000 NA
BRANCH  23  25
ATOM     24  C   UNL     1      -0.742  10.553  22.875  0.00  0.00    +0.000 C 
ATOM     25  C   UNL     1       0.309  10.390  21.785  0.00  0.00    +0.000 C 
ENDBRANCH  23  25
BRANCH  23  26
ATOM     26  C   UNL     1      -1.223  11.745  20.402  0.00  0.00    +0.000 C 
ATOM     27  C   UNL     1      -1.554  12.410  19.070  0.00  0.00    +0.000 C 
ENDBRANCH  23  26
ENDBRANCH  22  23
ENDBRANCH  21  22
ENDBRANCH  20  21
ENDBRANCH  16  20
ENDBRANCH   1  17
BRANCH   3  28
ATOM     28  C   UNL     1       6.732   6.826  16.340  0.00  0.00    +0.000 C 
BRANCH  28  29
ATOM     29  C   UNL     1       7.799   7.238  17.378  0.00  0.00    +0.000 C 
ATOM     30  C   UNL     1       7.727   8.723  17.752  0.00  0.00    +0.000 C 
ATOM     31  C   UNL     1       7.689   6.398  18.649  0.00  0.00    +0.000 C 
ENDBRANCH  28  29
ENDBRANCH   3  28
TORSDOF 9
ENDMDL
MODEL 9
REMARK VINA RESULT:      -6.0      0.787      1.378
REMARK  Name = 
REMARK  14 active torsions:
REMARK  status: ('A' for Active; 'I' for Inactive)
REMARK    1  A    between atoms: C_1  and  C_2
REMARK    2  A    between atoms: C_2  and  N_3
REMARK    3  A    between atoms: N_3  and  C_4
REMARK    4  A    between atoms: N_3  and  C_6
REMARK    5  A    between atoms: C_4  and  C_5
REMARK    6  A    between atoms: C_6  and  C_7
REMARK    7  A    between atoms: C_7  and  C_8
REMARK    8  A    between atoms: C_8  and  N_9
REMARK    9  A    between atoms: C_10  and  C_12
REMARK   10  A    between atoms: N_14  and  C_15
REMARK   11  A    between atoms: C_15  and  C_16
REMARK   12  A    between atoms: C_16  and  C_17
REMARK   13  A    between atoms: C_16  and  C_18
REMARK   14  A    between atoms: N_29  and  C_30
REMARK                            x       y       z     vdW  Elec       q    Type
REMARK                         _______ _______ _______ _____ _____    ______ ____
ROOT
ATOM      1  C   UNL     1      -1.292  11.474  20.448  0.00  0.00    +0.000 A 
ATOM      2  C   UNL     1      -1.389  12.031  21.675  0.00  0.00    +0.000 A 
ATOM      3  N   UNL     1      -2.479  12.795  22.082  0.00  0.00    +0.000 N 
ATOM      4  C   UNL     1      -3.585  13.002  21.239  0.00  0.00    +0.000 A 
ATOM      5  O   UNL     1      -4.559  13.685  21.574  0.00  0.00    +0.000 OA
ATOM      6  C   UNL     1      -3.481  12.357  19.948  0.00  0.00    +0.000 A 
ATOM      7  C   UNL     1      -2.376  11.624  19.534  0.00  0.00    +0.000 A 
ATOM      8  C   UNL     1      -2.625  11.151  18.219  0.00  0.00    +0.000 A 
ATOM      9  C   UNL     1      -1.909  10.371  17.287  0.00  0.00    +0.000 A 
ATOM     10  C   UNL     1      -2.456  10.056  16.047  0.00  0.00    +0.000 A 
ATOM     11  C   UNL     1      -3.726  10.499  15.720  0.00  0.00    +0.000 A 
ATOM     12  C   UNL     1      -4.472  11.273  16.616  0.00  0.00    +0.000 A 
ATOM     13  C   UNL     1      -3.905  11.595  17.862  0.00  0.00    +0.000 A 
ATOM     14  N   UNL     1      -4.400  12.329  18.927  0.00  0.00    +0.000 N 
ATOM     15  C   UNL     1      -5.705  12.955  18.990  0.00  0.00    +0.000 C 
ENDROOT
BRANCH   1  17
ATOM     16  N   UNL     1       0.088   9.492  20.090  0.00  0.00    +0.000 N 
ATOM     17  C   UNL     1       0.033  10.867  20.063  0.00  0.00    +0.000 C 
ATOM     18  O   UNL     1       1.013  11.518  19.782  0.00  0.00    +0.000 OA
ATOM     19  H   UNL     1      -0.732   8.932  20.207  0.00  0.00    +0.000 HD
BRANCH  16  20
ATOM     20  C   UNL     1       1.317   8.792  19.809  0.00  0.00    +0.000 C 
BRANCH  20  21
ATOM     21  C   UNL     1       1.514   7.585  20.717  0.00  0.00    +0.000 C 
BRANCH  21  22
ATOM     22  C   UNL     1       2.623   6.633  20.227  0.00  0.00    +0.000 C 
BRANCH  22  23
ATOM     23  N   UNL     1       2.337   5.964  18.933  0.00  0.00    +0.000 NA
BRANCH  23  25
ATOM     24  C   UNL     1       3.791   7.396  17.384  0.00  0.00    +0.000 C 
ATOM     25  C   UNL     1       3.537   6.063  18.076  0.00  0.00    +0.000 C 
ENDBRANCH  23  25
BRANCH  23  26
ATOM     26  C   UNL     1       1.881   4.574  19.142  0.00  0.00    +0.000 C 
ATOM     27  C   UNL     1       1.423   3.806  17.908  0.00  0.00    +0.000 C 
ENDBRANCH  23  26
ENDBRANCH  22  23
ENDBRANCH  21  22
ENDBRANCH  20  21
ENDBRANCH  16  20
ENDBRANCH   1  17
BRANCH   3  28
ATOM     28  C   UNL     1      -2.437  13.542  23.347  0.00  0.00    +0.000 C 
BRANCH  28  29
ATOM     29  C   UNL     1      -1.259  14.525  23.524  0.00  0.00    +0.000 C 
ATOM     30  C   UNL     1      -1.228  15.620  22.451  0.00  0.00    +0.000 C 
ATOM     31  C   UNL     1      -1.286  15.181  24.903  0.00  0.00    +0.000 C 
ENDBRANCH  28  29
ENDBRANCH   3  28
TORSDOF 9
ENDMDL
