MODEL 1
REMARK VINA RESULT:      -7.5      0.000      0.000
REMARK  Name = 
REMARK  4 active torsions:
REMARK  status: ('A' for Active; 'I' for Inactive)
REMARK    1  A    between atoms: C_1  and  C_2
REMARK    2  A    between atoms: C_2  and  S_3
REMARK    3  A    between atoms: S_3  and  C_4
REMARK    4  A    between atoms: C_8  and  C_9
REMARK                            x       y       z     vdW  Elec       q    Type
REMARK                         _______ _______ _______ _____ _____    ______ ____
ROOT
ATOM      1  C   UNL     1       3.885   4.810  18.942  0.00  0.00    +0.000 A 
ATOM      2  N   UNL     1       3.423   4.907  17.664  0.00  0.00    +0.000 NA
ATOM      3  N   UNL     1       4.256   4.838  16.624  0.00  0.00    +0.000 NA
ATOM      4  C   UNL     1       5.567   4.660  16.920  0.00  0.00    +0.000 A 
ATOM      5  C   UNL     1       6.746   4.486  16.145  0.00  0.00    +0.000 A 
ATOM      6  N   UNL     1       7.819   4.312  16.948  0.00  0.00    +0.000 NA
ATOM      7  N   UNL     1       7.315   4.406  18.197  0.00  0.00    +0.000 N 
ATOM      8  C   UNL     1       5.969   4.588  18.238  0.00  0.00    +0.000 A 
ATOM      9  N   UNL     1       5.175   4.664  19.319  0.00  0.00    +0.000 NA
ATOM     10  H   UNL     1       7.944   4.317  18.987  0.00  0.00    +0.000 HD
ENDROOT
BRANCH   5  11
ATOM     11  C   UNL     1       6.867   4.463  14.685  0.00  0.00    +0.000 A 
ATOM     12  C   UNL     1       6.138   3.545  13.916  0.00  0.00    +0.000 A 
ATOM     13  C   UNL     1       6.256   3.530  12.526  0.00  0.00    +0.000 A 
ATOM     14  C   UNL     1       7.106   4.428  11.886  0.00  0.00    +0.000 A 
ATOM     15  C   UNL     1       7.842   5.344  12.638  0.00  0.00    +0.000 A 
ATOM     16  C   UNL     1       7.721   5.364  14.029  0.00  0.00    +0.000 A 
ENDBRANCH   5  11
BRANCH   1  17
ATOM     17  S   UNL     1       2.671   4.801  20.240  0.00  0.00    +0.000 S 
BRANCH  17  19
ATOM     18  C   UNL     1       1.541   2.611  21.438  0.00  0.00    +0.000 C 
ATOM     19  C   UNL     1       2.784   3.038  20.676  0.00  0.00    +0.000 C 
ENDBRANCH  17  19
ENDBRANCH   1  17
TORSDOF 3
ENDMDL
MODEL 2
REMARK VINA RESULT:      -7.4      2.239      6.590
REMARK  Name = 
REMARK  4 active torsions:
REMARK  status: ('A' for Active; 'I' for Inactive)
REMARK    1  A    between atoms: C_1  and  C_2
REMARK    2  A    between atoms: C_2  and  S_3
REMARK    3  A    between atoms: S_3  and  C_4
REMARK    4  A    between atoms: C_8  and  C_9
REMARK                            x       y       z     vdW  Elec       q    Type
REMARK                         _______ _______ _______ _____ _____    ______ ____
ROOT
ATOM      1  C   UNL     1       6.583   4.516  15.217  0.00  0.00    +0.000 A 
ATOM      2  N   UNL     1       5.259   4.201  15.288  0.00  0.00    +0.000 NA
ATOM      3  N   UNL     1       4.634   4.120  16.464  0.00  0.00    +0.000 NA
ATOM      4  C   UNL     1       5.388   4.376  17.560  0.00  0.00    +0.000 A 
ATOM      5  C   UNL     1       5.122   4.451  18.956  0.00  0.00    +0.000 A 
ATOM      6  N   UNL     1       6.244   4.780  19.634  0.00  0.00    +0.000 NA
ATOM      7  N   UNL     1       7.192   4.879  18.678  0.00  0.00    +0.000 N 
ATOM      8  C   UNL     1       6.729   4.672  17.417  0.00  0.00    +0.000 A 
ATOM      9  N   UNL     1       7.408   4.754  16.261  0.00  0.00    +0.000 NA
ATOM     10  H   UNL     1       8.140   5.111  18.951  0.00  0.00    +0.000 HD
ENDROOT
BRANCH   5  11
ATOM     11  C   UNL     1       3.845   4.238  19.639  0.00  0.00    +0.000 A 
ATOM     12  C   UNL     1       2.975   5.308  19.888  0.00  0.00    +0.000 A 
ATOM     13  C   UNL     1       1.757   5.099  20.538  0.00  0.00    +0.000 A 
ATOM     14  C   UNL     1       1.396   3.818  20.951  0.00  0.00    +0.000 A 
ATOM     15  C   UNL     1       2.254   2.745  20.714  0.00  0.00    +0.000 A 
ATOM     16  C   UNL     1       3.470   2.952  20.059  0.00  0.00    +0.000 A 
ENDBRANCH   5  11
BRANCH   1  17
ATOM     17  S   UNL     1       7.280   4.706  13.592  0.00  0.00    +0.000 S 
BRANCH  17  19
ATOM     18  C   UNL     1       6.874   2.831  11.635  0.00  0.00    +0.000 C 
ATOM     19  C   UNL     1       6.126   3.619  12.697  0.00  0.00    +0.000 C 
ENDBRANCH  17  19
ENDBRANCH   1  17
TORSDOF 3
ENDMDL
MODEL 3
REMARK VINA RESULT:      -7.4      2.237      6.532
REMARK  Name = 
REMARK  4 active torsions:
REMARK  status: ('A' for Active; 'I' for Inactive)
REMARK    1  A    between atoms: C_1  and  C_2
REMARK    2  A    between atoms: C_2  and  S_3
REMARK    3  A    between atoms: S_3  and  C_4
REMARK    4  A    between atoms: C_8  and  C_9
REMARK                            x       y       z     vdW  Elec       q    Type
REMARK                         _______ _______ _______ _____ _____    ______ ____
ROOT
ATOM      1  C   UNL     1       6.575   4.505  15.257  0.00  0.00    +0.000 A 
ATOM      2  N   UNL     1       5.260   4.155  15.336  0.00  0.00    +0.000 NA
ATOM      3  N   UNL     1       4.639   4.069  16.514  0.00  0.00    +0.000 NA
ATOM      4  C   UNL     1       5.390   4.357  17.606  0.00  0.00    +0.000 A 
ATOM      5  C   UNL     1       5.125   4.439  19.001  0.00  0.00    +0.000 A 
ATOM      6  N   UNL     1       6.239   4.805  19.673  0.00  0.00    +0.000 NA
ATOM      7  N   UNL     1       7.181   4.919  18.714  0.00  0.00    +0.000 N 
ATOM      8  C   UNL     1       6.721   4.687  17.455  0.00  0.00    +0.000 A 
ATOM      9  N   UNL     1       7.395   4.775  16.297  0.00  0.00    +0.000 NA
ATOM     10  H   UNL     1       8.124   5.179  18.981  0.00  0.00    +0.000 HD
ENDROOT
BRANCH   5  11
ATOM     11  C   UNL     1       3.855   4.199  19.689  0.00  0.00    +0.000 A 
ATOM     12  C   UNL     1       3.507   2.915  20.132  0.00  0.00    +0.000 A 
ATOM     13  C   UNL     1       2.296   2.694  20.790  0.00  0.00    +0.000 A 
ATOM     14  C   UNL     1       1.416   3.750  21.010  0.00  0.00    +0.000 A 
ATOM     15  C   UNL     1       1.747   5.032  20.571  0.00  0.00    +0.000 A 
ATOM     16  C   UNL     1       2.960   5.256  19.918  0.00  0.00    +0.000 A 
ENDBRANCH   5  11
BRANCH   1  17
ATOM     17  S   UNL     1       7.262   4.697  13.630  0.00  0.00    +0.000 S 
BRANCH  17  19
ATOM     18  C   UNL     1       6.771   2.811  11.702  0.00  0.00    +0.000 C 
ATOM     19  C   UNL     1       6.056   3.675  12.727  0.00  0.00    +0.000 C 
ENDBRANCH  17  19
ENDBRANCH   1  17
TORSDOF 3
ENDMDL
MODEL 4
REMARK VINA RESULT:      -7.4      0.683      1.334
REMARK  Name = 
REMARK  4 active torsions:
REMARK  status: ('A' for Active; 'I' for Inactive)
REMARK    1  A    between atoms: C_1  and  C_2
REMARK    2  A    between atoms: C_2  and  S_3
REMARK    3  A    between atoms: S_3  and  C_4
REMARK    4  A    between atoms: C_8  and  C_9
REMARK                            x       y       z     vdW  Elec       q    Type
REMARK                         _______ _______ _______ _____ _____    ______ ____
ROOT
ATOM      1  C   UNL     1       3.881   4.612  18.971  0.00  0.00    +0.000 A 
ATOM      2  N   UNL     1       3.395   4.654  17.698  0.00  0.00    +0.000 NA
ATOM      3  N   UNL     1       4.216   4.629  16.647  0.00  0.00    +0.000 NA
ATOM      4  C   UNL     1       5.541   4.553  16.926  0.00  0.00    +0.000 A 
ATOM      5  C   UNL     1       6.719   4.453  16.137  0.00  0.00    +0.000 A 
ATOM      6  N   UNL     1       7.813   4.373  16.926  0.00  0.00    +0.000 NA
ATOM      7  N   UNL     1       7.321   4.449  18.181  0.00  0.00    +0.000 N 
ATOM      8  C   UNL     1       5.965   4.533  18.239  0.00  0.00    +0.000 A 
ATOM      9  N   UNL     1       5.183   4.567  19.331  0.00  0.00    +0.000 NA
ATOM     10  H   UNL     1       7.966   4.420  18.963  0.00  0.00    +0.000 HD
ENDROOT
BRANCH   5  11
ATOM     11  C   UNL     1       6.821   4.416  14.676  0.00  0.00    +0.000 A 
ATOM     12  C   UNL     1       7.698   5.271  13.993  0.00  0.00    +0.000 A 
ATOM     13  C   UNL     1       7.792   5.229  12.601  0.00  0.00    +0.000 A 
ATOM     14  C   UNL     1       7.009   4.336  11.874  0.00  0.00    +0.000 A 
ATOM     15  C   UNL     1       6.129   3.483  12.539  0.00  0.00    +0.000 A 
ATOM     16  C   UNL     1       6.038   3.520  13.932  0.00  0.00    +0.000 A 
ENDBRANCH   5  11
BRANCH   1  17
ATOM     17  S   UNL     1       2.688   4.536  20.287  0.00  0.00    +0.000 S 
BRANCH  17  19
ATOM     18  C   UNL     1       1.615   2.174  19.403  0.00  0.00    +0.000 C 
ATOM     19  C   UNL     1       1.368   3.673  19.378  0.00  0.00    +0.000 C 
ENDBRANCH  17  19
ENDBRANCH   1  17
TORSDOF 3
ENDMDL
MODEL 5
REMARK VINA RESULT:      -7.2      1.045      1.604
REMARK  Name = 
REMARK  4 active torsions:
REMARK  status: ('A' for Active; 'I' for Inactive)
REMARK    1  A    between atoms: C_1  and  C_2
REMARK    2  A    between atoms: C_2  and  S_3
REMARK    3  A    between atoms: S_3  and  C_4
REMARK    4  A    between atoms: C_8  and  C_9
REMARK                            x       y       z     vdW  Elec       q    Type
REMARK                         _______ _______ _______ _____ _____    ______ ____
ROOT
ATOM      1  C   UNL     1       3.965   3.603  18.968  0.00  0.00    +0.000 A 
ATOM      2  N   UNL     1       3.474   3.524  17.699  0.00  0.00    +0.000 NA
ATOM      3  N   UNL     1       4.255   3.760  16.643  0.00  0.00    +0.000 NA
ATOM      4  C   UNL     1       5.546   4.070  16.914  0.00  0.00    +0.000 A 
ATOM      5  C   UNL     1       6.694   4.334  16.116  0.00  0.00    +0.000 A 
ATOM      6  N   UNL     1       7.772   4.563  16.898  0.00  0.00    +0.000 NA
ATOM      7  N   UNL     1       7.293   4.469  18.157  0.00  0.00    +0.000 N 
ATOM      8  C   UNL     1       5.972   4.151  18.224  0.00  0.00    +0.000 A 
ATOM      9  N   UNL     1       5.227   3.935  19.320  0.00  0.00    +0.000 NA
ATOM     10  H   UNL     1       7.927   4.615  18.935  0.00  0.00    +0.000 HD
ENDROOT
BRANCH   5  11
ATOM     11  C   UNL     1       6.786   4.355  14.655  0.00  0.00    +0.000 A 
ATOM     12  C   UNL     1       7.650   5.244  14.000  0.00  0.00    +0.000 A 
ATOM     13  C   UNL     1       7.735   5.257  12.607  0.00  0.00    +0.000 A 
ATOM     14  C   UNL     1       6.955   4.386  11.850  0.00  0.00    +0.000 A 
ATOM     15  C   UNL     1       6.088   3.499  12.487  0.00  0.00    +0.000 A 
ATOM     16  C   UNL     1       6.006   3.481  13.881  0.00  0.00    +0.000 A 
ENDBRANCH   5  11
BRANCH   1  17
ATOM     17  S   UNL     1       2.861   3.157  20.289  0.00  0.00    +0.000 S 
BRANCH  17  19
ATOM     18  C   UNL     1       1.872   5.706  20.480  0.00  0.00    +0.000 C 
ATOM     19  C   UNL     1       1.530   4.340  19.911  0.00  0.00    +0.000 C 
ENDBRANCH  17  19
ENDBRANCH   1  17
TORSDOF 3
ENDMDL
MODEL 6
REMARK VINA RESULT:      -7.2      2.584      6.763
REMARK  Name = 
REMARK  4 active torsions:
REMARK  status: ('A' for Active; 'I' for Inactive)
REMARK    1  A    between atoms: C_1  and  C_2
REMARK    2  A    between atoms: C_2  and  S_3
REMARK    3  A    between atoms: S_3  and  C_4
REMARK    4  A    between atoms: C_8  and  C_9
REMARK                            x       y       z     vdW  Elec       q    Type
REMARK                         _______ _______ _______ _____ _____    ______ ____
ROOT
ATOM      1  C   UNL     1       5.917   4.954  15.112  0.00  0.00    +0.000 A 
ATOM      2  N   UNL     1       5.501   3.782  15.669  0.00  0.00    +0.000 NA
ATOM      3  N   UNL     1       4.667   3.772  16.710  0.00  0.00    +0.000 NA
ATOM      4  C   UNL     1       4.262   4.984  17.162  0.00  0.00    +0.000 A 
ATOM      5  C   UNL     1       3.365   5.418  18.177  0.00  0.00    +0.000 A 
ATOM      6  N   UNL     1       3.291   6.767  18.198  0.00  0.00    +0.000 NA
ATOM      7  N   UNL     1       4.147   7.160  17.231  0.00  0.00    +0.000 N 
ATOM      8  C   UNL     1       4.736   6.133  16.562  0.00  0.00    +0.000 A 
ATOM      9  N   UNL     1       5.584   6.198  15.523  0.00  0.00    +0.000 NA
ATOM     10  H   UNL     1       4.273   8.152  17.061  0.00  0.00    +0.000 HD
ENDROOT
BRANCH   5  11
ATOM     11  C   UNL     1       2.581   4.591  19.097  0.00  0.00    +0.000 A 
ATOM     12  C   UNL     1       2.799   4.648  20.480  0.00  0.00    +0.000 A 
ATOM     13  C   UNL     1       2.047   3.858  21.352  0.00  0.00    +0.000 A 
ATOM     14  C   UNL     1       1.072   2.999  20.852  0.00  0.00    +0.000 A 
ATOM     15  C   UNL     1       0.848   2.927  19.478  0.00  0.00    +0.000 A 
ATOM     16  C   UNL     1       1.595   3.721  18.605  0.00  0.00    +0.000 A 
ENDBRANCH   5  11
BRANCH   1  17
ATOM     17  S   UNL     1       6.937   4.841  13.661  0.00  0.00    +0.000 S 
BRANCH  17  19
ATOM     18  C   UNL     1       5.069   3.648  12.049  0.00  0.00    +0.000 C 
ATOM     19  C   UNL     1       6.226   3.312  12.975  0.00  0.00    +0.000 C 
ENDBRANCH  17  19
ENDBRANCH   1  17
TORSDOF 3
ENDMDL
MODEL 7
REMARK VINA RESULT:      -7.2      2.561      6.697
REMARK  Name = 
REMARK  4 active torsions:
REMARK  status: ('A' for Active; 'I' for Inactive)
REMARK    1  A    between atoms: C_1  and  C_2
REMARK    2  A    between atoms: C_2  and  S_3
REMARK    3  A    between atoms: S_3  and  C_4
REMARK    4  A    between atoms: C_8  and  C_9
REMARK                            x       y       z     vdW  Elec       q    Type
REMARK                         _______ _______ _______ _____ _____    ______ ____
ROOT
ATOM      1  C   UNL     1       5.960   4.937  15.163  0.00  0.00    +0.000 A 
ATOM      2  N   UNL     1       5.563   3.766  15.737  0.00  0.00    +0.000 NA
ATOM      3  N   UNL     1       4.712   3.757  16.765  0.00  0.00    +0.000 NA
ATOM      4  C   UNL     1       4.271   4.968  17.185  0.00  0.00    +0.000 A 
ATOM      5  C   UNL     1       3.349   5.401  18.177  0.00  0.00    +0.000 A 
ATOM      6  N   UNL     1       3.242   6.748  18.169  0.00  0.00    +0.000 NA
ATOM      7  N   UNL     1       4.104   7.141  17.208  0.00  0.00    +0.000 N 
ATOM      8  C   UNL     1       4.728   6.115  16.570  0.00  0.00    +0.000 A 
ATOM      9  N   UNL     1       5.591   6.180  15.543  0.00  0.00    +0.000 NA
ATOM     10  H   UNL     1       4.210   8.132  17.020  0.00  0.00    +0.000 HD
ENDROOT
BRANCH   5  11
ATOM     11  C   UNL     1       2.570   4.574  19.101  0.00  0.00    +0.000 A 
ATOM     12  C   UNL     1       1.575   3.706  18.628  0.00  0.00    +0.000 A 
ATOM     13  C   UNL     1       0.838   2.918  19.513  0.00  0.00    +0.000 A 
ATOM     14  C   UNL     1       1.080   2.991  20.882  0.00  0.00    +0.000 A 
ATOM     15  C   UNL     1       2.063   3.853  21.368  0.00  0.00    +0.000 A 
ATOM     16  C   UNL     1       2.806   4.638  20.483  0.00  0.00    +0.000 A 
ENDBRANCH   5  11
BRANCH   1  17
ATOM     17  S   UNL     1       7.005   4.819  13.731  0.00  0.00    +0.000 S 
BRANCH  17  19
ATOM     18  C   UNL     1       5.040   3.721  12.167  0.00  0.00    +0.000 C 
ATOM     19  C   UNL     1       6.254   3.333  12.995  0.00  0.00    +0.000 C 
ENDBRANCH  17  19
ENDBRANCH   1  17
TORSDOF 3
ENDMDL
MODEL 8
REMARK VINA RESULT:      -7.1      1.296      1.944
REMARK  Name = 
REMARK  4 active torsions:
REMARK  status: ('A' for Active; 'I' for Inactive)
REMARK    1  A    between atoms: C_1  and  C_2
REMARK    2  A    between atoms: C_2  and  S_3
REMARK    3  A    between atoms: S_3  and  C_4
REMARK    4  A    between atoms: C_8  and  C_9
REMARK                            x       y       z     vdW  Elec       q    Type
REMARK                         _______ _______ _______ _____ _____    ______ ____
ROOT
ATOM      1  C   UNL     1       3.959   5.260  18.875  0.00  0.00    +0.000 A 
ATOM      2  N   UNL     1       3.522   5.405  17.592  0.00  0.00    +0.000 NA
ATOM      3  N   UNL     1       4.348   5.225  16.559  0.00  0.00    +0.000 NA
ATOM      4  C   UNL     1       5.624   4.887  16.867  0.00  0.00    +0.000 A 
ATOM      5  C   UNL     1       6.778   4.560  16.104  0.00  0.00    +0.000 A 
ATOM      6  N   UNL     1       7.815   4.259  16.917  0.00  0.00    +0.000 NA
ATOM      7  N   UNL     1       7.317   4.424  18.161  0.00  0.00    +0.000 N 
ATOM      8  C   UNL     1       6.003   4.774  18.190  0.00  0.00    +0.000 A 
ATOM      9  N   UNL     1       5.217   4.955  19.263  0.00  0.00    +0.000 NA
ATOM     10  H   UNL     1       7.924   4.261  18.957  0.00  0.00    +0.000 HD
ENDROOT
BRANCH   5  11
ATOM     11  C   UNL     1       6.907   4.512  14.646  0.00  0.00    +0.000 A 
ATOM     12  C   UNL     1       7.786   5.371  13.972  0.00  0.00    +0.000 A 
ATOM     13  C   UNL     1       7.906   5.320  12.582  0.00  0.00    +0.000 A 
ATOM     14  C   UNL     1       7.145   4.413  11.848  0.00  0.00    +0.000 A 
ATOM     15  C   UNL     1       6.262   3.556  12.504  0.00  0.00    +0.000 A 
ATOM     16  C   UNL     1       6.146   3.603  13.895  0.00  0.00    +0.000 A 
ENDBRANCH   5  11
BRANCH   1  17
ATOM     17  S   UNL     1       2.743   5.413  20.162  0.00  0.00    +0.000 S 
BRANCH  17  19
ATOM     18  C   UNL     1       1.404   7.666  20.963  0.00  0.00    +0.000 C 
ATOM     19  C   UNL     1       2.206   7.113  19.797  0.00  0.00    +0.000 C 
ENDBRANCH  17  19
ENDBRANCH   1  17
TORSDOF 3
ENDMDL
MODEL 9
REMARK VINA RESULT:      -7.0      1.352      1.641
REMARK  Name = 
REMARK  4 active torsions:
REMARK  status: ('A' for Active; 'I' for Inactive)
REMARK    1  A    between atoms: C_1  and  C_2
REMARK    2  A    between atoms: C_2  and  S_3
REMARK    3  A    between atoms: S_3  and  C_4
REMARK    4  A    between atoms: C_8  and  C_9
REMARK                            x       y       z     vdW  Elec       q    Type
REMARK                         _______ _______ _______ _____ _____    ______ ____
ROOT
ATOM      1  C   UNL     1       4.045   5.403  18.921  0.00  0.00    +0.000 A 
ATOM      2  N   UNL     1       3.598   5.539  17.640  0.00  0.00    +0.000 NA
ATOM      3  N   UNL     1       4.409   5.329  16.602  0.00  0.00    +0.000 NA
ATOM      4  C   UNL     1       5.682   4.971  16.902  0.00  0.00    +0.000 A 
ATOM      5  C   UNL     1       6.822   4.613  16.132  0.00  0.00    +0.000 A 
ATOM      6  N   UNL     1       7.861   4.304  16.939  0.00  0.00    +0.000 NA
ATOM      7  N   UNL     1       7.379   4.495  18.185  0.00  0.00    +0.000 N 
ATOM      8  C   UNL     1       6.072   4.870  18.222  0.00  0.00    +0.000 A 
ATOM      9  N   UNL     1       5.301   5.081  19.301  0.00  0.00    +0.000 NA
ATOM     10  H   UNL     1       7.991   4.333  18.978  0.00  0.00    +0.000 HD
ENDROOT
BRANCH   5  11
ATOM     11  C   UNL     1       6.934   4.542  14.673  0.00  0.00    +0.000 A 
ATOM     12  C   UNL     1       6.197   3.603  13.939  0.00  0.00    +0.000 A 
ATOM     13  C   UNL     1       6.307   3.543  12.548  0.00  0.00    +0.000 A 
ATOM     14  C   UNL     1       7.158   4.416  11.875  0.00  0.00    +0.000 A 
ATOM     15  C   UNL     1       7.901   5.352  12.593  0.00  0.00    +0.000 A 
ATOM     16  C   UNL     1       7.788   5.418  13.984  0.00  0.00    +0.000 A 
ENDBRANCH   5  11
BRANCH   1  17
ATOM     17  S   UNL     1       2.845   5.597  20.218  0.00  0.00    +0.000 S 
BRANCH  17  19
ATOM     18  C   UNL     1       1.344   7.798  20.861  0.00  0.00    +0.000 C 
ATOM     19  C   UNL     1       2.271   7.268  19.780  0.00  0.00    +0.000 C 
ENDBRANCH  17  19
ENDBRANCH   1  17
TORSDOF 3
ENDMDL
