MODEL 1
REMARK VINA RESULT:      -8.4      0.000      0.000
REMARK  Name = 
REMARK  8 active torsions:
REMARK  status: ('A' for Active; 'I' for Inactive)
REMARK    1  A    between atoms: C_1  and  O_2
REMARK    2  A    between atoms: O_2  and  C_3
REMARK    3  A    between atoms: C_6  and  N_7
REMARK    4  A    between atoms: C_8  and  C_10
REMARK    5  A    between atoms: C_14  and  S_15
REMARK    6  A    between atoms: S_15  and  N_18
REMARK    7  A    between atoms: N_18  and  C_19
REMARK    8  A    between atoms: N_18  and  C_20
REMARK                            x       y       z     vdW  Elec       q    Type
REMARK                         _______ _______ _______ _____ _____    ______ ____
ROOT
ATOM      1  C   UNL     1       2.494   7.316  18.706  0.00  0.00    +0.000 A 
ATOM      2  C   UNL     1       2.274   6.055  19.279  0.00  0.00    +0.000 A 
ATOM      3  C   UNL     1       3.071   4.963  18.927  0.00  0.00    +0.000 A 
ATOM      4  C   UNL     1       4.106   5.118  18.005  0.00  0.00    +0.000 A 
ATOM      5  C   UNL     1       4.336   6.372  17.435  0.00  0.00    +0.000 A 
ATOM      6  C   UNL     1       3.507   7.461  17.749  0.00  0.00    +0.000 A 
ENDROOT
BRANCH   1   8
ATOM      7  N   UNL     1       1.551   8.584  20.563  0.00  0.00    +0.000 N 
ATOM      8  C   UNL     1       1.655   8.461  19.190  0.00  0.00    +0.000 C 
ATOM      9  O   UNL     1       1.087   9.162  18.357  0.00  0.00    +0.000 OA
ATOM     10  H   UNL     1       2.087   7.948  21.139  0.00  0.00    +0.000 HD
BRANCH   7  14
ATOM     11  C   UNL     1      -0.857  11.347  22.531  0.00  0.00    +0.000 A 
ATOM     12  C   UNL     1      -0.775  10.078  23.081  0.00  0.00    +0.000 A 
ATOM     13  C   UNL     1       0.016   9.119  22.445  0.00  0.00    +0.000 A 
ATOM     14  C   UNL     1       0.702   9.455  21.283  0.00  0.00    +0.000 A 
ATOM     15  C   UNL     1       0.558  10.765  20.822  0.00  0.00    +0.000 A 
ATOM     16  N   UNL     1      -0.201  11.716  21.414  0.00  0.00    +0.000 NA
BRANCH  11  18
ATOM     17  C   UNL     1      -1.083  13.547  23.281  0.00  0.00    +0.000 C 
ATOM     18  O   UNL     1      -1.667  12.252  23.187  0.00  0.00    +0.000 OA
ENDBRANCH  11  18
ENDBRANCH   7  14
ENDBRANCH   1   8
BRANCH   5  19
ATOM     19  S   UNL     1       5.667   6.606  16.262  0.00  0.00    +0.000 S 
ATOM     20  O   UNL     1       5.049   7.081  15.044  0.00  0.00    +0.000 OA
ATOM     21  O   UNL     1       6.677   7.394  16.939  0.00  0.00    +0.000 OA
BRANCH  19  22
ATOM     22  N   UNL     1       6.306   5.050  15.986  0.00  0.00    +0.000 N 
ATOM     23  C   UNL     1       7.204   4.478  17.000  0.00  0.00    +0.000 C 
BRANCH  22  24
ATOM     24  C   UNL     1       6.502   4.643  14.625  0.00  0.00    +0.000 A 
ATOM     25  C   UNL     1       7.568   5.148  13.875  0.00  0.00    +0.000 A 
ATOM     26  C   UNL     1       7.720   4.778  12.538  0.00  0.00    +0.000 A 
ATOM     27  C   UNL     1       6.813   3.896  11.953  0.00  0.00    +0.000 A 
ATOM     28  C   UNL     1       5.755   3.384  12.703  0.00  0.00    +0.000 A 
ATOM     29  C   UNL     1       5.593   3.765  14.036  0.00  0.00    +0.000 A 
ENDBRANCH  22  24
ENDBRANCH  19  22
ENDBRANCH   5  19
TORSDOF 6
ENDMDL
MODEL 2
REMARK VINA RESULT:      -8.4      5.523      7.721
REMARK  Name = 
REMARK  8 active torsions:
REMARK  status: ('A' for Active; 'I' for Inactive)
REMARK    1  A    between atoms: C_1  and  O_2
REMARK    2  A    between atoms: O_2  and  C_3
REMARK    3  A    between atoms: C_6  and  N_7
REMARK    4  A    between atoms: C_8  and  C_10
REMARK    5  A    between atoms: C_14  and  S_15
REMARK    6  A    between atoms: S_15  and  N_18
REMARK    7  A    between atoms: N_18  and  C_19
REMARK    8  A    between atoms: N_18  and  C_20
REMARK                            x       y       z     vdW  Elec       q    Type
REMARK                         _______ _______ _______ _____ _____    ______ ____
ROOT
ATOM      1  C   UNL     1       7.943   7.890  18.256  0.00  0.00    +0.000 A 
ATOM      2  C   UNL     1       8.569   6.966  19.106  0.00  0.00    +0.000 A 
ATOM      3  C   UNL     1       8.193   5.620  19.097  0.00  0.00    +0.000 A 
ATOM      4  C   UNL     1       7.195   5.177  18.229  0.00  0.00    +0.000 A 
ATOM      5  C   UNL     1       6.572   6.090  17.375  0.00  0.00    +0.000 A 
ATOM      6  C   UNL     1       6.912   7.452  17.416  0.00  0.00    +0.000 A 
ENDROOT
BRANCH   1   8
ATOM      7  N   UNL     1       9.296   9.627  19.306  0.00  0.00    +0.000 N 
ATOM      8  C   UNL     1       8.451   9.301  18.261  0.00  0.00    +0.000 C 
ATOM      9  O   UNL     1       8.052  10.068  17.390  0.00  0.00    +0.000 OA
ATOM     10  H   UNL     1       9.561   8.892  19.948  0.00  0.00    +0.000 HD
BRANCH   7  14
ATOM     11  C   UNL     1      10.879  13.392  20.096  0.00  0.00    +0.000 A 
ATOM     12  C   UNL     1      10.097  12.817  21.084  0.00  0.00    +0.000 A 
ATOM     13  C   UNL     1       9.539  11.557  20.854  0.00  0.00    +0.000 A 
ATOM     14  C   UNL     1       9.781  10.909  19.647  0.00  0.00    +0.000 A 
ATOM     15  C   UNL     1      10.592  11.574  18.726  0.00  0.00    +0.000 A 
ATOM     16  N   UNL     1      11.146  12.793  18.918  0.00  0.00    +0.000 NA
BRANCH  11  18
ATOM     17  C   UNL     1      12.329  15.079  19.386  0.00  0.00    +0.000 C 
ATOM     18  O   UNL     1      11.390  14.645  20.364  0.00  0.00    +0.000 OA
ENDBRANCH  11  18
ENDBRANCH   7  14
ENDBRANCH   1   8
BRANCH   5  19
ATOM     19  S   UNL     1       5.299   5.548  16.240  0.00  0.00    +0.000 S 
ATOM     20  O   UNL     1       5.182   6.588  15.243  0.00  0.00    +0.000 OA
ATOM     21  O   UNL     1       5.638   4.190  15.861  0.00  0.00    +0.000 OA
BRANCH  19  22
ATOM     22  N   UNL     1       3.864   5.498  17.159  0.00  0.00    +0.000 N 
ATOM     23  C   UNL     1       3.407   6.739  17.801  0.00  0.00    +0.000 C 
BRANCH  22  24
ATOM     24  C   UNL     1       3.528   4.260  17.801  0.00  0.00    +0.000 A 
ATOM     25  C   UNL     1       4.082   3.923  19.039  0.00  0.00    +0.000 A 
ATOM     26  C   UNL     1       3.780   2.696  19.630  0.00  0.00    +0.000 A 
ATOM     27  C   UNL     1       2.919   1.808  18.988  0.00  0.00    +0.000 A 
ATOM     28  C   UNL     1       2.359   2.146  17.757  0.00  0.00    +0.000 A 
ATOM     29  C   UNL     1       2.671   3.368  17.158  0.00  0.00    +0.000 A 
ENDBRANCH  22  24
ENDBRANCH  19  22
ENDBRANCH   5  19
TORSDOF 6
ENDMDL
MODEL 3
REMARK VINA RESULT:      -8.3      5.474      7.562
REMARK  Name = 
REMARK  8 active torsions:
REMARK  status: ('A' for Active; 'I' for Inactive)
REMARK    1  A    between atoms: C_1  and  O_2
REMARK    2  A    between atoms: O_2  and  C_3
REMARK    3  A    between atoms: C_6  and  N_7
REMARK    4  A    between atoms: C_8  and  C_10
REMARK    5  A    between atoms: C_14  and  S_15
REMARK    6  A    between atoms: S_15  and  N_18
REMARK    7  A    between atoms: N_18  and  C_19
REMARK    8  A    between atoms: N_18  and  C_20
REMARK                            x       y       z     vdW  Elec       q    Type
REMARK                         _______ _______ _______ _____ _____    ______ ____
ROOT
ATOM      1  C   UNL     1       7.933   8.014  18.264  0.00  0.00    +0.000 A 
ATOM      2  C   UNL     1       8.542   7.080  19.114  0.00  0.00    +0.000 A 
ATOM      3  C   UNL     1       8.147   5.740  19.103  0.00  0.00    +0.000 A 
ATOM      4  C   UNL     1       7.145   5.312  18.232  0.00  0.00    +0.000 A 
ATOM      5  C   UNL     1       6.538   6.234  17.377  0.00  0.00    +0.000 A 
ATOM      6  C   UNL     1       6.898   7.591  17.420  0.00  0.00    +0.000 A 
ENDROOT
BRANCH   1   8
ATOM      7  N   UNL     1       9.374   9.704  19.269  0.00  0.00    +0.000 N 
ATOM      8  C   UNL     1       8.462   9.416  18.271  0.00  0.00    +0.000 C 
ATOM      9  O   UNL     1       8.021  10.211  17.446  0.00  0.00    +0.000 OA
ATOM     10  H   UNL     1       9.668   8.950  19.876  0.00  0.00    +0.000 HD
BRANCH   7  14
ATOM     11  C   UNL     1      10.687  13.488  20.392  0.00  0.00    +0.000 A 
ATOM     12  C   UNL     1      11.489  12.778  19.514  0.00  0.00    +0.000 A 
ATOM     13  C   UNL     1      11.088  11.500  19.120  0.00  0.00    +0.000 A 
ATOM     14  C   UNL     1       9.899  10.971  19.611  0.00  0.00    +0.000 A 
ATOM     15  C   UNL     1       9.163  11.777  20.481  0.00  0.00    +0.000 A 
ATOM     16  N   UNL     1       9.524  13.017  20.883  0.00  0.00    +0.000 NA
BRANCH  11  18
ATOM     17  C   UNL     1      10.122  15.734  20.697  0.00  0.00    +0.000 C 
ATOM     18  O   UNL     1      11.138  14.738  20.766  0.00  0.00    +0.000 OA
ENDBRANCH  11  18
ENDBRANCH   7  14
ENDBRANCH   1   8
BRANCH   5  19
ATOM     19  S   UNL     1       5.261   5.712  16.237  0.00  0.00    +0.000 S 
ATOM     20  O   UNL     1       5.104   6.792  15.289  0.00  0.00    +0.000 OA
ATOM     21  O   UNL     1       5.624   4.381  15.795  0.00  0.00    +0.000 OA
BRANCH  19  22
ATOM     22  N   UNL     1       3.841   5.589  17.174  0.00  0.00    +0.000 N 
ATOM     23  C   UNL     1       3.359   6.794  17.866  0.00  0.00    +0.000 C 
BRANCH  22  24
ATOM     24  C   UNL     1       3.549   4.321  17.776  0.00  0.00    +0.000 A 
ATOM     25  C   UNL     1       4.149   3.947  18.983  0.00  0.00    +0.000 A 
ATOM     26  C   UNL     1       3.890   2.692  19.533  0.00  0.00    +0.000 A 
ATOM     27  C   UNL     1       3.026   1.812  18.884  0.00  0.00    +0.000 A 
ATOM     28  C   UNL     1       2.421   2.187  17.684  0.00  0.00    +0.000 A 
ATOM     29  C   UNL     1       2.690   3.437  17.126  0.00  0.00    +0.000 A 
ENDBRANCH  22  24
ENDBRANCH  19  22
ENDBRANCH   5  19
TORSDOF 6
ENDMDL
MODEL 4
REMARK VINA RESULT:      -8.2      1.321      1.566
REMARK  Name = 
REMARK  8 active torsions:
REMARK  status: ('A' for Active; 'I' for Inactive)
REMARK    1  A    between atoms: C_1  and  O_2
REMARK    2  A    between atoms: O_2  and  C_3
REMARK    3  A    between atoms: C_6  and  N_7
REMARK    4  A    between atoms: C_8  and  C_10
REMARK    5  A    between atoms: C_14  and  S_15
REMARK    6  A    between atoms: S_15  and  N_18
REMARK    7  A    between atoms: N_18  and  C_19
REMARK    8  A    between atoms: N_18  and  C_20
REMARK                            x       y       z     vdW  Elec       q    Type
REMARK                         _______ _______ _______ _____ _____    ______ ____
ROOT
ATOM      1  C   UNL     1       2.623   5.630  19.285  0.00  0.00    +0.000 A 
ATOM      2  C   UNL     1       2.600   4.235  19.435  0.00  0.00    +0.000 A 
ATOM      3  C   UNL     1       3.502   3.428  18.736  0.00  0.00    +0.000 A 
ATOM      4  C   UNL     1       4.446   4.004  17.886  0.00  0.00    +0.000 A 
ATOM      5  C   UNL     1       4.479   5.392  17.737  0.00  0.00    +0.000 A 
ATOM      6  C   UNL     1       3.544   6.204  18.400  0.00  0.00    +0.000 A 
ENDROOT
BRANCH   1   8
ATOM      7  N   UNL     1       1.743   7.807  19.941  0.00  0.00    +0.000 N 
ATOM      8  C   UNL     1       1.682   6.439  20.127  0.00  0.00    +0.000 C 
ATOM      9  O   UNL     1       0.977   5.852  20.943  0.00  0.00    +0.000 OA
ATOM     10  H   UNL     1       2.357   8.161  19.219  0.00  0.00    +0.000 HD
BRANCH   7  14
ATOM     11  C   UNL     1      -0.041  10.635  22.415  0.00  0.00    +0.000 A 
ATOM     12  C   UNL     1      -0.445  10.613  21.091  0.00  0.00    +0.000 A 
ATOM     13  C   UNL     1       0.136   9.683  20.225  0.00  0.00    +0.000 A 
ATOM     14  C   UNL     1       1.101   8.805  20.707  0.00  0.00    +0.000 A 
ATOM     15  C   UNL     1       1.426   8.907  22.062  0.00  0.00    +0.000 A 
ATOM     16  N   UNL     1       0.882   9.795  22.925  0.00  0.00    +0.000 NA
BRANCH  11  18
ATOM     17  C   UNL     1      -1.656  12.316  22.560  0.00  0.00    +0.000 C 
ATOM     18  O   UNL     1      -0.631  11.584  23.225  0.00  0.00    +0.000 OA
ENDBRANCH  11  18
ENDBRANCH   7  14
ENDBRANCH   1   8
BRANCH   5  19
ATOM     19  S   UNL     1       5.690   6.162  16.667  0.00  0.00    +0.000 S 
ATOM     20  O   UNL     1       4.955   6.668  15.530  0.00  0.00    +0.000 OA
ATOM     21  O   UNL     1       6.471   7.052  17.504  0.00  0.00    +0.000 OA
BRANCH  19  22
ATOM     22  N   UNL     1       6.706   4.895  16.150  0.00  0.00    +0.000 N 
ATOM     23  C   UNL     1       7.854   4.535  16.995  0.00  0.00    +0.000 C 
BRANCH  22  24
ATOM     24  C   UNL     1       6.833   4.678  14.738  0.00  0.00    +0.000 A 
ATOM     25  C   UNL     1       7.747   5.417  13.980  0.00  0.00    +0.000 A 
ATOM     26  C   UNL     1       7.827   5.228  12.600  0.00  0.00    +0.000 A 
ATOM     27  C   UNL     1       7.001   4.294  11.977  0.00  0.00    +0.000 A 
ATOM     28  C   UNL     1       6.095   3.551  12.733  0.00  0.00    +0.000 A 
ATOM     29  C   UNL     1       6.004   3.749  14.111  0.00  0.00    +0.000 A 
ENDBRANCH  22  24
ENDBRANCH  19  22
ENDBRANCH   5  19
TORSDOF 6
ENDMDL
MODEL 5
REMARK VINA RESULT:      -8.2      1.796      1.838
REMARK  Name = 
REMARK  8 active torsions:
REMARK  status: ('A' for Active; 'I' for Inactive)
REMARK    1  A    between atoms: C_1  and  O_2
REMARK    2  A    between atoms: O_2  and  C_3
REMARK    3  A    between atoms: C_6  and  N_7
REMARK    4  A    between atoms: C_8  and  C_10
REMARK    5  A    between atoms: C_14  and  S_15
REMARK    6  A    between atoms: S_15  and  N_18
REMARK    7  A    between atoms: N_18  and  C_19
REMARK    8  A    between atoms: N_18  and  C_20
REMARK                            x       y       z     vdW  Elec       q    Type
REMARK                         _______ _______ _______ _____ _____    ______ ____
ROOT
ATOM      1  C   UNL     1       2.586   7.033  18.876  0.00  0.00    +0.000 A 
ATOM      2  C   UNL     1       2.420   5.736  19.386  0.00  0.00    +0.000 A 
ATOM      3  C   UNL     1       3.233   4.688  18.948  0.00  0.00    +0.000 A 
ATOM      4  C   UNL     1       4.232   4.923  18.004  0.00  0.00    +0.000 A 
ATOM      5  C   UNL     1       4.409   6.213  17.497  0.00  0.00    +0.000 A 
ATOM      6  C   UNL     1       3.562   7.258  17.898  0.00  0.00    +0.000 A 
ENDROOT
BRANCH   1   8
ATOM      7  N   UNL     1       1.299   9.078  18.548  0.00  0.00    +0.000 N 
ATOM      8  C   UNL     1       1.733   8.124  19.450  0.00  0.00    +0.000 C 
ATOM      9  O   UNL     1       1.527   8.130  20.660  0.00  0.00    +0.000 OA
ATOM     10  H   UNL     1       1.526   8.945  17.571  0.00  0.00    +0.000 HD
BRANCH   7  14
ATOM     11  C   UNL     1      -0.423  12.766  19.407  0.00  0.00    +0.000 A 
ATOM     12  C   UNL     1      -1.251  11.657  19.457  0.00  0.00    +0.000 A 
ATOM     13  C   UNL     1      -0.713  10.401  19.166  0.00  0.00    +0.000 A 
ATOM     14  C   UNL     1       0.634  10.290  18.837  0.00  0.00    +0.000 A 
ATOM     15  C   UNL     1       1.380  11.471  18.827  0.00  0.00    +0.000 A 
ATOM     16  N   UNL     1       0.889  12.701  19.103  0.00  0.00    +0.000 NA
BRANCH  11  18
ATOM     17  C   UNL     1      -1.897  13.932  20.793  0.00  0.00    +0.000 C 
ATOM     18  O   UNL     1      -1.006  13.986  19.683  0.00  0.00    +0.000 OA
ENDBRANCH  11  18
ENDBRANCH   7  14
ENDBRANCH   1   8
BRANCH   5  19
ATOM     19  S   UNL     1       5.693   6.548  16.297  0.00  0.00    +0.000 S 
ATOM     20  O   UNL     1       5.016   7.008  15.105  0.00  0.00    +0.000 OA
ATOM     21  O   UNL     1       6.672   7.383  16.965  0.00  0.00    +0.000 OA
BRANCH  19  22
ATOM     22  N   UNL     1       6.416   5.039  15.974  0.00  0.00    +0.000 N 
ATOM     23  C   UNL     1       7.384   4.510  16.946  0.00  0.00    +0.000 C 
BRANCH  22  24
ATOM     24  C   UNL     1       6.588   4.664  14.600  0.00  0.00    +0.000 A 
ATOM     25  C   UNL     1       7.624   5.208  13.834  0.00  0.00    +0.000 A 
ATOM     26  C   UNL     1       7.751   4.868  12.487  0.00  0.00    +0.000 A 
ATOM     27  C   UNL     1       6.849   3.978  11.906  0.00  0.00    +0.000 A 
ATOM     28  C   UNL     1       5.821   3.428  12.671  0.00  0.00    +0.000 A 
ATOM     29  C   UNL     1       5.684   3.778  14.015  0.00  0.00    +0.000 A 
ENDBRANCH  22  24
ENDBRANCH  19  22
ENDBRANCH   5  19
TORSDOF 6
ENDMDL
MODEL 6
REMARK VINA RESULT:      -8.1      0.709      1.029
REMARK  Name = 
REMARK  8 active torsions:
REMARK  status: ('A' for Active; 'I' for Inactive)
REMARK    1  A    between atoms: C_1  and  O_2
REMARK    2  A    between atoms: O_2  and  C_3
REMARK    3  A    between atoms: C_6  and  N_7
REMARK    4  A    between atoms: C_8  and  C_10
REMARK    5  A    between atoms: C_14  and  S_15
REMARK    6  A    between atoms: S_15  and  N_18
REMARK    7  A    between atoms: N_18  and  C_19
REMARK    8  A    between atoms: N_18  and  C_20
REMARK                            x       y       z     vdW  Elec       q    Type
REMARK                         _______ _______ _______ _____ _____    ______ ____
ROOT
ATOM      1  C   UNL     1       2.456   7.518  18.542  0.00  0.00    +0.000 A 
ATOM      2  C   UNL     1       2.156   6.274  19.117  0.00  0.00    +0.000 A 
ATOM      3  C   UNL     1       2.916   5.144  18.806  0.00  0.00    +0.000 A 
ATOM      4  C   UNL     1       3.993   5.242  17.927  0.00  0.00    +0.000 A 
ATOM      5  C   UNL     1       4.302   6.479  17.356  0.00  0.00    +0.000 A 
ATOM      6  C   UNL     1       3.512   7.608  17.627  0.00  0.00    +0.000 A 
ENDROOT
BRANCH   1   8
ATOM      7  N   UNL     1       1.615   8.927  20.346  0.00  0.00    +0.000 N 
ATOM      8  C   UNL     1       1.651   8.704  18.982  0.00  0.00    +0.000 C 
ATOM      9  O   UNL     1       1.048   9.350  18.129  0.00  0.00    +0.000 OA
ATOM     10  H   UNL     1       2.174   8.329  20.940  0.00  0.00    +0.000 HD
BRANCH   7  14
ATOM     11  C   UNL     1      -0.767  11.493  22.593  0.00  0.00    +0.000 A 
ATOM     12  C   UNL     1      -0.553  11.832  21.267  0.00  0.00    +0.000 A 
ATOM     13  C   UNL     1       0.249  11.000  20.481  0.00  0.00    +0.000 A 
ATOM     14  C   UNL     1       0.809   9.857  21.041  0.00  0.00    +0.000 A 
ATOM     15  C   UNL     1       0.519   9.605  22.383  0.00  0.00    +0.000 A 
ATOM     16  N   UNL     1      -0.252  10.389  23.171  0.00  0.00    +0.000 NA
BRANCH  11  18
ATOM     17  C   UNL     1      -2.915  11.951  23.389  0.00  0.00    +0.000 C 
ATOM     18  O   UNL     1      -1.551  12.356  23.332  0.00  0.00    +0.000 OA
ENDBRANCH  11  18
ENDBRANCH   7  14
ENDBRANCH   1   8
BRANCH   5  19
ATOM     19  S   UNL     1       5.689   6.641  16.236  0.00  0.00    +0.000 S 
ATOM     20  O   UNL     1       5.146   7.150  14.997  0.00  0.00    +0.000 OA
ATOM     21  O   UNL     1       6.714   7.372  16.955  0.00  0.00    +0.000 OA
BRANCH  19  22
ATOM     22  N   UNL     1       6.252   5.052  15.981  0.00  0.00    +0.000 N 
ATOM     23  C   UNL     1       7.145   4.462  16.989  0.00  0.00    +0.000 C 
BRANCH  22  24
ATOM     24  C   UNL     1       6.402   4.609  14.625  0.00  0.00    +0.000 A 
ATOM     25  C   UNL     1       7.498   5.015  13.858  0.00  0.00    +0.000 A 
ATOM     26  C   UNL     1       7.607   4.613  12.526  0.00  0.00    +0.000 A 
ATOM     27  C   UNL     1       6.626   3.798  11.963  0.00  0.00    +0.000 A 
ATOM     28  C   UNL     1       5.538   3.385  12.731  0.00  0.00    +0.000 A 
ATOM     29  C   UNL     1       5.420   3.798  14.059  0.00  0.00    +0.000 A 
ENDBRANCH  22  24
ENDBRANCH  19  22
ENDBRANCH   5  19
TORSDOF 6
ENDMDL
MODEL 7
REMARK VINA RESULT:      -8.1      3.187      9.523
REMARK  Name = 
REMARK  8 active torsions:
REMARK  status: ('A' for Active; 'I' for Inactive)
REMARK    1  A    between atoms: C_1  and  O_2
REMARK    2  A    between atoms: O_2  and  C_3
REMARK    3  A    between atoms: C_6  and  N_7
REMARK    4  A    between atoms: C_8  and  C_10
REMARK    5  A    between atoms: C_14  and  S_15
REMARK    6  A    between atoms: S_15  and  N_18
REMARK    7  A    between atoms: N_18  and  C_19
REMARK    8  A    between atoms: N_18  and  C_20
REMARK                            x       y       z     vdW  Elec       q    Type
REMARK                         _______ _______ _______ _____ _____    ______ ____
ROOT
ATOM      1  C   UNL     1       1.936   8.261  19.395  0.00  0.00    +0.000 A 
ATOM      2  C   UNL     1       1.643   7.330  20.403  0.00  0.00    +0.000 A 
ATOM      3  C   UNL     1       0.858   7.692  21.501  0.00  0.00    +0.000 A 
ATOM      4  C   UNL     1       0.344   8.985  21.601  0.00  0.00    +0.000 A 
ATOM      5  C   UNL     1       0.626   9.915  20.598  0.00  0.00    +0.000 A 
ATOM      6  C   UNL     1       1.455   9.570  19.518  0.00  0.00    +0.000 A 
ENDROOT
BRANCH   1   8
ATOM      7  N   UNL     1       3.521   6.680  18.426  0.00  0.00    +0.000 N 
ATOM      8  C   UNL     1       2.716   7.783  18.207  0.00  0.00    +0.000 C 
ATOM      9  O   UNL     1       2.632   8.418  17.159  0.00  0.00    +0.000 OA
ATOM     10  H   UNL     1       3.483   6.239  19.335  0.00  0.00    +0.000 HD
BRANCH   7  14
ATOM     11  C   UNL     1       6.462   5.290  15.835  0.00  0.00    +0.000 A 
ATOM     12  C   UNL     1       5.349   4.485  16.015  0.00  0.00    +0.000 A 
ATOM     13  C   UNL     1       4.343   4.912  16.884  0.00  0.00    +0.000 A 
ATOM     14  C   UNL     1       4.477   6.129  17.544  0.00  0.00    +0.000 A 
ATOM     15  C   UNL     1       5.633   6.865  17.281  0.00  0.00    +0.000 A 
ATOM     16  N   UNL     1       6.626   6.480  16.447  0.00  0.00    +0.000 NA
BRANCH  11  18
ATOM     17  C   UNL     1       6.965   4.638  13.649  0.00  0.00    +0.000 C 
ATOM     18  O   UNL     1       7.437   4.814  14.981  0.00  0.00    +0.000 OA
ENDBRANCH  11  18
ENDBRANCH   7  14
ENDBRANCH   1   8
BRANCH   5  19
ATOM     19  S   UNL     1      -0.032  11.576  20.690  0.00  0.00    +0.000 S 
ATOM     20  O   UNL     1      -1.242  11.485  21.475  0.00  0.00    +0.000 OA
ATOM     21  O   UNL     1       1.063  12.429  21.108  0.00  0.00    +0.000 OA
BRANCH  19  22
ATOM     22  N   UNL     1      -0.443  11.990  19.088  0.00  0.00    +0.000 N 
ATOM     23  C   UNL     1       0.021  13.283  18.563  0.00  0.00    +0.000 C 
BRANCH  22  24
ATOM     24  C   UNL     1      -1.666  11.463  18.557  0.00  0.00    +0.000 A 
ATOM     25  C   UNL     1      -2.890  12.079  18.835  0.00  0.00    +0.000 A 
ATOM     26  C   UNL     1      -4.077  11.528  18.350  0.00  0.00    +0.000 A 
ATOM     27  C   UNL     1      -4.042  10.367  17.580  0.00  0.00    +0.000 A 
ATOM     28  C   UNL     1      -2.821   9.757  17.295  0.00  0.00    +0.000 A 
ATOM     29  C   UNL     1      -1.634  10.298  17.791  0.00  0.00    +0.000 A 
ENDBRANCH  22  24
ENDBRANCH  19  22
ENDBRANCH   5  19
TORSDOF 6
ENDMDL
MODEL 8
REMARK VINA RESULT:      -8.1      2.928      3.963
REMARK  Name = 
REMARK  8 active torsions:
REMARK  status: ('A' for Active; 'I' for Inactive)
REMARK    1  A    between atoms: C_1  and  O_2
REMARK    2  A    between atoms: O_2  and  C_3
REMARK    3  A    between atoms: C_6  and  N_7
REMARK    4  A    between atoms: C_8  and  C_10
REMARK    5  A    between atoms: C_14  and  S_15
REMARK    6  A    between atoms: S_15  and  N_18
REMARK    7  A    between atoms: N_18  and  C_19
REMARK    8  A    between atoms: N_18  and  C_20
REMARK                            x       y       z     vdW  Elec       q    Type
REMARK                         _______ _______ _______ _____ _____    ______ ____
ROOT
ATOM      1  C   UNL     1       2.143   7.434  18.867  0.00  0.00    +0.000 A 
ATOM      2  C   UNL     1       1.855   7.135  20.207  0.00  0.00    +0.000 A 
ATOM      3  C   UNL     1       2.112   5.863  20.725  0.00  0.00    +0.000 A 
ATOM      4  C   UNL     1       2.671   4.875  19.914  0.00  0.00    +0.000 A 
ATOM      5  C   UNL     1       2.966   5.167  18.581  0.00  0.00    +0.000 A 
ATOM      6  C   UNL     1       2.664   6.429  18.043  0.00  0.00    +0.000 A 
ENDROOT
BRANCH   1   8
ATOM      7  N   UNL     1       1.258   9.666  19.292  0.00  0.00    +0.000 N 
ATOM      8  C   UNL     1       1.918   8.841  18.401  0.00  0.00    +0.000 C 
ATOM      9  O   UNL     1       2.276   9.144  17.266  0.00  0.00    +0.000 OA
ATOM     10  H   UNL     1       1.033   9.295  20.205  0.00  0.00    +0.000 HD
BRANCH   7  14
ATOM     11  C   UNL     1       0.043  13.601  18.707  0.00  0.00    +0.000 A 
ATOM     12  C   UNL     1      -0.880  12.608  18.424  0.00  0.00    +0.000 A 
ATOM     13  C   UNL     1      -0.508  11.273  18.599  0.00  0.00    +0.000 A 
ATOM     14  C   UNL     1       0.772  10.971  19.052  0.00  0.00    +0.000 A 
ATOM     15  C   UNL     1       1.618  12.049  19.318  0.00  0.00    +0.000 A 
ATOM     16  N   UNL     1       1.288  13.352  19.159  0.00  0.00    +0.000 NA
BRANCH  11  18
ATOM     17  C   UNL     1       0.649  15.855  18.794  0.00  0.00    +0.000 C 
ATOM     18  O   UNL     1      -0.368  14.903  18.500  0.00  0.00    +0.000 OA
ENDBRANCH  11  18
ENDBRANCH   7  14
ENDBRANCH   1   8
BRANCH   5  19
ATOM     19  S   UNL     1       3.698   3.926  17.520  0.00  0.00    +0.000 S 
ATOM     20  O   UNL     1       4.419   3.028  18.394  0.00  0.00    +0.000 OA
ATOM     21  O   UNL     1       2.635   3.437  16.665  0.00  0.00    +0.000 OA
BRANCH  19  22
ATOM     22  N   UNL     1       4.817   4.766  16.546  0.00  0.00    +0.000 N 
ATOM     23  C   UNL     1       5.073   4.261  15.189  0.00  0.00    +0.000 C 
BRANCH  22  24
ATOM     24  C   UNL     1       5.887   5.457  17.206  0.00  0.00    +0.000 A 
ATOM     25  C   UNL     1       6.636   4.828  18.205  0.00  0.00    +0.000 A 
ATOM     26  C   UNL     1       7.643   5.527  18.869  0.00  0.00    +0.000 A 
ATOM     27  C   UNL     1       7.909   6.853  18.531  0.00  0.00    +0.000 A 
ATOM     28  C   UNL     1       7.168   7.479  17.529  0.00  0.00    +0.000 A 
ATOM     29  C   UNL     1       6.151   6.784  16.872  0.00  0.00    +0.000 A 
ENDBRANCH  22  24
ENDBRANCH  19  22
ENDBRANCH   5  19
TORSDOF 6
ENDMDL
MODEL 9
REMARK VINA RESULT:      -8.0      3.287      9.638
REMARK  Name = 
REMARK  8 active torsions:
REMARK  status: ('A' for Active; 'I' for Inactive)
REMARK    1  A    between atoms: C_1  and  O_2
REMARK    2  A    between atoms: O_2  and  C_3
REMARK    3  A    between atoms: C_6  and  N_7
REMARK    4  A    between atoms: C_8  and  C_10
REMARK    5  A    between atoms: C_14  and  S_15
REMARK    6  A    between atoms: S_15  and  N_18
REMARK    7  A    between atoms: N_18  and  C_19
REMARK    8  A    between atoms: N_18  and  C_20
REMARK                            x       y       z     vdW  Elec       q    Type
REMARK                         _______ _______ _______ _____ _____    ______ ____
ROOT
ATOM      1  C   UNL     1       1.712   8.573  19.525  0.00  0.00    +0.000 A 
ATOM      2  C   UNL     1       1.551   7.763  20.659  0.00  0.00    +0.000 A 
ATOM      3  C   UNL     1       0.855   8.231  21.777  0.00  0.00    +0.000 A 
ATOM      4  C   UNL     1       0.300   9.510  21.773  0.00  0.00    +0.000 A 
ATOM      5  C   UNL     1       0.451  10.320  20.645  0.00  0.00    +0.000 A 
ATOM      6  C   UNL     1       1.191   9.873  19.539  0.00  0.00    +0.000 A 
ENDROOT
BRANCH   1   8
ATOM      7  N   UNL     1       3.051   6.780  18.556  0.00  0.00    +0.000 N 
ATOM      8  C   UNL     1       2.399   7.978  18.333  0.00  0.00    +0.000 C 
ATOM      9  O   UNL     1       2.383   8.605  17.277  0.00  0.00    +0.000 OA
ATOM     10  H   UNL     1       2.970   6.359  19.473  0.00  0.00    +0.000 HD
BRANCH   7  14
ATOM     11  C   UNL     1       5.459   4.530  16.018  0.00  0.00    +0.000 A 
ATOM     12  C   UNL     1       5.789   5.865  16.180  0.00  0.00    +0.000 A 
ATOM     13  C   UNL     1       5.000   6.657  17.017  0.00  0.00    +0.000 A 
ATOM     14  C   UNL     1       3.908   6.092  17.668  0.00  0.00    +0.000 A 
ATOM     15  C   UNL     1       3.672   4.735  17.443  0.00  0.00    +0.000 A 
ATOM     16  N   UNL     1       4.416   3.941  16.638  0.00  0.00    +0.000 NA
BRANCH  11  18
ATOM     17  C   UNL     1       5.929   3.991  13.795  0.00  0.00    +0.000 C 
ATOM     18  O   UNL     1       6.258   3.795  15.166  0.00  0.00    +0.000 OA
ENDBRANCH  11  18
ENDBRANCH   7  14
ENDBRANCH   1   8
BRANCH   5  19
ATOM     19  S   UNL     1      -0.263  11.961  20.604  0.00  0.00    +0.000 S 
ATOM     20  O   UNL     1      -1.431  11.911  21.454  0.00  0.00    +0.000 OA
ATOM     21  O   UNL     1       0.818  12.886  20.879  0.00  0.00    +0.000 OA
BRANCH  19  22
ATOM     22  N   UNL     1      -0.764  12.196  18.991  0.00  0.00    +0.000 N 
ATOM     23  C   UNL     1      -0.395  13.454  18.326  0.00  0.00    +0.000 C 
BRANCH  22  24
ATOM     24  C   UNL     1      -1.978  11.559  18.572  0.00  0.00    +0.000 A 
ATOM     25  C   UNL     1      -1.945  10.360  17.852  0.00  0.00    +0.000 A 
ATOM     26  C   UNL     1      -3.133   9.776  17.412  0.00  0.00    +0.000 A 
ATOM     27  C   UNL     1      -4.355  10.383  17.697  0.00  0.00    +0.000 A 
ATOM     28  C   UNL     1      -4.389  11.574  18.421  0.00  0.00    +0.000 A 
ATOM     29  C   UNL     1      -3.201  12.167  18.851  0.00  0.00    +0.000 A 
ENDBRANCH  22  24
ENDBRANCH  19  22
ENDBRANCH   5  19
TORSDOF 6
ENDMDL
