MODEL 1
REMARK VINA RESULT:      -7.1      0.000      0.000
REMARK  Name = 
REMARK  12 active torsions:
REMARK  status: ('A' for Active; 'I' for Inactive)
REMARK    1  A    between atoms: N_8  and  C_9
REMARK    2  A    between atoms: C_9  and  C_10
REMARK    3  A    between atoms: C_10  and  N_11
REMARK    4  A    between atoms: N_11  and  C_12
REMARK    5  A    between atoms: N_11  and  C_18
REMARK    6  A    between atoms: C_12  and  C_13
REMARK    7  A    between atoms: C_13  and  P_14
REMARK    8  A    between atoms: P_14  and  O_16
REMARK    9  A    between atoms: P_14  and  O_17
REMARK   10  A    between atoms: C_18  and  P_19
REMARK   11  A    between atoms: P_19  and  O_21
REMARK   12  A    between atoms: P_19  and  O_22
REMARK                            x       y       z     vdW  Elec       q    Type
REMARK                         _______ _______ _______ _____ _____    ______ ____
ROOT
ATOM      1  C   UNL     1       2.306   6.075  18.391  0.00  0.00    +0.000 C 
ENDROOT
BRANCH   1   2
ATOM      2  C   UNL     1       2.406   7.007  19.616  0.00  0.00    +0.000 C 
BRANCH   2  10
ATOM      3  N   UNL     1      -0.368   9.356  23.417  0.00  0.00    +0.000 N 
ATOM      4  C   UNL     1       0.033   9.575  22.139  0.00  0.00    +0.000 A 
ATOM      5  N   UNL     1       0.764   8.683  21.525  0.00  0.00    +0.000 NA
ATOM      6  C   UNL     1       1.070   9.033  20.257  0.00  0.00    +0.000 A 
ATOM      7  C   UNL     1       0.719  10.173  19.565  0.00  0.00    +0.000 A 
ATOM      8  N   UNL     1       1.197  10.152  18.282  0.00  0.00    +0.000 NA
ATOM      9  C   UNL     1       1.845   9.007  18.192  0.00  0.00    +0.000 A 
ATOM     10  N   UNL     1       1.796   8.298  19.361  0.00  0.00    +0.000 N 
ATOM     11  C   UNL     1      -0.081  11.150  20.269  0.00  0.00    +0.000 A 
ATOM     12  O   UNL     1      -0.489  12.220  19.798  0.00  0.00    +0.000 OA
ATOM     13  N   UNL     1      -0.374  10.766  21.567  0.00  0.00    +0.000 N 
ATOM     14  H   UNL     1       0.129   8.591  23.861  0.00  0.00    +0.000 HD
ATOM     15  H   UNL     1      -0.480  10.161  24.019  0.00  0.00    +0.000 HD
ATOM     16  H   UNL     1      -0.966  11.396  22.078  0.00  0.00    +0.000 HD
ENDBRANCH   2  10
ENDBRANCH   1   2
BRANCH   1  17
ATOM     17  N   UNL     1       3.383   5.055  18.283  0.00  0.00    +0.000 NA
BRANCH  17  18
ATOM     18  C   UNL     1       4.727   5.725  18.386  0.00  0.00    +0.000 C 
BRANCH  18  19
ATOM     19  C   UNL     1       5.461   5.924  17.060  0.00  0.00    +0.000 C 
BRANCH  19  20
ATOM     20  P   UNL     1       6.623   4.637  16.674  0.00  0.00    +0.000 P 
ATOM     21  O   UNL     1       7.718   4.959  15.711  0.00  0.00    +0.000 OA
BRANCH  20  22
ATOM     22  O   UNL     1       7.222   4.246  18.110  0.00  0.00    +0.000 OA
ATOM     23  H   UNL     1       6.725   3.500  18.515  0.00  0.00    +0.000 HD
ENDBRANCH  20  22
BRANCH  20  24
ATOM     24  O   UNL     1       5.854   3.294  16.287  0.00  0.00    +0.000 OA
ATOM     25  H   UNL     1       6.373   2.490  16.510  0.00  0.00    +0.000 HD
ENDBRANCH  20  24
ENDBRANCH  19  20
ENDBRANCH  18  19
ENDBRANCH  17  18
BRANCH  17  26
ATOM     26  C   UNL     1       3.276   4.090  19.424  0.00  0.00    +0.000 C 
BRANCH  26  27
ATOM     27  P   UNL     1       3.595   2.345  18.975  0.00  0.00    +0.000 P 
ATOM     28  O   UNL     1       3.462   2.639  17.477  0.00  0.00    +0.000 OA
BRANCH  27  29
ATOM     29  O   UNL     1       5.183   2.506  19.342  0.00  0.00    +0.000 OA
ATOM     30  H   UNL     1       5.620   1.674  19.603  0.00  0.00    +0.000 HD
ENDBRANCH  27  29
BRANCH  27  31
ATOM     31  O   UNL     1       3.895   0.695  18.551  0.00  0.00    +0.000 OA
ATOM     32  H   UNL     1       4.109   0.757  17.594  0.00  0.00    +0.000 HD
ENDBRANCH  27  31
ENDBRANCH  26  27
ENDBRANCH  17  26
ENDBRANCH   1  17
TORSDOF 12
ENDMDL
MODEL 2
REMARK VINA RESULT:      -6.8      4.537      6.175
REMARK  Name = 
REMARK  12 active torsions:
REMARK  status: ('A' for Active; 'I' for Inactive)
REMARK    1  A    between atoms: N_8  and  C_9
REMARK    2  A    between atoms: C_9  and  C_10
REMARK    3  A    between atoms: C_10  and  N_11
REMARK    4  A    between atoms: N_11  and  C_12
REMARK    5  A    between atoms: N_11  and  C_18
REMARK    6  A    between atoms: C_12  and  C_13
REMARK    7  A    between atoms: C_13  and  P_14
REMARK    8  A    between atoms: P_14  and  O_16
REMARK    9  A    between atoms: P_14  and  O_17
REMARK   10  A    between atoms: C_18  and  P_19
REMARK   11  A    between atoms: P_19  and  O_21
REMARK   12  A    between atoms: P_19  and  O_22
REMARK                            x       y       z     vdW  Elec       q    Type
REMARK                         _______ _______ _______ _____ _____    ______ ____
ROOT
ATOM      1  C   UNL     1       3.419   3.430  17.162  0.00  0.00    +0.000 C 
ENDROOT
BRANCH   1   2
ATOM      2  C   UNL     1       4.936   3.402  16.879  0.00  0.00    +0.000 C 
BRANCH   2  10
ATOM      3  N   UNL     1       8.420   5.236  20.366  0.00  0.00    +0.000 N 
ATOM      4  C   UNL     1       7.793   5.620  19.226  0.00  0.00    +0.000 A 
ATOM      5  N   UNL     1       6.957   4.807  18.637  0.00  0.00    +0.000 NA
ATOM      6  C   UNL     1       6.401   5.335  17.525  0.00  0.00    +0.000 A 
ATOM      7  C   UNL     1       6.607   6.576  16.960  0.00  0.00    +0.000 A 
ATOM      8  N   UNL     1       5.835   6.756  15.843  0.00  0.00    +0.000 NA
ATOM      9  C   UNL     1       5.166   5.627  15.721  0.00  0.00    +0.000 A 
ATOM     10  N   UNL     1       5.476   4.738  16.713  0.00  0.00    +0.000 N 
ATOM     11  C   UNL     1       7.545   7.453  17.623  0.00  0.00    +0.000 A 
ATOM     12  O   UNL     1       7.841   8.599  17.257  0.00  0.00    +0.000 OA
ATOM     13  N   UNL     1       8.101   6.884  18.755  0.00  0.00    +0.000 N 
ATOM     14  H   UNL     1       8.336   4.241  20.546  0.00  0.00    +0.000 HD
ATOM     15  H   UNL     1       9.350   5.594  20.536  0.00  0.00    +0.000 HD
ATOM     16  H   UNL     1       8.725   7.476  19.272  0.00  0.00    +0.000 HD
ENDBRANCH   2  10
ENDBRANCH   1   2
BRANCH   1  17
ATOM     17  N   UNL     1       3.044   3.412  18.601  0.00  0.00    +0.000 NA
BRANCH  17  18
ATOM     18  C   UNL     1       1.639   3.927  18.765  0.00  0.00    +0.000 C 
BRANCH  18  19
ATOM     19  C   UNL     1       1.466   5.037  19.802  0.00  0.00    +0.000 C 
BRANCH  19  20
ATOM     20  P   UNL     1       2.522   6.441  19.544  0.00  0.00    +0.000 P 
ATOM     21  O   UNL     1       2.218   7.687  20.311  0.00  0.00    +0.000 OA
BRANCH  20  22
ATOM     22  O   UNL     1       3.975   5.877  19.927  0.00  0.00    +0.000 OA
ATOM     23  H   UNL     1       4.658   6.583  19.880  0.00  0.00    +0.000 HD
ENDBRANCH  20  22
BRANCH  20  24
ATOM     24  O   UNL     1       2.703   6.721  17.985  0.00  0.00    +0.000 OA
ATOM     25  H   UNL     1       3.432   6.191  17.593  0.00  0.00    +0.000 HD
ENDBRANCH  20  24
ENDBRANCH  19  20
ENDBRANCH  18  19
ENDBRANCH  17  18
BRANCH  17  26
ATOM     26  C   UNL     1       3.066   2.002  19.107  0.00  0.00    +0.000 C 
BRANCH  26  27
ATOM     27  P   UNL     1       4.327   1.677  20.394  0.00  0.00    +0.000 P 
ATOM     28  O   UNL     1       5.081   0.690  19.497  0.00  0.00    +0.000 OA
BRANCH  27  29
ATOM     29  O   UNL     1       5.008   3.146  20.144  0.00  0.00    +0.000 OA
ATOM     30  H   UNL     1       5.071   3.403  19.206  0.00  0.00    +0.000 HD
ENDBRANCH  27  29
BRANCH  27  31
ATOM     31  O   UNL     1       5.517   1.368  21.611  0.00  0.00    +0.000 OA
ATOM     32  H   UNL     1       5.654   0.399  21.533  0.00  0.00    +0.000 HD
ENDBRANCH  27  31
ENDBRANCH  26  27
ENDBRANCH  17  26
ENDBRANCH   1  17
TORSDOF 12
ENDMDL
MODEL 3
REMARK VINA RESULT:      -6.7      0.837      1.361
REMARK  Name = 
REMARK  12 active torsions:
REMARK  status: ('A' for Active; 'I' for Inactive)
REMARK    1  A    between atoms: N_8  and  C_9
REMARK    2  A    between atoms: C_9  and  C_10
REMARK    3  A    between atoms: C_10  and  N_11
REMARK    4  A    between atoms: N_11  and  C_12
REMARK    5  A    between atoms: N_11  and  C_18
REMARK    6  A    between atoms: C_12  and  C_13
REMARK    7  A    between atoms: C_13  and  P_14
REMARK    8  A    between atoms: P_14  and  O_16
REMARK    9  A    between atoms: P_14  and  O_17
REMARK   10  A    between atoms: C_18  and  P_19
REMARK   11  A    between atoms: P_19  and  O_21
REMARK   12  A    between atoms: P_19  and  O_22
REMARK                            x       y       z     vdW  Elec       q    Type
REMARK                         _______ _______ _______ _____ _____    ______ ____
ROOT
ATOM      1  C   UNL     1       3.437   6.182  18.547  0.00  0.00    +0.000 C 
ENDROOT
BRANCH   1   2
ATOM      2  C   UNL     1       2.482   6.687  19.649  0.00  0.00    +0.000 C 
BRANCH   2  10
ATOM      3  N   UNL     1      -0.296   9.287  23.279  0.00  0.00    +0.000 N 
ATOM      4  C   UNL     1       0.151   9.442  22.008  0.00  0.00    +0.000 A 
ATOM      5  N   UNL     1       0.860   8.499  21.447  0.00  0.00    +0.000 NA
ATOM      6  C   UNL     1       1.218   8.790  20.178  0.00  0.00    +0.000 A 
ATOM      7  C   UNL     1       0.938   9.919  19.437  0.00  0.00    +0.000 A 
ATOM      8  N   UNL     1       1.452   9.831  18.171  0.00  0.00    +0.000 NA
ATOM      9  C   UNL     1       2.051   8.658  18.140  0.00  0.00    +0.000 A 
ATOM     10  N   UNL     1       1.937   7.993  19.330  0.00  0.00    +0.000 N 
ATOM     11  C   UNL     1       0.161  10.953  20.083  0.00  0.00    +0.000 A 
ATOM     12  O   UNL     1      -0.185  12.023  19.563  0.00  0.00    +0.000 OA
ATOM     13  N   UNL     1      -0.186  10.629  21.383  0.00  0.00    +0.000 N 
ATOM     14  H   UNL     1       0.154   8.517  23.764  0.00  0.00    +0.000 HD
ATOM     15  H   UNL     1      -0.390  10.116  23.850  0.00  0.00    +0.000 HD
ATOM     16  H   UNL     1      -0.764  11.301  21.853  0.00  0.00    +0.000 HD
ENDBRANCH   2  10
ENDBRANCH   1   2
BRANCH   1  17
ATOM     17  N   UNL     1       3.025   4.915  17.886  0.00  0.00    +0.000 NA
BRANCH  17  18
ATOM     18  C   UNL     1       4.165   4.381  17.060  0.00  0.00    +0.000 C 
BRANCH  18  19
ATOM     19  C   UNL     1       5.282   5.382  16.763  0.00  0.00    +0.000 C 
BRANCH  19  20
ATOM     20  P   UNL     1       6.799   4.635  16.218  0.00  0.00    +0.000 P 
ATOM     21  O   UNL     1       7.866   4.409  17.239  0.00  0.00    +0.000 OA
BRANCH  20  22
ATOM     22  O   UNL     1       6.311   3.243  15.586  0.00  0.00    +0.000 OA
ATOM     23  H   UNL     1       6.183   3.316  14.613  0.00  0.00    +0.000 HD
ENDBRANCH  20  22
BRANCH  20  24
ATOM     24  O   UNL     1       7.351   5.383  14.922  0.00  0.00    +0.000 OA
ATOM     25  H   UNL     1       6.628   5.687  14.330  0.00  0.00    +0.000 HD
ENDBRANCH  20  24
ENDBRANCH  19  20
ENDBRANCH  18  19
ENDBRANCH  17  18
BRANCH  17  26
ATOM     26  C   UNL     1       2.707   3.887  18.927  0.00  0.00    +0.000 C 
BRANCH  26  27
ATOM     27  P   UNL     1       3.408   2.229  18.597  0.00  0.00    +0.000 P 
ATOM     28  O   UNL     1       4.094   2.176  19.966  0.00  0.00    +0.000 OA
BRANCH  27  29
ATOM     29  O   UNL     1       1.938   1.533  18.786  0.00  0.00    +0.000 OA
ATOM     30  H   UNL     1       1.941   0.741  19.355  0.00  0.00    +0.000 HD
ENDBRANCH  27  29
BRANCH  27  31
ATOM     31  O   UNL     1       4.073   0.663  18.284  0.00  0.00    +0.000 OA
ATOM     32  H   UNL     1       3.280   0.084  18.322  0.00  0.00    +0.000 HD
ENDBRANCH  27  31
ENDBRANCH  26  27
ENDBRANCH  17  26
ENDBRANCH   1  17
TORSDOF 12
ENDMDL
MODEL 4
REMARK VINA RESULT:      -6.7      1.074      2.216
REMARK  Name = 
REMARK  12 active torsions:
REMARK  status: ('A' for Active; 'I' for Inactive)
REMARK    1  A    between atoms: N_8  and  C_9
REMARK    2  A    between atoms: C_9  and  C_10
REMARK    3  A    between atoms: C_10  and  N_11
REMARK    4  A    between atoms: N_11  and  C_12
REMARK    5  A    between atoms: N_11  and  C_18
REMARK    6  A    between atoms: C_12  and  C_13
REMARK    7  A    between atoms: C_13  and  P_14
REMARK    8  A    between atoms: P_14  and  O_16
REMARK    9  A    between atoms: P_14  and  O_17
REMARK   10  A    between atoms: C_18  and  P_19
REMARK   11  A    between atoms: P_19  and  O_21
REMARK   12  A    between atoms: P_19  and  O_22
REMARK                            x       y       z     vdW  Elec       q    Type
REMARK                         _______ _______ _______ _____ _____    ______ ____
ROOT
ATOM      1  C   UNL     1       2.241   5.947  18.144  0.00  0.00    +0.000 C 
ENDROOT
BRANCH   1   2
ATOM      2  C   UNL     1       2.524   7.460  18.256  0.00  0.00    +0.000 C 
BRANCH   2  10
ATOM      3  N   UNL     1       0.570  12.340  18.107  0.00  0.00    +0.000 N 
ATOM      4  C   UNL     1       0.714  11.307  18.973  0.00  0.00    +0.000 A 
ATOM      5  N   UNL     1       1.284  10.200  18.578  0.00  0.00    +0.000 NA
ATOM      6  C   UNL     1       1.369   9.271  19.555  0.00  0.00    +0.000 A 
ATOM      7  C   UNL     1       0.940   9.349  20.863  0.00  0.00    +0.000 A 
ATOM      8  N   UNL     1       1.231   8.206  21.558  0.00  0.00    +0.000 NA
ATOM      9  C   UNL     1       1.829   7.429  20.677  0.00  0.00    +0.000 A 
ATOM     10  N   UNL     1       1.933   8.029  19.453  0.00  0.00    +0.000 N 
ATOM     11  C   UNL     1       0.302  10.580  21.274  0.00  0.00    +0.000 A 
ATOM     12  O   UNL     1      -0.133  10.821  22.408  0.00  0.00    +0.000 OA
ATOM     13  N   UNL     1       0.225  11.509  20.251  0.00  0.00    +0.000 N 
ATOM     14  H   UNL     1       0.737  12.072  17.142  0.00  0.00    +0.000 HD
ATOM     15  H   UNL     1      -0.234  12.941  18.220  0.00  0.00    +0.000 HD
ATOM     16  H   UNL     1      -0.171  12.396  20.506  0.00  0.00    +0.000 HD
ENDBRANCH   2  10
ENDBRANCH   1   2
BRANCH   1  17
ATOM     17  N   UNL     1       3.447   5.076  18.173  0.00  0.00    +0.000 NA
BRANCH  17  18
ATOM     18  C   UNL     1       4.680   5.924  18.332  0.00  0.00    +0.000 C 
BRANCH  18  19
ATOM     19  C   UNL     1       5.559   6.041  17.086  0.00  0.00    +0.000 C 
BRANCH  19  20
ATOM     20  P   UNL     1       6.773   4.754  16.931  0.00  0.00    +0.000 P 
ATOM     21  O   UNL     1       7.556   4.391  18.150  0.00  0.00    +0.000 OA
BRANCH  20  22
ATOM     22  O   UNL     1       5.911   3.503  16.413  0.00  0.00    +0.000 OA
ATOM     23  H   UNL     1       5.387   3.735  15.613  0.00  0.00    +0.000 HD
ENDBRANCH  20  22
BRANCH  20  24
ATOM     24  O   UNL     1       7.710   5.024  15.669  0.00  0.00    +0.000 OA
ATOM     25  H   UNL     1       8.007   5.960  15.618  0.00  0.00    +0.000 HD
ENDBRANCH  20  24
ENDBRANCH  19  20
ENDBRANCH  18  19
ENDBRANCH  17  18
BRANCH  17  26
ATOM     26  C   UNL     1       3.376   4.162  19.357  0.00  0.00    +0.000 C 
BRANCH  26  27
ATOM     27  P   UNL     1       3.642   2.393  18.968  0.00  0.00    +0.000 P 
ATOM     28  O   UNL     1       3.569   2.648  17.459  0.00  0.00    +0.000 OA
BRANCH  27  29
ATOM     29  O   UNL     1       5.223   2.506  19.383  0.00  0.00    +0.000 OA
ATOM     30  H   UNL     1       5.671   1.645  19.484  0.00  0.00    +0.000 HD
ENDBRANCH  27  29
BRANCH  27  31
ATOM     31  O   UNL     1       3.892   0.721  18.600  0.00  0.00    +0.000 OA
ATOM     32  H   UNL     1       3.404   0.615  17.754  0.00  0.00    +0.000 HD
ENDBRANCH  27  31
ENDBRANCH  26  27
ENDBRANCH  17  26
ENDBRANCH   1  17
TORSDOF 12
ENDMDL
MODEL 5
REMARK VINA RESULT:      -6.7      1.344      3.316
REMARK  Name = 
REMARK  12 active torsions:
REMARK  status: ('A' for Active; 'I' for Inactive)
REMARK    1  A    between atoms: N_8  and  C_9
REMARK    2  A    between atoms: C_9  and  C_10
REMARK    3  A    between atoms: C_10  and  N_11
REMARK    4  A    between atoms: N_11  and  C_12
REMARK    5  A    between atoms: N_11  and  C_18
REMARK    6  A    between atoms: C_12  and  C_13
REMARK    7  A    between atoms: C_13  and  P_14
REMARK    8  A    between atoms: P_14  and  O_16
REMARK    9  A    between atoms: P_14  and  O_17
REMARK   10  A    between atoms: C_18  and  P_19
REMARK   11  A    between atoms: P_19  and  O_21
REMARK   12  A    between atoms: P_19  and  O_22
REMARK                            x       y       z     vdW  Elec       q    Type
REMARK                         _______ _______ _______ _____ _____    ______ ____
ROOT
ATOM      1  C   UNL     1       4.146   6.044  19.535  0.00  0.00    +0.000 C 
ENDROOT
BRANCH   1   2
ATOM      2  C   UNL     1       2.671   6.128  19.091  0.00  0.00    +0.000 C 
BRANCH   2  10
ATOM      3  N   UNL     1       0.335   9.156  22.702  0.00  0.00    +0.000 N 
ATOM      4  C   UNL     1       0.768   9.220  21.418  0.00  0.00    +0.000 A 
ATOM      5  N   UNL     1       1.337   8.179  20.870  0.00  0.00    +0.000 NA
ATOM      6  C   UNL     1       1.699   8.389  19.586  0.00  0.00    +0.000 A 
ATOM      7  C   UNL     1       1.548   9.526  18.819  0.00  0.00    +0.000 A 
ATOM      8  N   UNL     1       2.017   9.341  17.546  0.00  0.00    +0.000 NA
ATOM      9  C   UNL     1       2.460   8.099  17.536  0.00  0.00    +0.000 A 
ATOM     10  N   UNL     1       2.290   7.485  18.747  0.00  0.00    +0.000 N 
ATOM     11  C   UNL     1       0.926  10.668  19.451  0.00  0.00    +0.000 A 
ATOM     12  O   UNL     1       0.708  11.759  18.908  0.00  0.00    +0.000 OA
ATOM     13  N   UNL     1       0.571  10.424  20.766  0.00  0.00    +0.000 N 
ATOM     14  H   UNL     1       0.694   8.348  23.199  0.00  0.00    +0.000 HD
ATOM     15  H   UNL     1       0.361  10.005  23.250  0.00  0.00    +0.000 HD
ATOM     16  H   UNL     1       0.095  11.177  21.229  0.00  0.00    +0.000 HD
ENDBRANCH   2  10
ENDBRANCH   1   2
BRANCH   1  17
ATOM     17  N   UNL     1       4.907   4.890  18.985  0.00  0.00    +0.000 NA
BRANCH  17  18
ATOM     18  C   UNL     1       4.382   4.545  17.616  0.00  0.00    +0.000 C 
BRANCH  18  19
ATOM     19  C   UNL     1       4.037   3.072  17.400  0.00  0.00    +0.000 C 
BRANCH  19  20
ATOM     20  P   UNL     1       3.794   2.156  18.902  0.00  0.00    +0.000 P 
ATOM     21  O   UNL     1       2.548   2.423  19.682  0.00  0.00    +0.000 OA
BRANCH  20  22
ATOM     22  O   UNL     1       3.841   0.630  18.408  0.00  0.00    +0.000 OA
ATOM     23  H   UNL     1       3.938   0.010  19.166  0.00  0.00    +0.000 HD
ENDBRANCH  20  22
BRANCH  20  24
ATOM     24  O   UNL     1       5.102   2.224  19.812  0.00  0.00    +0.000 OA
ATOM     25  H   UNL     1       5.718   1.480  19.636  0.00  0.00    +0.000 HD
ENDBRANCH  20  24
ENDBRANCH  19  20
ENDBRANCH  18  19
ENDBRANCH  17  18
BRANCH  17  26
ATOM     26  C   UNL     1       6.348   5.267  18.830  0.00  0.00    +0.000 C 
BRANCH  26  27
ATOM     27  P   UNL     1       6.914   5.409  17.096  0.00  0.00    +0.000 P 
ATOM     28  O   UNL     1       7.649   6.724  17.376  0.00  0.00    +0.000 OA
BRANCH  27  29
ATOM     29  O   UNL     1       8.006   4.209  17.319  0.00  0.00    +0.000 OA
ATOM     30  H   UNL     1       8.762   4.237  16.703  0.00  0.00    +0.000 HD
ENDBRANCH  27  29
BRANCH  27  31
ATOM     31  O   UNL     1       7.448   5.545  15.456  0.00  0.00    +0.000 OA
ATOM     32  H   UNL     1       8.405   5.337  15.526  0.00  0.00    +0.000 HD
ENDBRANCH  27  31
ENDBRANCH  26  27
ENDBRANCH  17  26
ENDBRANCH   1  17
TORSDOF 12
ENDMDL
MODEL 6
REMARK VINA RESULT:      -6.7      1.290      3.583
REMARK  Name = 
REMARK  12 active torsions:
REMARK  status: ('A' for Active; 'I' for Inactive)
REMARK    1  A    between atoms: N_8  and  C_9
REMARK    2  A    between atoms: C_9  and  C_10
REMARK    3  A    between atoms: C_10  and  N_11
REMARK    4  A    between atoms: N_11  and  C_12
REMARK    5  A    between atoms: N_11  and  C_18
REMARK    6  A    between atoms: C_12  and  C_13
REMARK    7  A    between atoms: C_13  and  P_14
REMARK    8  A    between atoms: P_14  and  O_16
REMARK    9  A    between atoms: P_14  and  O_17
REMARK   10  A    between atoms: C_18  and  P_19
REMARK   11  A    between atoms: P_19  and  O_21
REMARK   12  A    between atoms: P_19  and  O_22
REMARK                            x       y       z     vdW  Elec       q    Type
REMARK                         _______ _______ _______ _____ _____    ______ ____
ROOT
ATOM      1  C   UNL     1       3.021   6.428  18.058  0.00  0.00    +0.000 C 
ENDROOT
BRANCH   1   2
ATOM      2  C   UNL     1       2.495   7.876  17.972  0.00  0.00    +0.000 C 
BRANCH   2  10
ATOM      3  N   UNL     1       0.033  12.518  18.187  0.00  0.00    +0.000 N 
ATOM      4  C   UNL     1       0.294  11.446  18.975  0.00  0.00    +0.000 A 
ATOM      5  N   UNL     1       0.974  10.437  18.498  0.00  0.00    +0.000 NA
ATOM      6  C   UNL     1       1.168   9.455  19.404  0.00  0.00    +0.000 A 
ATOM      7  C   UNL     1       0.748   9.392  20.716  0.00  0.00    +0.000 A 
ATOM      8  N   UNL     1       1.166   8.239  21.324  0.00  0.00    +0.000 NA
ATOM      9  C   UNL     1       1.834   7.596  20.387  0.00  0.00    +0.000 A 
ATOM     10  N   UNL     1       1.860   8.291  19.209  0.00  0.00    +0.000 N 
ATOM     11  C   UNL     1      -0.012  10.515  21.217  0.00  0.00    +0.000 A 
ATOM     12  O   UNL     1      -0.458  10.625  22.367  0.00  0.00    +0.000 OA
ATOM     13  N   UNL     1      -0.199  11.502  20.266  0.00  0.00    +0.000 N 
ATOM     14  H   UNL     1       0.216  12.340  17.204  0.00  0.00    +0.000 HD
ATOM     15  H   UNL     1      -0.830  13.020  18.346  0.00  0.00    +0.000 HD
ATOM     16  H   UNL     1      -0.684  12.321  20.586  0.00  0.00    +0.000 HD
ENDBRANCH   2  10
ENDBRANCH   1   2
BRANCH   1  17
ATOM     17  N   UNL     1       4.494   6.300  18.221  0.00  0.00    +0.000 NA
BRANCH  17  18
ATOM     18  C   UNL     1       4.801   5.186  19.186  0.00  0.00    +0.000 C 
BRANCH  18  19
ATOM     19  C   UNL     1       3.600   4.345  19.618  0.00  0.00    +0.000 C 
BRANCH  19  20
ATOM     20  P   UNL     1       3.722   2.628  19.181  0.00  0.00    +0.000 P 
ATOM     21  O   UNL     1       2.494   1.789  19.320  0.00  0.00    +0.000 OA
BRANCH  20  22
ATOM     22  O   UNL     1       4.208   2.677  17.652  0.00  0.00    +0.000 OA
ATOM     23  H   UNL     1       3.827   3.450  17.179  0.00  0.00    +0.000 HD
ENDBRANCH  20  22
BRANCH  20  24
ATOM     24  O   UNL     1       4.990   1.965  19.885  0.00  0.00    +0.000 OA
ATOM     25  H   UNL     1       5.272   1.135  19.440  0.00  0.00    +0.000 HD
ENDBRANCH  20  24
ENDBRANCH  19  20
ENDBRANCH  18  19
ENDBRANCH  17  18
BRANCH  17  26
ATOM     26  C   UNL     1       5.113   5.937  16.907  0.00  0.00    +0.000 C 
BRANCH  26  27
ATOM     27  P   UNL     1       6.682   5.004  17.039  0.00  0.00    +0.000 P 
ATOM     28  O   UNL     1       6.223   3.960  16.016  0.00  0.00    +0.000 OA
BRANCH  27  29
ATOM     29  O   UNL     1       7.480   6.161  16.197  0.00  0.00    +0.000 OA
ATOM     30  H   UNL     1       8.141   6.651  16.719  0.00  0.00    +0.000 HD
ENDBRANCH  27  29
BRANCH  27  31
ATOM     31  O   UNL     1       8.165   4.121  17.165  0.00  0.00    +0.000 OA
ATOM     32  H   UNL     1       8.407   4.247  18.108  0.00  0.00    +0.000 HD
ENDBRANCH  27  31
ENDBRANCH  26  27
ENDBRANCH  17  26
ENDBRANCH   1  17
TORSDOF 12
ENDMDL
MODEL 7
REMARK VINA RESULT:      -6.7      1.684      1.978
REMARK  Name = 
REMARK  12 active torsions:
REMARK  status: ('A' for Active; 'I' for Inactive)
REMARK    1  A    between atoms: N_8  and  C_9
REMARK    2  A    between atoms: C_9  and  C_10
REMARK    3  A    between atoms: C_10  and  N_11
REMARK    4  A    between atoms: N_11  and  C_12
REMARK    5  A    between atoms: N_11  and  C_18
REMARK    6  A    between atoms: C_12  and  C_13
REMARK    7  A    between atoms: C_13  and  P_14
REMARK    8  A    between atoms: P_14  and  O_16
REMARK    9  A    between atoms: P_14  and  O_17
REMARK   10  A    between atoms: C_18  and  P_19
REMARK   11  A    between atoms: P_19  and  O_21
REMARK   12  A    between atoms: P_19  and  O_22
REMARK                            x       y       z     vdW  Elec       q    Type
REMARK                         _______ _______ _______ _____ _____    ______ ____
ROOT
ATOM      1  C   UNL     1       4.199   5.491  18.720  0.00  0.00    +0.000 C 
ENDROOT
BRANCH   1   2
ATOM      2  C   UNL     1       3.096   6.081  19.623  0.00  0.00    +0.000 C 
BRANCH   2  10
ATOM      3  N   UNL     1      -0.131   9.023  22.555  0.00  0.00    +0.000 N 
ATOM      4  C   UNL     1       0.448   9.027  21.328  0.00  0.00    +0.000 A 
ATOM      5  N   UNL     1       1.239   8.047  20.978  0.00  0.00    +0.000 NA
ATOM      6  C   UNL     1       1.724   8.181  19.725  0.00  0.00    +0.000 A 
ATOM      7  C   UNL     1       1.496   9.189  18.812  0.00  0.00    +0.000 A 
ATOM      8  N   UNL     1       2.147   8.956  17.630  0.00  0.00    +0.000 NA
ATOM      9  C   UNL     1       2.778   7.814  17.822  0.00  0.00    +0.000 A 
ATOM     10  N   UNL     1       2.553   7.310  19.074  0.00  0.00    +0.000 N 
ATOM     11  C   UNL     1       0.626  10.267  19.226  0.00  0.00    +0.000 A 
ATOM     12  O   UNL     1       0.309  11.243  18.531  0.00  0.00    +0.000 OA
ATOM     13  N   UNL     1       0.149  10.104  20.514  0.00  0.00    +0.000 N 
ATOM     14  H   UNL     1       0.285   8.344  23.185  0.00  0.00    +0.000 HD
ATOM     15  H   UNL     1      -0.309   9.916  22.994  0.00  0.00    +0.000 HD
ATOM     16  H   UNL     1      -0.496  10.808  20.826  0.00  0.00    +0.000 HD
ENDBRANCH   2  10
ENDBRANCH   1   2
BRANCH   1  17
ATOM     17  N   UNL     1       3.771   4.354  17.862  0.00  0.00    +0.000 NA
BRANCH  17  18
ATOM     18  C   UNL     1       4.878   3.998  16.906  0.00  0.00    +0.000 C 
BRANCH  18  19
ATOM     19  C   UNL     1       5.374   5.143  16.023  0.00  0.00    +0.000 C 
BRANCH  19  20
ATOM     20  P   UNL     1       7.142   5.226  15.867  0.00  0.00    +0.000 P 
ATOM     21  O   UNL     1       7.715   5.241  14.487  0.00  0.00    +0.000 OA
BRANCH  20  22
ATOM     22  O   UNL     1       7.513   6.574  16.654  0.00  0.00    +0.000 OA
ATOM     23  H   UNL     1       7.622   7.331  16.036  0.00  0.00    +0.000 HD
ENDBRANCH  20  22
BRANCH  20  24
ATOM     24  O   UNL     1       7.832   4.129  16.795  0.00  0.00    +0.000 OA
ATOM     25  H   UNL     1       8.680   4.444  17.178  0.00  0.00    +0.000 HD
ENDBRANCH  20  24
ENDBRANCH  19  20
ENDBRANCH  18  19
ENDBRANCH  17  18
BRANCH  17  26
ATOM     26  C   UNL     1       3.513   3.151  18.715  0.00  0.00    +0.000 C 
BRANCH  26  27
ATOM     27  P   UNL     1       1.829   2.452  18.552  0.00  0.00    +0.000 P 
ATOM     28  O   UNL     1       1.424   2.933  19.948  0.00  0.00    +0.000 OA
BRANCH  27  29
ATOM     29  O   UNL     1       1.402   3.639  17.508  0.00  0.00    +0.000 OA
ATOM     30  H   UNL     1       1.956   3.685  16.706  0.00  0.00    +0.000 HD
ENDBRANCH  27  29
BRANCH  27  31
ATOM     31  O   UNL     1       0.238   1.789  18.398  0.00  0.00    +0.000 OA
ATOM     32  H   UNL     1      -0.312   2.590  18.252  0.00  0.00    +0.000 HD
ENDBRANCH  27  31
ENDBRANCH  26  27
ENDBRANCH  17  26
ENDBRANCH   1  17
TORSDOF 12
ENDMDL
MODEL 8
REMARK VINA RESULT:      -6.7      1.045      3.030
REMARK  Name = 
REMARK  12 active torsions:
REMARK  status: ('A' for Active; 'I' for Inactive)
REMARK    1  A    between atoms: N_8  and  C_9
REMARK    2  A    between atoms: C_9  and  C_10
REMARK    3  A    between atoms: C_10  and  N_11
REMARK    4  A    between atoms: N_11  and  C_12
REMARK    5  A    between atoms: N_11  and  C_18
REMARK    6  A    between atoms: C_12  and  C_13
REMARK    7  A    between atoms: C_13  and  P_14
REMARK    8  A    between atoms: P_14  and  O_16
REMARK    9  A    between atoms: P_14  and  O_17
REMARK   10  A    between atoms: C_18  and  P_19
REMARK   11  A    between atoms: P_19  and  O_21
REMARK   12  A    between atoms: P_19  and  O_22
REMARK                            x       y       z     vdW  Elec       q    Type
REMARK                         _______ _______ _______ _____ _____    ______ ____
ROOT
ATOM      1  C   UNL     1       3.687   6.942  18.154  0.00  0.00    +0.000 C 
ENDROOT
BRANCH   1   2
ATOM      2  C   UNL     1       2.473   7.111  19.091  0.00  0.00    +0.000 C 
BRANCH   2  10
ATOM      3  N   UNL     1      -0.526   8.948  23.001  0.00  0.00    +0.000 N 
ATOM      4  C   UNL     1      -0.040   9.338  21.796  0.00  0.00    +0.000 A 
ATOM      5  N   UNL     1       0.723   8.529  21.109  0.00  0.00    +0.000 NA
ATOM      6  C   UNL     1       1.115   9.050  19.926  0.00  0.00    +0.000 A 
ATOM      7  C   UNL     1       0.820  10.283  19.383  0.00  0.00    +0.000 A 
ATOM      8  N   UNL     1       1.383  10.435  18.144  0.00  0.00    +0.000 NA
ATOM      9  C   UNL     1       2.025   9.303  17.933  0.00  0.00    +0.000 A 
ATOM     10  N   UNL     1       1.892   8.436  18.983  0.00  0.00    +0.000 N 
ATOM     11  C   UNL     1      -0.016  11.164  20.166  0.00  0.00    +0.000 A 
ATOM     12  O   UNL     1      -0.382  12.298  19.828  0.00  0.00    +0.000 OA
ATOM     13  N   UNL     1      -0.397  10.606  21.374  0.00  0.00    +0.000 N 
ATOM     14  H   UNL     1      -0.066   8.119  23.362  0.00  0.00    +0.000 HD
ATOM     15  H   UNL     1      -0.671   9.661  23.703  0.00  0.00    +0.000 HD
ATOM     16  H   UNL     1      -1.016  11.167  21.930  0.00  0.00    +0.000 HD
ENDBRANCH   2  10
ENDBRANCH   1   2
BRANCH   1  17
ATOM     17  N   UNL     1       4.170   5.544  17.992  0.00  0.00    +0.000 NA
BRANCH  17  18
ATOM     18  C   UNL     1       2.999   4.630  17.748  0.00  0.00    +0.000 C 
BRANCH  18  19
ATOM     19  C   UNL     1       3.355   3.167  17.482  0.00  0.00    +0.000 C 
BRANCH  19  20
ATOM     20  P   UNL     1       3.598   2.200  18.952  0.00  0.00    +0.000 P 
ATOM     21  O   UNL     1       2.493   2.179  19.957  0.00  0.00    +0.000 OA
BRANCH  20  22
ATOM     22  O   UNL     1       3.874   0.728  18.376  0.00  0.00    +0.000 OA
ATOM     23  H   UNL     1       3.759   0.697  17.400  0.00  0.00    +0.000 HD
ENDBRANCH  20  22
BRANCH  20  24
ATOM     24  O   UNL     1       5.009   2.540  19.613  0.00  0.00    +0.000 OA
ATOM     25  H   UNL     1       5.760   2.346  19.010  0.00  0.00    +0.000 HD
ENDBRANCH  20  24
ENDBRANCH  19  20
ENDBRANCH  18  19
ENDBRANCH  17  18
BRANCH  17  26
ATOM     26  C   UNL     1       5.063   5.458  16.793  0.00  0.00    +0.000 C 
BRANCH  26  27
ATOM     27  P   UNL     1       6.719   4.754  17.129  0.00  0.00    +0.000 P 
ATOM     28  O   UNL     1       7.418   6.078  16.802  0.00  0.00    +0.000 OA
BRANCH  27  29
ATOM     29  O   UNL     1       6.433   4.765  18.741  0.00  0.00    +0.000 OA
ATOM     30  H   UNL     1       5.583   4.361  18.999  0.00  0.00    +0.000 HD
ENDBRANCH  27  29
BRANCH  27  31
ATOM     31  O   UNL     1       8.285   4.089  17.444  0.00  0.00    +0.000 OA
ATOM     32  H   UNL     1       8.121   3.525  18.232  0.00  0.00    +0.000 HD
ENDBRANCH  27  31
ENDBRANCH  26  27
ENDBRANCH  17  26
ENDBRANCH   1  17
TORSDOF 12
ENDMDL
MODEL 9
REMARK VINA RESULT:      -6.6      1.346      3.412
REMARK  Name = 
REMARK  12 active torsions:
REMARK  status: ('A' for Active; 'I' for Inactive)
REMARK    1  A    between atoms: N_8  and  C_9
REMARK    2  A    between atoms: C_9  and  C_10
REMARK    3  A    between atoms: C_10  and  N_11
REMARK    4  A    between atoms: N_11  and  C_12
REMARK    5  A    between atoms: N_11  and  C_18
REMARK    6  A    between atoms: C_12  and  C_13
REMARK    7  A    between atoms: C_13  and  P_14
REMARK    8  A    between atoms: P_14  and  O_16
REMARK    9  A    between atoms: P_14  and  O_17
REMARK   10  A    between atoms: C_18  and  P_19
REMARK   11  A    between atoms: P_19  and  O_21
REMARK   12  A    between atoms: P_19  and  O_22
REMARK                            x       y       z     vdW  Elec       q    Type
REMARK                         _______ _______ _______ _____ _____    ______ ____
ROOT
ATOM      1  C   UNL     1       3.873   6.598  18.084  0.00  0.00    +0.000 C 
ENDROOT
BRANCH   1   2
ATOM      2  C   UNL     1       2.727   6.840  19.089  0.00  0.00    +0.000 C 
BRANCH   2  10
ATOM      3  N   UNL     1      -0.344   8.838  22.862  0.00  0.00    +0.000 N 
ATOM      4  C   UNL     1       0.134   9.161  21.635  0.00  0.00    +0.000 A 
ATOM      5  N   UNL     1       0.925   8.333  21.005  0.00  0.00    +0.000 NA
ATOM      6  C   UNL     1       1.305   8.786  19.790  0.00  0.00    +0.000 A 
ATOM      7  C   UNL     1       0.973   9.970  19.165  0.00  0.00    +0.000 A 
ATOM      8  N   UNL     1       1.535  10.057  17.920  0.00  0.00    +0.000 NA
ATOM      9  C   UNL     1       2.214   8.934  17.786  0.00  0.00    +0.000 A 
ATOM     10  N   UNL     1       2.105   8.136  18.892  0.00  0.00    +0.000 N 
ATOM     11  C   UNL     1       0.106  10.874  19.887  0.00  0.00    +0.000 A 
ATOM     12  O   UNL     1      -0.294  11.970  19.472  0.00  0.00    +0.000 OA
ATOM     13  N   UNL     1      -0.262  10.386  21.128  0.00  0.00    +0.000 N 
ATOM     14  H   UNL     1       0.141   8.049  23.279  0.00  0.00    +0.000 HD
ATOM     15  H   UNL     1      -0.514   9.590  23.514  0.00  0.00    +0.000 HD
ATOM     16  H   UNL     1      -0.901  10.963  21.645  0.00  0.00    +0.000 HD
ENDBRANCH   2  10
ENDBRANCH   1   2
BRANCH   1  17
ATOM     17  N   UNL     1       4.599   5.311  18.252  0.00  0.00    +0.000 NA
BRANCH  17  18
ATOM     18  C   UNL     1       4.283   4.397  17.099  0.00  0.00    +0.000 C 
BRANCH  18  19
ATOM     19  C   UNL     1       3.818   2.993  17.484  0.00  0.00    +0.000 C 
BRANCH  19  20
ATOM     20  P   UNL     1       2.280   2.956  18.372  0.00  0.00    +0.000 P 
ATOM     21  O   UNL     1       1.093   3.594  17.727  0.00  0.00    +0.000 OA
BRANCH  20  22
ATOM     22  O   UNL     1       2.030   1.387  18.600  0.00  0.00    +0.000 OA
ATOM     23  H   UNL     1       1.791   1.195  19.535  0.00  0.00    +0.000 HD
ENDBRANCH  20  22
BRANCH  20  24
ATOM     24  O   UNL     1       2.492   3.454  19.872  0.00  0.00    +0.000 OA
ATOM     25  H   UNL     1       3.114   4.213  19.928  0.00  0.00    +0.000 HD
ENDBRANCH  20  24
ENDBRANCH  19  20
ENDBRANCH  18  19
ENDBRANCH  17  18
BRANCH  17  26
ATOM     26  C   UNL     1       6.075   5.561  18.233  0.00  0.00    +0.000 C 
BRANCH  26  27
ATOM     27  P   UNL     1       6.851   5.400  16.584  0.00  0.00    +0.000 P 
ATOM     28  O   UNL     1       7.543   6.762  16.704  0.00  0.00    +0.000 OA
BRANCH  27  29
ATOM     29  O   UNL     1       7.911   4.288  17.154  0.00  0.00    +0.000 OA
ATOM     30  H   UNL     1       7.796   3.396  16.777  0.00  0.00    +0.000 HD
ENDBRANCH  27  29
BRANCH  27  31
ATOM     31  O   UNL     1       7.584   5.248  15.023  0.00  0.00    +0.000 OA
ATOM     32  H   UNL     1       7.750   6.183  14.775  0.00  0.00    +0.000 HD
ENDBRANCH  27  31
ENDBRANCH  26  27
ENDBRANCH  17  26
ENDBRANCH   1  17
TORSDOF 12
ENDMDL
