MODEL 1
REMARK VINA RESULT:      -6.8      0.000      0.000
REMARK  Name = 
REMARK  10 active torsions:
REMARK  status: ('A' for Active; 'I' for Inactive)
REMARK    1  A    between atoms: C_1  and  C_2
REMARK    2  A    between atoms: C_2  and  C_4
REMARK    3  A    between atoms: C_4  and  C_5
REMARK    4  A    between atoms: C_5  and  C_6
REMARK    5  A    between atoms: C_6  and  C_7
REMARK    6  A    between atoms: C_6  and  C_16
REMARK    7  A    between atoms: C_9  and  C_10
REMARK    8  A    between atoms: C_9  and  O_11
REMARK    9  A    between atoms: C_16  and  C_17
REMARK   10  A    between atoms: C_16  and  C_18
REMARK                            x       y       z     vdW  Elec       q    Type
REMARK                         _______ _______ _______ _____ _____    ______ ____
ROOT
ATOM      1  C   UNL     1       4.696   4.965  17.823  0.00  0.00    +0.000 C 
ATOM      2  C   UNL     1       4.782   5.024  16.486  0.00  0.00    +0.000 C 
ATOM      3  C   UNL     1       6.019   4.894  15.657  0.00  0.00    +0.000 C 
ATOM      4  C   UNL     1       5.841   3.716  14.688  0.00  0.00    +0.000 C 
ATOM      5  C   UNL     1       7.339   4.737  16.422  0.00  0.00    +0.000 C 
ATOM      6  C   UNL     1       7.285   4.731  17.941  0.00  0.00    +0.000 C 
ATOM      7  C   UNL     1       5.945   4.833  18.622  0.00  0.00    +0.000 C 
ATOM      8  O   UNL     1       5.896   4.820  19.852  0.00  0.00    +0.000 OA
ENDROOT
BRANCH   3   9
ATOM      9  O   UNL     1       6.094   6.075  14.862  0.00  0.00    +0.000 OA
ATOM     10  H   UNL     1       5.435   6.000  14.150  0.00  0.00    +0.000 HD
ENDBRANCH   3   9
BRANCH   1  11
ATOM     11  C   UNL     1       3.349   4.931  18.544  0.00  0.00    +0.000 C 
BRANCH  11  12
ATOM     12  C   UNL     1       3.007   6.337  19.141  0.00  0.00    +0.000 C 
ATOM     13  C   UNL     1       2.397   7.289  18.106  0.00  0.00    +0.000 C 
ATOM     14  C   UNL     1       2.040   6.239  20.334  0.00  0.00    +0.000 C 
ENDBRANCH  11  12
BRANCH  11  15
ATOM     15  C   UNL     1       2.216   4.349  17.658  0.00  0.00    +0.000 C 
BRANCH  15  16
ATOM     16  C   UNL     1       1.245   3.450  18.428  0.00  0.00    +0.000 C 
BRANCH  16  18
ATOM     17  C   UNL     1       1.732   2.539  20.789  0.00  0.00    +0.000 C 
ATOM     18  C   UNL     1       1.998   2.472  19.305  0.00  0.00    +0.000 C 
ATOM     19  O   UNL     1       2.800   1.672  18.830  0.00  0.00    +0.000 OA
ENDBRANCH  16  18
ENDBRANCH  15  16
ENDBRANCH  11  15
ENDBRANCH   1  11
TORSDOF 6
ENDMDL
MODEL 2
REMARK VINA RESULT:      -6.8      1.761      5.511
REMARK  Name = 
REMARK  10 active torsions:
REMARK  status: ('A' for Active; 'I' for Inactive)
REMARK    1  A    between atoms: C_1  and  C_2
REMARK    2  A    between atoms: C_2  and  C_4
REMARK    3  A    between atoms: C_4  and  C_5
REMARK    4  A    between atoms: C_5  and  C_6
REMARK    5  A    between atoms: C_6  and  C_7
REMARK    6  A    between atoms: C_6  and  C_16
REMARK    7  A    between atoms: C_9  and  C_10
REMARK    8  A    between atoms: C_9  and  O_11
REMARK    9  A    between atoms: C_16  and  C_17
REMARK   10  A    between atoms: C_16  and  C_18
REMARK                            x       y       z     vdW  Elec       q    Type
REMARK                         _______ _______ _______ _____ _____    ______ ____
ROOT
ATOM      1  C   UNL     1       4.602   5.250  17.739  0.00  0.00    +0.000 C 
ATOM      2  C   UNL     1       4.386   4.005  18.189  0.00  0.00    +0.000 C 
ATOM      3  C   UNL     1       3.096   3.438  18.684  0.00  0.00    +0.000 C 
ATOM      4  C   UNL     1       2.732   2.218  17.825  0.00  0.00    +0.000 C 
ATOM      5  C   UNL     1       1.905   4.403  18.741  0.00  0.00    +0.000 C 
ATOM      6  C   UNL     1       2.131   5.839  18.300  0.00  0.00    +0.000 C 
ATOM      7  C   UNL     1       3.490   6.238  17.787  0.00  0.00    +0.000 C 
ATOM      8  O   UNL     1       3.675   7.398  17.421  0.00  0.00    +0.000 OA
ENDROOT
BRANCH   3   9
ATOM      9  O   UNL     1       3.350   2.954  20.001  0.00  0.00    +0.000 OA
ATOM     10  H   UNL     1       2.667   2.297  20.217  0.00  0.00    +0.000 HD
ENDBRANCH   3   9
BRANCH   1  11
ATOM     11  C   UNL     1       5.925   5.655  17.090  0.00  0.00    +0.000 C 
BRANCH  11  12
ATOM     12  C   UNL     1       6.868   6.336  18.139  0.00  0.00    +0.000 C 
ATOM     13  C   UNL     1       7.907   5.368  18.718  0.00  0.00    +0.000 C 
ATOM     14  C   UNL     1       7.614   7.544  17.547  0.00  0.00    +0.000 C 
ENDBRANCH  11  12
BRANCH  11  15
ATOM     15  C   UNL     1       6.598   4.482  16.331  0.00  0.00    +0.000 C 
BRANCH  15  16
ATOM     16  C   UNL     1       5.930   4.163  14.991  0.00  0.00    +0.000 C 
BRANCH  16  18
ATOM     17  C   UNL     1       6.629   3.778  12.541  0.00  0.00    +0.000 C 
ATOM     18  C   UNL     1       6.839   4.525  13.836  0.00  0.00    +0.000 C 
ATOM     19  O   UNL     1       7.718   5.375  13.954  0.00  0.00    +0.000 OA
ENDBRANCH  16  18
ENDBRANCH  15  16
ENDBRANCH  11  15
ENDBRANCH   1  11
TORSDOF 6
ENDMDL
MODEL 3
REMARK VINA RESULT:      -6.6      1.017      1.128
REMARK  Name = 
REMARK  10 active torsions:
REMARK  status: ('A' for Active; 'I' for Inactive)
REMARK    1  A    between atoms: C_1  and  C_2
REMARK    2  A    between atoms: C_2  and  C_4
REMARK    3  A    between atoms: C_4  and  C_5
REMARK    4  A    between atoms: C_5  and  C_6
REMARK    5  A    between atoms: C_6  and  C_7
REMARK    6  A    between atoms: C_6  and  C_16
REMARK    7  A    between atoms: C_9  and  C_10
REMARK    8  A    between atoms: C_9  and  O_11
REMARK    9  A    between atoms: C_16  and  C_17
REMARK   10  A    between atoms: C_16  and  C_18
REMARK                            x       y       z     vdW  Elec       q    Type
REMARK                         _______ _______ _______ _____ _____    ______ ____
ROOT
ATOM      1  C   UNL     1       4.924   4.673  17.771  0.00  0.00    +0.000 C 
ATOM      2  C   UNL     1       4.920   4.809  16.437  0.00  0.00    +0.000 C 
ATOM      3  C   UNL     1       6.109   4.954  15.544  0.00  0.00    +0.000 C 
ATOM      4  C   UNL     1       6.098   3.811  14.519  0.00  0.00    +0.000 C 
ATOM      5  C   UNL     1       7.477   5.016  16.234  0.00  0.00    +0.000 C 
ATOM      6  C   UNL     1       7.512   4.929  17.751  0.00  0.00    +0.000 C 
ATOM      7  C   UNL     1       6.219   4.743  18.501  0.00  0.00    +0.000 C 
ATOM      8  O   UNL     1       6.244   4.663  19.729  0.00  0.00    +0.000 OA
ENDROOT
BRANCH   3   9
ATOM      9  O   UNL     1       5.915   6.164  14.814  0.00  0.00    +0.000 OA
ATOM     10  H   UNL     1       6.168   6.906  15.389  0.00  0.00    +0.000 HD
ENDBRANCH   3   9
BRANCH   1  11
ATOM     11  C   UNL     1       3.650   4.350  18.552  0.00  0.00    +0.000 C 
BRANCH  11  12
ATOM     12  C   UNL     1       2.673   5.574  18.543  0.00  0.00    +0.000 C 
ATOM     13  C   UNL     1       1.394   5.305  17.741  0.00  0.00    +0.000 C 
ATOM     14  C   UNL     1       2.268   6.001  19.965  0.00  0.00    +0.000 C 
ENDBRANCH  11  12
BRANCH  11  15
ATOM     15  C   UNL     1       2.984   3.030  18.085  0.00  0.00    +0.000 C 
BRANCH  15  16
ATOM     16  C   UNL     1       2.685   2.062  19.232  0.00  0.00    +0.000 C 
BRANCH  16  18
ATOM     17  C   UNL     1       1.349   2.714  21.336  0.00  0.00    +0.000 C 
ATOM     18  C   UNL     1       1.346   2.375  19.866  0.00  0.00    +0.000 C 
ATOM     19  O   UNL     1       0.305   2.338  19.215  0.00  0.00    +0.000 OA
ENDBRANCH  16  18
ENDBRANCH  15  16
ENDBRANCH  11  15
ENDBRANCH   1  11
TORSDOF 6
ENDMDL
MODEL 4
REMARK VINA RESULT:      -6.6      1.878      5.259
REMARK  Name = 
REMARK  10 active torsions:
REMARK  status: ('A' for Active; 'I' for Inactive)
REMARK    1  A    between atoms: C_1  and  C_2
REMARK    2  A    between atoms: C_2  and  C_4
REMARK    3  A    between atoms: C_4  and  C_5
REMARK    4  A    between atoms: C_5  and  C_6
REMARK    5  A    between atoms: C_6  and  C_7
REMARK    6  A    between atoms: C_6  and  C_16
REMARK    7  A    between atoms: C_9  and  C_10
REMARK    8  A    between atoms: C_9  and  O_11
REMARK    9  A    between atoms: C_16  and  C_17
REMARK   10  A    between atoms: C_16  and  C_18
REMARK                            x       y       z     vdW  Elec       q    Type
REMARK                         _______ _______ _______ _____ _____    ______ ____
ROOT
ATOM      1  C   UNL     1       2.608   4.705  18.566  0.00  0.00    +0.000 C 
ATOM      2  C   UNL     1       3.263   4.218  19.630  0.00  0.00    +0.000 C 
ATOM      3  C   UNL     1       3.054   2.892  20.286  0.00  0.00    +0.000 C 
ATOM      4  C   UNL     1       4.376   2.112  20.253  0.00  0.00    +0.000 C 
ATOM      5  C   UNL     1       1.927   2.020  19.718  0.00  0.00    +0.000 C 
ATOM      6  C   UNL     1       1.121   2.570  18.552  0.00  0.00    +0.000 C 
ATOM      7  C   UNL     1       1.491   3.914  17.981  0.00  0.00    +0.000 C 
ATOM      8  O   UNL     1       0.846   4.359  17.031  0.00  0.00    +0.000 OA
ENDROOT
BRANCH   3   9
ATOM      9  O   UNL     1       2.769   3.164  21.657  0.00  0.00    +0.000 OA
ATOM     10  H   UNL     1       2.248   3.983  21.698  0.00  0.00    +0.000 HD
ENDBRANCH   3   9
BRANCH   1  11
ATOM     11  C   UNL     1       3.039   5.999  17.877  0.00  0.00    +0.000 C 
BRANCH  11  12
ATOM     12  C   UNL     1       2.163   7.202  18.367  0.00  0.00    +0.000 C 
ATOM     13  C   UNL     1       2.196   7.377  19.890  0.00  0.00    +0.000 C 
ATOM     14  C   UNL     1       2.593   8.531  17.721  0.00  0.00    +0.000 C 
ENDBRANCH  11  12
BRANCH  11  15
ATOM     15  C   UNL     1       4.562   6.260  18.000  0.00  0.00    +0.000 C 
BRANCH  15  16
ATOM     16  C   UNL     1       5.278   6.321  16.648  0.00  0.00    +0.000 C 
BRANCH  16  18
ATOM     17  C   UNL     1       7.330   6.320  18.207  0.00  0.00    +0.000 C 
ATOM     18  C   UNL     1       6.770   6.123  16.820  0.00  0.00    +0.000 C 
ATOM     19  O   UNL     1       7.491   5.834  15.869  0.00  0.00    +0.000 OA
ENDBRANCH  16  18
ENDBRANCH  15  16
ENDBRANCH  11  15
ENDBRANCH   1  11
TORSDOF 6
ENDMDL
MODEL 5
REMARK VINA RESULT:      -6.6      1.511      5.251
REMARK  Name = 
REMARK  10 active torsions:
REMARK  status: ('A' for Active; 'I' for Inactive)
REMARK    1  A    between atoms: C_1  and  C_2
REMARK    2  A    between atoms: C_2  and  C_4
REMARK    3  A    between atoms: C_4  and  C_5
REMARK    4  A    between atoms: C_5  and  C_6
REMARK    5  A    between atoms: C_6  and  C_7
REMARK    6  A    between atoms: C_6  and  C_16
REMARK    7  A    between atoms: C_9  and  C_10
REMARK    8  A    between atoms: C_9  and  O_11
REMARK    9  A    between atoms: C_16  and  C_17
REMARK   10  A    between atoms: C_16  and  C_18
REMARK                            x       y       z     vdW  Elec       q    Type
REMARK                         _______ _______ _______ _____ _____    ______ ____
ROOT
ATOM      1  C   UNL     1       3.900   4.003  18.053  0.00  0.00    +0.000 C 
ATOM      2  C   UNL     1       2.629   3.576  18.021  0.00  0.00    +0.000 C 
ATOM      3  C   UNL     1       1.929   2.756  19.055  0.00  0.00    +0.000 C 
ATOM      4  C   UNL     1       0.702   3.534  19.552  0.00  0.00    +0.000 C 
ATOM      5  C   UNL     1       2.773   2.303  20.253  0.00  0.00    +0.000 C 
ATOM      6  C   UNL     1       4.235   2.716  20.289  0.00  0.00    +0.000 C 
ATOM      7  C   UNL     1       4.776   3.581  19.180  0.00  0.00    +0.000 C 
ATOM      8  O   UNL     1       5.957   3.925  19.210  0.00  0.00    +0.000 OA
ENDROOT
BRANCH   3   9
ATOM      9  O   UNL     1       1.439   1.598  18.383  0.00  0.00    +0.000 OA
ATOM     10  H   UNL     1       0.487   1.720  18.229  0.00  0.00    +0.000 HD
ENDBRANCH   3   9
BRANCH   1  11
ATOM     11  C   UNL     1       4.446   4.989  17.020  0.00  0.00    +0.000 C 
BRANCH  11  12
ATOM     12  C   UNL     1       4.743   6.375  17.684  0.00  0.00    +0.000 C 
ATOM     13  C   UNL     1       5.995   7.051  17.113  0.00  0.00    +0.000 C 
ATOM     14  C   UNL     1       3.562   7.351  17.538  0.00  0.00    +0.000 C 
ENDBRANCH  11  12
BRANCH  11  15
ATOM     15  C   UNL     1       5.652   4.416  16.232  0.00  0.00    +0.000 C 
BRANCH  15  16
ATOM     16  C   UNL     1       5.389   4.284  14.730  0.00  0.00    +0.000 C 
BRANCH  16  18
ATOM     17  C   UNL     1       6.745   3.919  12.570  0.00  0.00    +0.000 C 
ATOM     18  C   UNL     1       6.649   4.553  13.936  0.00  0.00    +0.000 C 
ATOM     19  O   UNL     1       7.559   5.241  14.392  0.00  0.00    +0.000 OA
ENDBRANCH  16  18
ENDBRANCH  15  16
ENDBRANCH  11  15
ENDBRANCH   1  11
TORSDOF 6
ENDMDL
MODEL 6
REMARK VINA RESULT:      -6.5      1.206      1.501
REMARK  Name = 
REMARK  10 active torsions:
REMARK  status: ('A' for Active; 'I' for Inactive)
REMARK    1  A    between atoms: C_1  and  C_2
REMARK    2  A    between atoms: C_2  and  C_4
REMARK    3  A    between atoms: C_4  and  C_5
REMARK    4  A    between atoms: C_5  and  C_6
REMARK    5  A    between atoms: C_6  and  C_7
REMARK    6  A    between atoms: C_6  and  C_16
REMARK    7  A    between atoms: C_9  and  C_10
REMARK    8  A    between atoms: C_9  and  O_11
REMARK    9  A    between atoms: C_16  and  C_17
REMARK   10  A    between atoms: C_16  and  C_18
REMARK                            x       y       z     vdW  Elec       q    Type
REMARK                         _______ _______ _______ _____ _____    ______ ____
ROOT
ATOM      1  C   UNL     1       4.972   4.479  17.426  0.00  0.00    +0.000 C 
ATOM      2  C   UNL     1       4.964   4.659  16.097  0.00  0.00    +0.000 C 
ATOM      3  C   UNL     1       6.147   4.885  15.213  0.00  0.00    +0.000 C 
ATOM      4  C   UNL     1       6.186   3.777  14.150  0.00  0.00    +0.000 C 
ATOM      5  C   UNL     1       7.510   4.983  15.908  0.00  0.00    +0.000 C 
ATOM      6  C   UNL     1       7.548   4.847  17.421  0.00  0.00    +0.000 C 
ATOM      7  C   UNL     1       6.262   4.580  18.161  0.00  0.00    +0.000 C 
ATOM      8  O   UNL     1       6.290   4.461  19.386  0.00  0.00    +0.000 OA
ENDROOT
BRANCH   3   9
ATOM      9  O   UNL     1       5.902   6.110  14.523  0.00  0.00    +0.000 OA
ATOM     10  H   UNL     1       4.941   6.201  14.404  0.00  0.00    +0.000 HD
ENDBRANCH   3   9
BRANCH   1  11
ATOM     11  C   UNL     1       3.713   4.076  18.193  0.00  0.00    +0.000 C 
BRANCH  11  12
ATOM     12  C   UNL     1       2.651   5.226  18.153  0.00  0.00    +0.000 C 
ATOM     13  C   UNL     1       1.251   4.728  17.775  0.00  0.00    +0.000 C 
ATOM     14  C   UNL     1       2.551   5.968  19.497  0.00  0.00    +0.000 C 
ENDBRANCH  11  12
BRANCH  11  15
ATOM     15  C   UNL     1       3.150   2.706  17.733  0.00  0.00    +0.000 C 
BRANCH  15  16
ATOM     16  C   UNL     1       3.563   1.545  18.641  0.00  0.00    +0.000 C 
BRANCH  16  18
ATOM     17  C   UNL     1       2.616   2.579  20.803  0.00  0.00    +0.000 C 
ATOM     18  C   UNL     1       3.805   2.027  20.056  0.00  0.00    +0.000 C 
ATOM     19  O   UNL     1       4.923   1.986  20.564  0.00  0.00    +0.000 OA
ENDBRANCH  16  18
ENDBRANCH  15  16
ENDBRANCH  11  15
ENDBRANCH   1  11
TORSDOF 6
ENDMDL
MODEL 7
REMARK VINA RESULT:      -6.5      1.062      1.427
REMARK  Name = 
REMARK  10 active torsions:
REMARK  status: ('A' for Active; 'I' for Inactive)
REMARK    1  A    between atoms: C_1  and  C_2
REMARK    2  A    between atoms: C_2  and  C_4
REMARK    3  A    between atoms: C_4  and  C_5
REMARK    4  A    between atoms: C_5  and  C_6
REMARK    5  A    between atoms: C_6  and  C_7
REMARK    6  A    between atoms: C_6  and  C_16
REMARK    7  A    between atoms: C_9  and  C_10
REMARK    8  A    between atoms: C_9  and  O_11
REMARK    9  A    between atoms: C_16  and  C_17
REMARK   10  A    between atoms: C_16  and  C_18
REMARK                            x       y       z     vdW  Elec       q    Type
REMARK                         _______ _______ _______ _____ _____    ______ ____
ROOT
ATOM      1  C   UNL     1       4.917   5.019  17.910  0.00  0.00    +0.000 C 
ATOM      2  C   UNL     1       4.876   5.008  16.570  0.00  0.00    +0.000 C 
ATOM      3  C   UNL     1       6.038   4.912  15.636  0.00  0.00    +0.000 C 
ATOM      4  C   UNL     1       5.856   3.672  14.748  0.00  0.00    +0.000 C 
ATOM      5  C   UNL     1       7.431   4.887  16.279  0.00  0.00    +0.000 C 
ATOM      6  C   UNL     1       7.515   4.963  17.795  0.00  0.00    +0.000 C 
ATOM      7  C   UNL     1       6.239   5.015  18.594  0.00  0.00    +0.000 C 
ATOM      8  O   UNL     1       6.303   5.069  19.822  0.00  0.00    +0.000 OA
ENDROOT
BRANCH   3   9
ATOM      9  O   UNL     1       5.957   6.049  14.778  0.00  0.00    +0.000 OA
ATOM     10  H   UNL     1       5.128   6.517  14.977  0.00  0.00    +0.000 HD
ENDBRANCH   3   9
BRANCH   1  11
ATOM     11  C   UNL     1       3.646   4.937  18.756  0.00  0.00    +0.000 C 
BRANCH  11  12
ATOM     12  C   UNL     1       2.752   6.203  18.532  0.00  0.00    +0.000 C 
ATOM     13  C   UNL     1       2.194   6.775  19.841  0.00  0.00    +0.000 C 
ATOM     14  C   UNL     1       3.511   7.326  17.803  0.00  0.00    +0.000 C 
ENDBRANCH  11  12
BRANCH  11  15
ATOM     15  C   UNL     1       2.882   3.604  18.553  0.00  0.00    +0.000 C 
BRANCH  15  16
ATOM     16  C   UNL     1       3.194   2.556  19.624  0.00  0.00    +0.000 C 
BRANCH  16  18
ATOM     17  C   UNL     1       0.952   3.319  20.640  0.00  0.00    +0.000 C 
ATOM     18  C   UNL     1       2.343   2.775  20.857  0.00  0.00    +0.000 C 
ATOM     19  O   UNL     1       2.773   2.537  21.983  0.00  0.00    +0.000 OA
ENDBRANCH  16  18
ENDBRANCH  15  16
ENDBRANCH  11  15
ENDBRANCH   1  11
TORSDOF 6
ENDMDL
MODEL 8
REMARK VINA RESULT:      -6.5      1.266      1.559
REMARK  Name = 
REMARK  10 active torsions:
REMARK  status: ('A' for Active; 'I' for Inactive)
REMARK    1  A    between atoms: C_1  and  C_2
REMARK    2  A    between atoms: C_2  and  C_4
REMARK    3  A    between atoms: C_4  and  C_5
REMARK    4  A    between atoms: C_5  and  C_6
REMARK    5  A    between atoms: C_6  and  C_7
REMARK    6  A    between atoms: C_6  and  C_16
REMARK    7  A    between atoms: C_9  and  C_10
REMARK    8  A    between atoms: C_9  and  O_11
REMARK    9  A    between atoms: C_16  and  C_17
REMARK   10  A    between atoms: C_16  and  C_18
REMARK                            x       y       z     vdW  Elec       q    Type
REMARK                         _______ _______ _______ _____ _____    ______ ____
ROOT
ATOM      1  C   UNL     1       5.122   5.334  18.093  0.00  0.00    +0.000 C 
ATOM      2  C   UNL     1       5.022   5.267  16.757  0.00  0.00    +0.000 C 
ATOM      3  C   UNL     1       6.108   4.927  15.789  0.00  0.00    +0.000 C 
ATOM      4  C   UNL     1       5.676   3.699  14.976  0.00  0.00    +0.000 C 
ATOM      5  C   UNL     1       7.501   4.689  16.384  0.00  0.00    +0.000 C 
ATOM      6  C   UNL     1       7.664   4.820  17.889  0.00  0.00    +0.000 C 
ATOM      7  C   UNL     1       6.453   5.131  18.729  0.00  0.00    +0.000 C 
ATOM      8  O   UNL     1       6.579   5.229  19.949  0.00  0.00    +0.000 OA
ENDROOT
BRANCH   3   9
ATOM      9  O   UNL     1       6.186   6.020  14.876  0.00  0.00    +0.000 OA
ATOM     10  H   UNL     1       6.613   5.702  14.062  0.00  0.00    +0.000 HD
ENDBRANCH   3   9
BRANCH   1  11
ATOM     11  C   UNL     1       3.895   5.514  18.986  0.00  0.00    +0.000 C 
BRANCH  11  12
ATOM     12  C   UNL     1       2.803   6.368  18.257  0.00  0.00    +0.000 C 
ATOM     13  C   UNL     1       1.599   5.533  17.808  0.00  0.00    +0.000 C 
ATOM     14  C   UNL     1       2.288   7.521  19.137  0.00  0.00    +0.000 C 
ENDBRANCH  11  12
BRANCH  11  15
ATOM     15  C   UNL     1       3.355   4.168  19.534  0.00  0.00    +0.000 C 
BRANCH  15  16
ATOM     16  C   UNL     1       2.702   4.291  20.913  0.00  0.00    +0.000 C 
BRANCH  16  18
ATOM     17  C   UNL     1       0.817   2.810  19.969  0.00  0.00    +0.000 C 
ATOM     18  C   UNL     1       1.700   3.178  21.136  0.00  0.00    +0.000 C 
ATOM     19  O   UNL     1       1.600   2.614  22.222  0.00  0.00    +0.000 OA
ENDBRANCH  16  18
ENDBRANCH  15  16
ENDBRANCH  11  15
ENDBRANCH   1  11
TORSDOF 6
ENDMDL
MODEL 9
REMARK VINA RESULT:      -6.5      2.153      3.151
REMARK  Name = 
REMARK  10 active torsions:
REMARK  status: ('A' for Active; 'I' for Inactive)
REMARK    1  A    between atoms: C_1  and  C_2
REMARK    2  A    between atoms: C_2  and  C_4
REMARK    3  A    between atoms: C_4  and  C_5
REMARK    4  A    between atoms: C_5  and  C_6
REMARK    5  A    between atoms: C_6  and  C_7
REMARK    6  A    between atoms: C_6  and  C_16
REMARK    7  A    between atoms: C_9  and  C_10
REMARK    8  A    between atoms: C_9  and  O_11
REMARK    9  A    between atoms: C_16  and  C_17
REMARK   10  A    between atoms: C_16  and  C_18
REMARK                            x       y       z     vdW  Elec       q    Type
REMARK                         _______ _______ _______ _____ _____    ______ ____
ROOT
ATOM      1  C   UNL     1       4.938   5.462  18.049  0.00  0.00    +0.000 C 
ATOM      2  C   UNL     1       6.076   4.838  18.389  0.00  0.00    +0.000 C 
ATOM      3  C   UNL     1       7.470   5.296  18.112  0.00  0.00    +0.000 C 
ATOM      4  C   UNL     1       8.215   5.439  19.448  0.00  0.00    +0.000 C 
ATOM      5  C   UNL     1       7.615   6.589  17.300  0.00  0.00    +0.000 C 
ATOM      6  C   UNL     1       6.345   7.289  16.845  0.00  0.00    +0.000 C 
ATOM      7  C   UNL     1       5.012   6.712  17.244  0.00  0.00    +0.000 C 
ATOM      8  O   UNL     1       3.981   7.280  16.885  0.00  0.00    +0.000 OA
ENDROOT
BRANCH   3   9
ATOM      9  O   UNL     1       8.105   4.238  17.396  0.00  0.00    +0.000 OA
ATOM     10  H   UNL     1       8.312   3.530  18.029  0.00  0.00    +0.000 HD
ENDBRANCH   3   9
BRANCH   1  11
ATOM     11  C   UNL     1       3.575   4.983  18.548  0.00  0.00    +0.000 C 
BRANCH  11  12
ATOM     12  C   UNL     1       2.933   3.987  17.525  0.00  0.00    +0.000 C 
ATOM     13  C   UNL     1       3.206   2.519  17.873  0.00  0.00    +0.000 C 
ATOM     14  C   UNL     1       1.410   4.178  17.409  0.00  0.00    +0.000 C 
ENDBRANCH  11  12
BRANCH  11  15
ATOM     15  C   UNL     1       3.634   4.423  19.993  0.00  0.00    +0.000 C 
BRANCH  15  16
ATOM     16  C   UNL     1       2.367   4.704  20.805  0.00  0.00    +0.000 C 
BRANCH  16  18
ATOM     17  C   UNL     1       0.653   2.792  20.590  0.00  0.00    +0.000 C 
ATOM     18  C   UNL     1       1.788   3.421  21.361  0.00  0.00    +0.000 C 
ATOM     19  O   UNL     1       2.212   2.925  22.402  0.00  0.00    +0.000 OA
ENDBRANCH  16  18
ENDBRANCH  15  16
ENDBRANCH  11  15
ENDBRANCH   1  11
TORSDOF 6
ENDMDL
