MODEL 1
REMARK VINA RESULT:      -7.5      0.000      0.000
REMARK  Name = 
REMARK  9 active torsions:
REMARK  status: ('A' for Active; 'I' for Inactive)
REMARK    1  A    between atoms: C_1  and  O_2
REMARK    2  A    between atoms: O_2  and  C_3
REMARK    3  A    between atoms: C_5  and  O_6
REMARK    4  A    between atoms: O_6  and  C_7
REMARK    5  A    between atoms: C_8  and  N_9
REMARK    6  A    between atoms: C_10  and  S_11
REMARK    7  A    between atoms: N_12  and  C_13
REMARK    8  A    between atoms: C_16  and  N_17
REMARK    9  A    between atoms: C_18  and  C_20
REMARK                            x       y       z     vdW  Elec       q    Type
REMARK                         _______ _______ _______ _____ _____    ______ ____
ROOT
ATOM      1  N   UNL     1       4.045   4.179  17.270  0.00  0.00    +0.000 N 
ATOM      2  C   UNL     1       3.212   5.102  17.854  0.00  0.00    +0.000 C 
ATOM      3  N   UNL     1       3.508   6.341  18.101  0.00  0.00    +0.000 NA
ATOM      4  H   UNL     1       3.596   3.286  17.164  0.00  0.00    +0.000 HD
ENDROOT
BRANCH   1   8
ATOM      5  C   UNL     1       7.212   4.848  14.488  0.00  0.00    +0.000 A 
ATOM      6  C   UNL     1       7.336   5.239  15.826  0.00  0.00    +0.000 A 
ATOM      7  C   UNL     1       6.321   5.028  16.785  0.00  0.00    +0.000 A 
ATOM      8  C   UNL     1       5.129   4.388  16.395  0.00  0.00    +0.000 A 
ATOM      9  C   UNL     1       5.026   3.996  15.045  0.00  0.00    +0.000 A 
ATOM     10  C   UNL     1       6.044   4.200  14.103  0.00  0.00    +0.000 A 
ATOM     11 CL   UNL     1       5.758   3.526  12.539  0.00  0.00    +0.000 Cl
BRANCH   5  13
ATOM     12  C   UNL     1       8.164   5.864  12.557  0.00  0.00    +0.000 C 
ATOM     13  O   UNL     1       8.330   5.088  13.737  0.00  0.00    +0.000 OA
ENDBRANCH   5  13
BRANCH   7  14
ATOM     14  O   UNL     1       6.708   5.520  18.004  0.00  0.00    +0.000 OA
ATOM     15  C   UNL     1       7.459   6.708  18.145  0.00  0.00    +0.000 C 
ENDBRANCH   7  14
ENDBRANCH   1   8
BRANCH   3  16
ATOM     16  C   UNL     1       2.680   7.272  18.741  0.00  0.00    +0.000 A 
ATOM     17  C   UNL     1       2.059   8.308  18.053  0.00  0.00    +0.000 A 
ATOM     18  C   UNL     1       1.177   9.179  18.690  0.00  0.00    +0.000 A 
ATOM     19  C   UNL     1       0.812   8.984  20.021  0.00  0.00    +0.000 A 
ATOM     20  C   UNL     1       1.391   7.918  20.713  0.00  0.00    +0.000 A 
ATOM     21  C   UNL     1       2.324   7.075  20.080  0.00  0.00    +0.000 A 
BRANCH  19  22
ATOM     22  N   UNL     1      -0.145   9.792  20.668  0.00  0.00    +0.000 N 
ATOM     23  C   UNL     1       0.098  10.985  21.336  0.00  0.00    +0.000 C 
ATOM     24  O   UNL     1       1.205  11.477  21.535  0.00  0.00    +0.000 OA
ATOM     25  H   UNL     1      -1.116   9.501  20.624  0.00  0.00    +0.000 HD
BRANCH  23  26
ATOM     26  C   UNL     1      -1.095  11.654  21.808  0.00  0.00    +0.000 A 
ATOM     27  C   UNL     1      -1.981  12.461  21.120  0.00  0.00    +0.000 A 
ATOM     28  C   UNL     1      -2.982  12.842  22.038  0.00  0.00    +0.000 A 
ATOM     29  C   UNL     1      -2.650  12.244  23.233  0.00  0.00    +0.000 A 
ATOM     30  O   UNL     1      -1.505  11.521  23.108  0.00  0.00    +0.000 OA
ENDBRANCH  23  26
ENDBRANCH  19  22
ENDBRANCH   3  16
BRANCH   2  31
ATOM     31  S   UNL     1       1.679   4.318  18.241  0.00  0.00    +0.000 S 
ATOM     32  H   UNL     1       1.586   3.631  17.094  0.00  0.00    +0.000 HD
ENDBRANCH   2  31
TORSDOF 7
ENDMDL
MODEL 2
REMARK VINA RESULT:      -7.5      0.931      1.347
REMARK  Name = 
REMARK  9 active torsions:
REMARK  status: ('A' for Active; 'I' for Inactive)
REMARK    1  A    between atoms: C_1  and  O_2
REMARK    2  A    between atoms: O_2  and  C_3
REMARK    3  A    between atoms: C_5  and  O_6
REMARK    4  A    between atoms: O_6  and  C_7
REMARK    5  A    between atoms: C_8  and  N_9
REMARK    6  A    between atoms: C_10  and  S_11
REMARK    7  A    between atoms: N_12  and  C_13
REMARK    8  A    between atoms: C_16  and  N_17
REMARK    9  A    between atoms: C_18  and  C_20
REMARK                            x       y       z     vdW  Elec       q    Type
REMARK                         _______ _______ _______ _____ _____    ______ ____
ROOT
ATOM      1  N   UNL     1       4.099   4.430  17.793  0.00  0.00    +0.000 N 
ATOM      2  C   UNL     1       3.165   5.310  18.284  0.00  0.00    +0.000 C 
ATOM      3  N   UNL     1       3.310   6.596  18.380  0.00  0.00    +0.000 NA
ATOM      4  H   UNL     1       3.760   3.484  17.801  0.00  0.00    +0.000 HD
ENDROOT
BRANCH   1   8
ATOM      5  C   UNL     1       7.140   5.148  14.885  0.00  0.00    +0.000 A 
ATOM      6  C   UNL     1       7.245   5.669  16.180  0.00  0.00    +0.000 A 
ATOM      7  C   UNL     1       6.271   5.449  17.178  0.00  0.00    +0.000 A 
ATOM      8  C   UNL     1       5.142   4.663  16.876  0.00  0.00    +0.000 A 
ATOM      9  C   UNL     1       5.058   4.143  15.569  0.00  0.00    +0.000 A 
ATOM     10  C   UNL     1       6.035   4.358  14.589  0.00  0.00    +0.000 A 
ATOM     11 CL   UNL     1       5.793   3.519  13.098  0.00  0.00    +0.000 Cl
BRANCH   5  13
ATOM     12  C   UNL     1       7.973   5.563  12.694  0.00  0.00    +0.000 C 
ATOM     13  O   UNL     1       8.217   5.426  14.089  0.00  0.00    +0.000 OA
ENDBRANCH   5  13
BRANCH   7  14
ATOM     14  O   UNL     1       6.627   6.085  18.339  0.00  0.00    +0.000 OA
ATOM     15  C   UNL     1       7.706   5.658  19.145  0.00  0.00    +0.000 C 
ENDBRANCH   7  14
ENDBRANCH   1   8
BRANCH   3  16
ATOM     16  C   UNL     1       2.380   7.490  18.926  0.00  0.00    +0.000 A 
ATOM     17  C   UNL     1       2.019   7.457  20.268  0.00  0.00    +0.000 A 
ATOM     18  C   UNL     1       1.152   8.402  20.811  0.00  0.00    +0.000 A 
ATOM     19  C   UNL     1       0.689   9.473  20.049  0.00  0.00    +0.000 A 
ATOM     20  C   UNL     1       1.081   9.547  18.711  0.00  0.00    +0.000 A 
ATOM     21  C   UNL     1       1.912   8.558  18.152  0.00  0.00    +0.000 A 
BRANCH  19  22
ATOM     22  N   UNL     1      -0.117  10.494  20.592  0.00  0.00    +0.000 N 
ATOM     23  C   UNL     1       0.320  11.713  21.095  0.00  0.00    +0.000 C 
ATOM     24  O   UNL     1       1.494  12.051  21.219  0.00  0.00    +0.000 OA
ATOM     25  H   UNL     1      -1.121  10.353  20.594  0.00  0.00    +0.000 HD
BRANCH  23  26
ATOM     26  C   UNL     1      -0.745  12.612  21.484  0.00  0.00    +0.000 A 
ATOM     27  C   UNL     1      -0.804  13.497  22.544  0.00  0.00    +0.000 A 
ATOM     28  C   UNL     1      -2.054  14.145  22.462  0.00  0.00    +0.000 A 
ATOM     29  C   UNL     1      -2.684  13.621  21.357  0.00  0.00    +0.000 A 
ATOM     30  O   UNL     1      -1.901  12.686  20.754  0.00  0.00    +0.000 OA
ENDBRANCH  23  26
ENDBRANCH  19  22
ENDBRANCH   3  16
BRANCH   2  31
ATOM     31  S   UNL     1       1.740   4.400  18.792  0.00  0.00    +0.000 S 
ATOM     32  H   UNL     1       2.418   3.343  19.262  0.00  0.00    +0.000 HD
ENDBRANCH   2  31
TORSDOF 7
ENDMDL
MODEL 3
REMARK VINA RESULT:      -7.4      2.024      2.860
REMARK  Name = 
REMARK  9 active torsions:
REMARK  status: ('A' for Active; 'I' for Inactive)
REMARK    1  A    between atoms: C_1  and  O_2
REMARK    2  A    between atoms: O_2  and  C_3
REMARK    3  A    between atoms: C_5  and  O_6
REMARK    4  A    between atoms: O_6  and  C_7
REMARK    5  A    between atoms: C_8  and  N_9
REMARK    6  A    between atoms: C_10  and  S_11
REMARK    7  A    between atoms: N_12  and  C_13
REMARK    8  A    between atoms: C_16  and  N_17
REMARK    9  A    between atoms: C_18  and  C_20
REMARK                            x       y       z     vdW  Elec       q    Type
REMARK                         _______ _______ _______ _____ _____    ______ ____
ROOT
ATOM      1  N   UNL     1       3.813   4.992  19.341  0.00  0.00    +0.000 N 
ATOM      2  C   UNL     1       2.814   5.855  19.724  0.00  0.00    +0.000 C 
ATOM      3  N   UNL     1       2.772   7.126  19.469  0.00  0.00    +0.000 NA
ATOM      4  H   UNL     1       3.625   4.050  19.638  0.00  0.00    +0.000 HD
ENDROOT
BRANCH   1   8
ATOM      5  C   UNL     1       6.639   5.327  16.161  0.00  0.00    +0.000 A 
ATOM      6  C   UNL     1       5.620   4.368  16.120  0.00  0.00    +0.000 A 
ATOM      7  C   UNL     1       4.656   4.227  17.141  0.00  0.00    +0.000 A 
ATOM      8  C   UNL     1       4.702   5.089  18.254  0.00  0.00    +0.000 A 
ATOM      9  C   UNL     1       5.732   6.052  18.274  0.00  0.00    +0.000 A 
ATOM     10  C   UNL     1       6.678   6.191  17.249  0.00  0.00    +0.000 A 
ATOM     11 CL   UNL     1       7.769   7.519  17.418  0.00  0.00    +0.000 Cl
BRANCH   5  13
ATOM     12  C   UNL     1       6.973   4.605  13.918  0.00  0.00    +0.000 C 
ATOM     13  O   UNL     1       7.432   5.339  15.046  0.00  0.00    +0.000 OA
ENDBRANCH   5  13
BRANCH   7  14
ATOM     14  O   UNL     1       3.792   3.207  16.843  0.00  0.00    +0.000 OA
ATOM     15  C   UNL     1       3.512   2.154  17.744  0.00  0.00    +0.000 C 
ENDBRANCH   7  14
ENDBRANCH   1   8
BRANCH   3  16
ATOM     16  C   UNL     1       1.782   8.018  19.900  0.00  0.00    +0.000 A 
ATOM     17  C   UNL     1       1.304   8.022  21.206  0.00  0.00    +0.000 A 
ATOM     18  C   UNL     1       0.376   8.967  21.638  0.00  0.00    +0.000 A 
ATOM     19  C   UNL     1      -0.038  10.002  20.802  0.00  0.00    +0.000 A 
ATOM     20  C   UNL     1       0.469  10.040  19.501  0.00  0.00    +0.000 A 
ATOM     21  C   UNL     1       1.364   9.050  19.052  0.00  0.00    +0.000 A 
BRANCH  19  22
ATOM     22  N   UNL     1      -0.906  11.024  21.236  0.00  0.00    +0.000 N 
ATOM     23  C   UNL     1      -1.209  11.347  22.553  0.00  0.00    +0.000 C 
ATOM     24  O   UNL     1      -0.826  10.730  23.543  0.00  0.00    +0.000 OA
ATOM     25  H   UNL     1      -1.337  11.610  20.529  0.00  0.00    +0.000 HD
BRANCH  23  26
ATOM     26  C   UNL     1      -2.048  12.517  22.699  0.00  0.00    +0.000 A 
ATOM     27  C   UNL     1      -3.412  12.648  22.523  0.00  0.00    +0.000 A 
ATOM     28  C   UNL     1      -3.732  13.991  22.809  0.00  0.00    +0.000 A 
ATOM     29  C   UNL     1      -2.545  14.602  23.146  0.00  0.00    +0.000 A 
ATOM     30  O   UNL     1      -1.513  13.718  23.080  0.00  0.00    +0.000 OA
ENDBRANCH  23  26
ENDBRANCH  19  22
ENDBRANCH   3  16
BRANCH   2  31
ATOM     31  S   UNL     1       1.609   4.954  20.648  0.00  0.00    +0.000 S 
ATOM     32  H   UNL     1       2.067   3.739  20.316  0.00  0.00    +0.000 HD
ENDBRANCH   2  31
TORSDOF 7
ENDMDL
MODEL 4
REMARK VINA RESULT:      -7.4      0.650      1.098
REMARK  Name = 
REMARK  9 active torsions:
REMARK  status: ('A' for Active; 'I' for Inactive)
REMARK    1  A    between atoms: C_1  and  O_2
REMARK    2  A    between atoms: O_2  and  C_3
REMARK    3  A    between atoms: C_5  and  O_6
REMARK    4  A    between atoms: O_6  and  C_7
REMARK    5  A    between atoms: C_8  and  N_9
REMARK    6  A    between atoms: C_10  and  S_11
REMARK    7  A    between atoms: N_12  and  C_13
REMARK    8  A    between atoms: C_16  and  N_17
REMARK    9  A    between atoms: C_18  and  C_20
REMARK                            x       y       z     vdW  Elec       q    Type
REMARK                         _______ _______ _______ _____ _____    ______ ____
ROOT
ATOM      1  N   UNL     1       4.374   4.069  17.326  0.00  0.00    +0.000 N 
ATOM      2  C   UNL     1       3.465   4.957  17.849  0.00  0.00    +0.000 C 
ATOM      3  N   UNL     1       3.619   6.243  17.925  0.00  0.00    +0.000 NA
ATOM      4  H   UNL     1       4.033   3.125  17.359  0.00  0.00    +0.000 HD
ENDROOT
BRANCH   1   8
ATOM      5  C   UNL     1       7.285   4.772  14.285  0.00  0.00    +0.000 A 
ATOM      6  C   UNL     1       7.527   5.144  15.613  0.00  0.00    +0.000 A 
ATOM      7  C   UNL     1       6.600   4.922  16.654  0.00  0.00    +0.000 A 
ATOM      8  C   UNL     1       5.377   4.289  16.362  0.00  0.00    +0.000 A 
ATOM      9  C   UNL     1       5.154   3.916  15.021  0.00  0.00    +0.000 A 
ATOM     10  C   UNL     1       6.086   4.131  13.996  0.00  0.00    +0.000 A 
ATOM     11 CL   UNL     1       5.661   3.479  12.454  0.00  0.00    +0.000 Cl
BRANCH   5  13
ATOM     12  C   UNL     1       8.103   5.930  12.372  0.00  0.00    +0.000 C 
ATOM     13  O   UNL     1       8.333   5.020  13.441  0.00  0.00    +0.000 OA
ENDBRANCH   5  13
BRANCH   7  14
ATOM     14  O   UNL     1       7.095   5.397  17.840  0.00  0.00    +0.000 OA
ATOM     15  C   UNL     1       7.499   6.739  18.018  0.00  0.00    +0.000 C 
ENDBRANCH   7  14
ENDBRANCH   1   8
BRANCH   3  16
ATOM     16  C   UNL     1       2.717   7.146  18.502  0.00  0.00    +0.000 A 
ATOM     17  C   UNL     1       2.315   7.047  19.829  0.00  0.00    +0.000 A 
ATOM     18  C   UNL     1       1.478   7.999  20.409  0.00  0.00    +0.000 A 
ATOM     19  C   UNL     1       1.090   9.137  19.705  0.00  0.00    +0.000 A 
ATOM     20  C   UNL     1       1.525   9.275  18.385  0.00  0.00    +0.000 A 
ATOM     21  C   UNL     1       2.324   8.283  17.786  0.00  0.00    +0.000 A 
BRANCH  19  22
ATOM     22  N   UNL     1       0.318  10.161  20.290  0.00  0.00    +0.000 N 
ATOM     23  C   UNL     1       0.344  10.558  21.621  0.00  0.00    +0.000 C 
ATOM     24  O   UNL     1       0.991  10.014  22.513  0.00  0.00    +0.000 OA
ATOM     25  H   UNL     1      -0.301  10.690  19.686  0.00  0.00    +0.000 HD
BRANCH  23  26
ATOM     26  C   UNL     1      -0.477  11.712  21.913  0.00  0.00    +0.000 A 
ATOM     27  C   UNL     1      -1.194  12.521  21.052  0.00  0.00    +0.000 A 
ATOM     28  C   UNL     1      -1.837  13.492  21.847  0.00  0.00    +0.000 A 
ATOM     29  C   UNL     1      -1.478  13.219  23.147  0.00  0.00    +0.000 A 
ATOM     30  O   UNL     1      -0.650  12.141  23.202  0.00  0.00    +0.000 OA
ENDBRANCH  23  26
ENDBRANCH  19  22
ENDBRANCH   3  16
BRANCH   2  31
ATOM     31  S   UNL     1       2.062   4.057  18.429  0.00  0.00    +0.000 S 
ATOM     32  H   UNL     1       1.258   4.392  17.411  0.00  0.00    +0.000 HD
ENDBRANCH   2  31
TORSDOF 7
ENDMDL
MODEL 5
REMARK VINA RESULT:      -7.2      2.031      2.749
REMARK  Name = 
REMARK  9 active torsions:
REMARK  status: ('A' for Active; 'I' for Inactive)
REMARK    1  A    between atoms: C_1  and  O_2
REMARK    2  A    between atoms: O_2  and  C_3
REMARK    3  A    between atoms: C_5  and  O_6
REMARK    4  A    between atoms: O_6  and  C_7
REMARK    5  A    between atoms: C_8  and  N_9
REMARK    6  A    between atoms: C_10  and  S_11
REMARK    7  A    between atoms: N_12  and  C_13
REMARK    8  A    between atoms: C_16  and  N_17
REMARK    9  A    between atoms: C_18  and  C_20
REMARK                            x       y       z     vdW  Elec       q    Type
REMARK                         _______ _______ _______ _____ _____    ______ ____
ROOT
ATOM      1  N   UNL     1       3.665   5.143  19.358  0.00  0.00    +0.000 N 
ATOM      2  C   UNL     1       2.711   6.049  19.753  0.00  0.00    +0.000 C 
ATOM      3  N   UNL     1       2.726   7.322  19.506  0.00  0.00    +0.000 NA
ATOM      4  H   UNL     1       3.436   4.209  19.650  0.00  0.00    +0.000 HD
ENDROOT
BRANCH   1   8
ATOM      5  C   UNL     1       6.484   5.366  16.161  0.00  0.00    +0.000 A 
ATOM      6  C   UNL     1       5.414   4.465  16.115  0.00  0.00    +0.000 A 
ATOM      7  C   UNL     1       4.451   4.363  17.142  0.00  0.00    +0.000 A 
ATOM      8  C   UNL     1       4.552   5.206  18.265  0.00  0.00    +0.000 A 
ATOM      9  C   UNL     1       5.633   6.111  18.290  0.00  0.00    +0.000 A 
ATOM     10  C   UNL     1       6.578   6.211  17.260  0.00  0.00    +0.000 A 
ATOM     11 CL   UNL     1       7.742   7.475  17.438  0.00  0.00    +0.000 Cl
BRANCH   5  13
ATOM     12  C   UNL     1       6.867   4.489  13.981  0.00  0.00    +0.000 C 
ATOM     13  O   UNL     1       7.269   5.349  15.041  0.00  0.00    +0.000 OA
ENDBRANCH   5  13
BRANCH   7  14
ATOM     14  O   UNL     1       3.530   3.395  16.837  0.00  0.00    +0.000 OA
ATOM     15  C   UNL     1       3.367   2.224  17.611  0.00  0.00    +0.000 C 
ENDBRANCH   7  14
ENDBRANCH   1   8
BRANCH   3  16
ATOM     16  C   UNL     1       1.780   8.256  19.949  0.00  0.00    +0.000 A 
ATOM     17  C   UNL     1       1.231   9.214  19.104  0.00  0.00    +0.000 A 
ATOM     18  C   UNL     1       0.235  10.085  19.541  0.00  0.00    +0.000 A 
ATOM     19  C   UNL     1      -0.314   9.965  20.816  0.00  0.00    +0.000 A 
ATOM     20  C   UNL     1       0.195   8.977  21.662  0.00  0.00    +0.000 A 
ATOM     21  C   UNL     1       1.239   8.136  21.234  0.00  0.00    +0.000 A 
BRANCH  19  22
ATOM     22  N   UNL     1      -1.382  10.772  21.257  0.00  0.00    +0.000 N 
ATOM     23  C   UNL     1      -1.363  11.657  22.328  0.00  0.00    +0.000 C 
ATOM     24  O   UNL     1      -0.428  11.809  23.108  0.00  0.00    +0.000 OA
ATOM     25  H   UNL     1      -2.249  10.736  20.732  0.00  0.00    +0.000 HD
BRANCH  23  26
ATOM     26  C   UNL     1      -2.574  12.434  22.478  0.00  0.00    +0.000 A 
ATOM     27  C   UNL     1      -2.967  13.585  21.821  0.00  0.00    +0.000 A 
ATOM     28  C   UNL     1      -4.239  13.926  22.324  0.00  0.00    +0.000 A 
ATOM     29  C   UNL     1      -4.552  12.962  23.256  0.00  0.00    +0.000 A 
ATOM     30  O   UNL     1      -3.547  12.051  23.361  0.00  0.00    +0.000 OA
ENDBRANCH  23  26
ENDBRANCH  19  22
ENDBRANCH   3  16
BRANCH   2  31
ATOM     31  S   UNL     1       1.471   5.199  20.679  0.00  0.00    +0.000 S 
ATOM     32  H   UNL     1       1.162   6.235  21.471  0.00  0.00    +0.000 HD
ENDBRANCH   2  31
TORSDOF 7
ENDMDL
MODEL 6
REMARK VINA RESULT:      -7.2      0.947      1.011
REMARK  Name = 
REMARK  9 active torsions:
REMARK  status: ('A' for Active; 'I' for Inactive)
REMARK    1  A    between atoms: C_1  and  O_2
REMARK    2  A    between atoms: O_2  and  C_3
REMARK    3  A    between atoms: C_5  and  O_6
REMARK    4  A    between atoms: O_6  and  C_7
REMARK    5  A    between atoms: C_8  and  N_9
REMARK    6  A    between atoms: C_10  and  S_11
REMARK    7  A    between atoms: N_12  and  C_13
REMARK    8  A    between atoms: C_16  and  N_17
REMARK    9  A    between atoms: C_18  and  C_20
REMARK                            x       y       z     vdW  Elec       q    Type
REMARK                         _______ _______ _______ _____ _____    ______ ____
ROOT
ATOM      1  N   UNL     1       3.886   4.206  18.519  0.00  0.00    +0.000 N 
ATOM      2  C   UNL     1       3.012   5.167  18.968  0.00  0.00    +0.000 C 
ATOM      3  N   UNL     1       3.235   6.445  18.986  0.00  0.00    +0.000 NA
ATOM      4  H   UNL     1       3.491   3.284  18.586  0.00  0.00    +0.000 HD
ENDROOT
BRANCH   1   8
ATOM      5  C   UNL     1       6.929   4.633  15.557  0.00  0.00    +0.000 A 
ATOM      6  C   UNL     1       7.221   4.794  16.917  0.00  0.00    +0.000 A 
ATOM      7  C   UNL     1       6.251   4.652  17.933  0.00  0.00    +0.000 A 
ATOM      8  C   UNL     1       4.928   4.322  17.579  0.00  0.00    +0.000 A 
ATOM      9  C   UNL     1       4.656   4.158  16.206  0.00  0.00    +0.000 A 
ATOM     10  C   UNL     1       5.629   4.291  15.206  0.00  0.00    +0.000 A 
ATOM     11 CL   UNL     1       5.105   3.920  13.602  0.00  0.00    +0.000 Cl
BRANCH   5  13
ATOM     12  C   UNL     1       7.800   5.285  13.440  0.00  0.00    +0.000 C 
ATOM     13  O   UNL     1       8.020   4.754  14.741  0.00  0.00    +0.000 OA
ENDBRANCH   5  13
BRANCH   7  14
ATOM     14  O   UNL     1       6.812   4.876  19.162  0.00  0.00    +0.000 OA
ATOM     15  C   UNL     1       7.921   5.731  19.352  0.00  0.00    +0.000 C 
ENDBRANCH   7  14
ENDBRANCH   1   8
BRANCH   3  16
ATOM     16  C   UNL     1       2.368   7.424  19.488  0.00  0.00    +0.000 A 
ATOM     17  C   UNL     1       1.854   8.439  18.690  0.00  0.00    +0.000 A 
ATOM     18  C   UNL     1       0.932   9.358  19.186  0.00  0.00    +0.000 A 
ATOM     19  C   UNL     1       0.419   9.235  20.476  0.00  0.00    +0.000 A 
ATOM     20  C   UNL     1       0.890   8.191  21.275  0.00  0.00    +0.000 A 
ATOM     21  C   UNL     1       1.863   7.299  20.787  0.00  0.00    +0.000 A 
BRANCH  19  22
ATOM     22  N   UNL     1      -0.580  10.094  20.977  0.00  0.00    +0.000 N 
ATOM     23  C   UNL     1      -0.385  11.352  21.535  0.00  0.00    +0.000 C 
ATOM     24  O   UNL     1       0.705  11.872  21.753  0.00  0.00    +0.000 OA
ATOM     25  H   UNL     1      -1.545   9.791  20.902  0.00  0.00    +0.000 HD
BRANCH  23  26
ATOM     26  C   UNL     1      -1.608  12.052  21.861  0.00  0.00    +0.000 A 
ATOM     27  C   UNL     1      -2.324  12.967  21.112  0.00  0.00    +0.000 A 
ATOM     28  C   UNL     1      -3.448  13.333  21.881  0.00  0.00    +0.000 A 
ATOM     29  C   UNL     1      -3.355  12.618  23.054  0.00  0.00    +0.000 A 
ATOM     30  O   UNL     1      -2.241  11.838  23.056  0.00  0.00    +0.000 OA
ENDBRANCH  23  26
ENDBRANCH  19  22
ENDBRANCH   3  16
BRANCH   2  31
ATOM     31  S   UNL     1       1.544   4.375  19.544  0.00  0.00    +0.000 S 
ATOM     32  H   UNL     1       1.041   4.124  18.327  0.00  0.00    +0.000 HD
ENDBRANCH   2  31
TORSDOF 7
ENDMDL
MODEL 7
REMARK VINA RESULT:      -7.2      3.991      5.553
REMARK  Name = 
REMARK  9 active torsions:
REMARK  status: ('A' for Active; 'I' for Inactive)
REMARK    1  A    between atoms: C_1  and  O_2
REMARK    2  A    between atoms: O_2  and  C_3
REMARK    3  A    between atoms: C_5  and  O_6
REMARK    4  A    between atoms: O_6  and  C_7
REMARK    5  A    between atoms: C_8  and  N_9
REMARK    6  A    between atoms: C_10  and  S_11
REMARK    7  A    between atoms: N_12  and  C_13
REMARK    8  A    between atoms: C_16  and  N_17
REMARK    9  A    between atoms: C_18  and  C_20
REMARK                            x       y       z     vdW  Elec       q    Type
REMARK                         _______ _______ _______ _____ _____    ______ ____
ROOT
ATOM      1  N   UNL     1       1.899   7.233  20.661  0.00  0.00    +0.000 N 
ATOM      2  C   UNL     1       1.327   8.445  20.357  0.00  0.00    +0.000 C 
ATOM      3  N   UNL     1       1.478   9.097  19.245  0.00  0.00    +0.000 NA
ATOM      4  H   UNL     1       1.628   6.912  21.574  0.00  0.00    +0.000 HD
ENDROOT
BRANCH   1   8
ATOM      5  C   UNL     1       3.361   4.214  18.021  0.00  0.00    +0.000 A 
ATOM      6  C   UNL     1       2.464   3.898  19.049  0.00  0.00    +0.000 A 
ATOM      7  C   UNL     1       1.945   4.864  19.938  0.00  0.00    +0.000 A 
ATOM      8  C   UNL     1       2.328   6.211  19.792  0.00  0.00    +0.000 A 
ATOM      9  C   UNL     1       3.227   6.509  18.748  0.00  0.00    +0.000 A 
ATOM     10  C   UNL     1       3.729   5.545  17.863  0.00  0.00    +0.000 A 
ATOM     11 CL   UNL     1       4.714   6.152  16.581  0.00  0.00    +0.000 Cl
BRANCH   5  13
ATOM     12  C   UNL     1       3.594   1.854  17.818  0.00  0.00    +0.000 C 
ATOM     13  O   UNL     1       3.697   3.147  17.234  0.00  0.00    +0.000 OA
ENDBRANCH   5  13
BRANCH   7  14
ATOM     14  O   UNL     1       1.104   4.272  20.844  0.00  0.00    +0.000 OA
ATOM     15  C   UNL     1       1.286   2.949  21.306  0.00  0.00    +0.000 C 
ENDBRANCH   7  14
ENDBRANCH   1   8
BRANCH   3  16
ATOM     16  C   UNL     1       0.938  10.355  18.951  0.00  0.00    +0.000 A 
ATOM     17  C   UNL     1      -0.415  10.635  19.103  0.00  0.00    +0.000 A 
ATOM     18  C   UNL     1      -0.923  11.914  18.880  0.00  0.00    +0.000 A 
ATOM     19  C   UNL     1      -0.076  12.982  18.588  0.00  0.00    +0.000 A 
ATOM     20  C   UNL     1       1.292  12.726  18.478  0.00  0.00    +0.000 A 
ATOM     21  C   UNL     1       1.793  11.421  18.649  0.00  0.00    +0.000 A 
BRANCH  19  22
ATOM     22  N   UNL     1      -0.547  14.302  18.445  0.00  0.00    +0.000 N 
ATOM     23  C   UNL     1      -0.434  15.326  19.376  0.00  0.00    +0.000 C 
ATOM     24  O   UNL     1       0.026  15.209  20.509  0.00  0.00    +0.000 OA
ATOM     25  H   UNL     1      -0.989  14.553  17.567  0.00  0.00    +0.000 HD
BRANCH  23  26
ATOM     26  C   UNL     1      -0.912  16.609  18.910  0.00  0.00    +0.000 A 
ATOM     27  C   UNL     1      -1.911  17.414  19.424  0.00  0.00    +0.000 A 
ATOM     28  C   UNL     1      -1.966  18.564  18.610  0.00  0.00    +0.000 A 
ATOM     29  C   UNL     1      -0.996  18.396  17.647  0.00  0.00    +0.000 A 
ATOM     30  O   UNL     1      -0.350  17.212  17.817  0.00  0.00    +0.000 OA
ENDBRANCH  23  26
ENDBRANCH  19  22
ENDBRANCH   3  16
BRANCH   2  31
ATOM     31  S   UNL     1       0.374   8.985  21.741  0.00  0.00    +0.000 S 
ATOM     32  H   UNL     1       1.281   8.646  22.668  0.00  0.00    +0.000 HD
ENDBRANCH   2  31
TORSDOF 7
ENDMDL
MODEL 8
REMARK VINA RESULT:      -7.1      2.334      3.125
REMARK  Name = 
REMARK  9 active torsions:
REMARK  status: ('A' for Active; 'I' for Inactive)
REMARK    1  A    between atoms: C_1  and  O_2
REMARK    2  A    between atoms: O_2  and  C_3
REMARK    3  A    between atoms: C_5  and  O_6
REMARK    4  A    between atoms: O_6  and  C_7
REMARK    5  A    between atoms: C_8  and  N_9
REMARK    6  A    between atoms: C_10  and  S_11
REMARK    7  A    between atoms: N_12  and  C_13
REMARK    8  A    between atoms: C_16  and  N_17
REMARK    9  A    between atoms: C_18  and  C_20
REMARK                            x       y       z     vdW  Elec       q    Type
REMARK                         _______ _______ _______ _____ _____    ______ ____
ROOT
ATOM      1  N   UNL     1       3.697   5.099  19.442  0.00  0.00    +0.000 N 
ATOM      2  C   UNL     1       2.720   6.040  19.666  0.00  0.00    +0.000 C 
ATOM      3  N   UNL     1       2.737   7.266  19.242  0.00  0.00    +0.000 NA
ATOM      4  H   UNL     1       3.462   4.213  19.854  0.00  0.00    +0.000 HD
ENDROOT
BRANCH   1   8
ATOM      5  C   UNL     1       6.646   4.906  16.363  0.00  0.00    +0.000 A 
ATOM      6  C   UNL     1       5.590   3.987  16.407  0.00  0.00    +0.000 A 
ATOM      7  C   UNL     1       4.586   4.018  17.399  0.00  0.00    +0.000 A 
ATOM      8  C   UNL     1       4.628   5.019  18.389  0.00  0.00    +0.000 A 
ATOM      9  C   UNL     1       5.695   5.938  18.323  0.00  0.00    +0.000 A 
ATOM     10  C   UNL     1       6.681   5.905  17.328  0.00  0.00    +0.000 A 
ATOM     11 CL   UNL     1       7.819   7.204  17.364  0.00  0.00    +0.000 Cl
BRANCH   5  13
ATOM     12  C   UNL     1       6.868   4.624  14.010  0.00  0.00    +0.000 C 
ATOM     13  O   UNL     1       7.477   4.740  15.289  0.00  0.00    +0.000 OA
ENDBRANCH   5  13
BRANCH   7  14
ATOM     14  O   UNL     1       3.692   2.998  17.204  0.00  0.00    +0.000 OA
ATOM     15  C   UNL     1       3.647   1.853  18.029  0.00  0.00    +0.000 C 
ENDBRANCH   7  14
ENDBRANCH   1   8
BRANCH   3  16
ATOM     16  C   UNL     1       1.768   8.241  19.509  0.00  0.00    +0.000 A 
ATOM     17  C   UNL     1       1.256   8.448  20.785  0.00  0.00    +0.000 A 
ATOM     18  C   UNL     1       0.350   9.474  21.048  0.00  0.00    +0.000 A 
ATOM     19  C   UNL     1      -0.004  10.390  20.060  0.00  0.00    +0.000 A 
ATOM     20  C   UNL     1       0.539  10.224  18.783  0.00  0.00    +0.000 A 
ATOM     21  C   UNL     1       1.410   9.152  18.509  0.00  0.00    +0.000 A 
BRANCH  19  22
ATOM     22  N   UNL     1      -0.847  11.490  20.316  0.00  0.00    +0.000 N 
ATOM     23  C   UNL     1      -2.041  11.784  19.670  0.00  0.00    +0.000 C 
ATOM     24  O   UNL     1      -2.503  11.168  18.713  0.00  0.00    +0.000 OA
ATOM     25  H   UNL     1      -0.584  12.122  21.064  0.00  0.00    +0.000 HD
BRANCH  23  26
ATOM     26  C   UNL     1      -2.750  12.919  20.221  0.00  0.00    +0.000 A 
ATOM     27  C   UNL     1      -4.078  13.032  20.587  0.00  0.00    +0.000 A 
ATOM     28  C   UNL     1      -4.253  14.340  21.084  0.00  0.00    +0.000 A 
ATOM     29  C   UNL     1      -3.021  14.949  20.994  0.00  0.00    +0.000 A 
ATOM     30  O   UNL     1      -2.100  14.097  20.469  0.00  0.00    +0.000 OA
ENDBRANCH  23  26
ENDBRANCH  19  22
ENDBRANCH   3  16
BRANCH   2  31
ATOM     31  S   UNL     1       1.449   5.314  20.652  0.00  0.00    +0.000 S 
ATOM     32  H   UNL     1       1.258   6.385  21.434  0.00  0.00    +0.000 HD
ENDBRANCH   2  31
TORSDOF 7
ENDMDL
MODEL 9
REMARK VINA RESULT:      -7.1      4.155      5.720
REMARK  Name = 
REMARK  9 active torsions:
REMARK  status: ('A' for Active; 'I' for Inactive)
REMARK    1  A    between atoms: C_1  and  O_2
REMARK    2  A    between atoms: O_2  and  C_3
REMARK    3  A    between atoms: C_5  and  O_6
REMARK    4  A    between atoms: O_6  and  C_7
REMARK    5  A    between atoms: C_8  and  N_9
REMARK    6  A    between atoms: C_10  and  S_11
REMARK    7  A    between atoms: N_12  and  C_13
REMARK    8  A    between atoms: C_16  and  N_17
REMARK    9  A    between atoms: C_18  and  C_20
REMARK                            x       y       z     vdW  Elec       q    Type
REMARK                         _______ _______ _______ _____ _____    ______ ____
ROOT
ATOM      1  N   UNL     1       2.043   7.389  20.763  0.00  0.00    +0.000 N 
ATOM      2  C   UNL     1       1.476   8.611  20.492  0.00  0.00    +0.000 C 
ATOM      3  N   UNL     1       1.289   9.114  19.311  0.00  0.00    +0.000 NA
ATOM      4  H   UNL     1       2.071   7.203  21.750  0.00  0.00    +0.000 HD
ENDROOT
BRANCH   1   8
ATOM      5  C   UNL     1       2.042   3.869  18.349  0.00  0.00    +0.000 A 
ATOM      6  C   UNL     1       2.797   4.991  17.985  0.00  0.00    +0.000 A 
ATOM      7  C   UNL     1       2.837   6.172  18.757  0.00  0.00    +0.000 A 
ATOM      8  C   UNL     1       2.100   6.237  19.955  0.00  0.00    +0.000 A 
ATOM      9  C   UNL     1       1.352   5.095  20.307  0.00  0.00    +0.000 A 
ATOM     10  C   UNL     1       1.326   3.923  19.539  0.00  0.00    +0.000 A 
ATOM     11 CL   UNL     1       0.447   2.603  20.224  0.00  0.00    +0.000 Cl
BRANCH   5  13
ATOM     12  C   UNL     1       3.350   2.005  17.655  0.00  0.00    +0.000 C 
ATOM     13  O   UNL     1       2.186   2.807  17.499  0.00  0.00    +0.000 OA
ENDBRANCH   5  13
BRANCH   7  14
ATOM     14  O   UNL     1       3.643   7.105  18.158  0.00  0.00    +0.000 OA
ATOM     15  C   UNL     1       4.395   6.830  16.993  0.00  0.00    +0.000 C 
ENDBRANCH   7  14
ENDBRANCH   1   8
BRANCH   3  16
ATOM     16  C   UNL     1       0.757  10.380  19.031  0.00  0.00    +0.000 A 
ATOM     17  C   UNL     1      -0.598  10.662  19.170  0.00  0.00    +0.000 A 
ATOM     18  C   UNL     1      -1.098  11.946  18.963  0.00  0.00    +0.000 A 
ATOM     19  C   UNL     1      -0.244  13.016  18.702  0.00  0.00    +0.000 A 
ATOM     20  C   UNL     1       1.125  12.757  18.607  0.00  0.00    +0.000 A 
ATOM     21  C   UNL     1       1.620  11.448  18.761  0.00  0.00    +0.000 A 
BRANCH  19  22
ATOM     22  N   UNL     1      -0.708  14.340  18.576  0.00  0.00    +0.000 N 
ATOM     23  C   UNL     1      -0.553  15.363  19.504  0.00  0.00    +0.000 C 
ATOM     24  O   UNL     1      -0.055  15.241  20.620  0.00  0.00    +0.000 OA
ATOM     25  H   UNL     1      -1.178  14.596  17.715  0.00  0.00    +0.000 HD
BRANCH  23  26
ATOM     26  C   UNL     1      -1.037  16.650  19.056  0.00  0.00    +0.000 A 
ATOM     27  C   UNL     1      -1.981  17.482  19.628  0.00  0.00    +0.000 A 
ATOM     28  C   UNL     1      -2.070  18.623  18.804  0.00  0.00    +0.000 A 
ATOM     29  C   UNL     1      -1.173  18.424  17.779  0.00  0.00    +0.000 A 
ATOM     30  O   UNL     1      -0.540  17.228  17.918  0.00  0.00    +0.000 OA
ENDBRANCH  23  26
ENDBRANCH  19  22
ENDBRANCH   3  16
BRANCH   2  31
ATOM     31  S   UNL     1       1.069   9.399  22.018  0.00  0.00    +0.000 S 
ATOM     32  H   UNL     1       2.019  10.341  21.939  0.00  0.00    +0.000 HD
ENDBRANCH   2  31
TORSDOF 7
ENDMDL
