MODEL 1
REMARK VINA RESULT:      -6.4      0.000      0.000
REMARK  Name = 
REMARK  14 active torsions:
REMARK  status: ('A' for Active; 'I' for Inactive)
REMARK    1  A    between atoms: C_1  and  N_2
REMARK    2  A    between atoms: N_2  and  C_3
REMARK    3  A    between atoms: N_2  and  N_17
REMARK    4  A    between atoms: C_3  and  C_4
REMARK    5  A    between atoms: C_4  and  O_6
REMARK    6  A    between atoms: O_6  and  C_7
REMARK    7  A    between atoms: C_7  and  C_8
REMARK    8  A    between atoms: C_12  and  N_13
REMARK    9  A    between atoms: C_18  and  C_20
REMARK   10  A    between atoms: C_20  and  C_21
REMARK   11  A    between atoms: C_21  and  N_22
REMARK   12  A    between atoms: C_21  and  C_23
REMARK   13  A    between atoms: C_23  and  C_24
REMARK   14  A    between atoms: C_24  and  N_25
REMARK                            x       y       z     vdW  Elec       q    Type
REMARK                         _______ _______ _______ _____ _____    ______ ____
ROOT
ATOM      1  C   UNL     1       6.357   5.479  19.471  0.00  0.00    +0.000 C 
ATOM      2  N   UNL     1       5.947   4.342  18.646  0.00  0.00    +0.000 NA
ENDROOT
BRANCH   2   3
ATOM      3  N   UNL     1       6.058   4.647  17.265  0.00  0.00    +0.000 N 
ATOM      4  C   UNL     1       7.295   4.534  16.636  0.00  0.00    +0.000 C 
ATOM      5  O   UNL     1       8.322   4.144  17.184  0.00  0.00    +0.000 OA
ATOM      6  H   UNL     1       5.299   5.133  16.796  0.00  0.00    +0.000 HD
BRANCH   4   7
ATOM      7  C   UNL     1       7.216   4.864  15.153  0.00  0.00    +0.000 C 
BRANCH   7   8
ATOM      8  C   UNL     1       6.271   3.932  14.371  0.00  0.00    +0.000 C 
BRANCH   8   9
ATOM      9  N   UNL     1       4.861   4.318  14.542  0.00  0.00    +0.000 NA
ATOM     10  H   UNL     1       4.288   3.923  13.799  0.00  0.00    +0.000 HD
ATOM     11  H   UNL     1       4.802   5.339  14.421  0.00  0.00    +0.000 HD
ENDBRANCH   8   9
BRANCH   8  12
ATOM     12  C   UNL     1       6.563   3.919  12.857  0.00  0.00    +0.000 C 
BRANCH  12  13
ATOM     13  C   UNL     1       5.756   2.861  12.101  0.00  0.00    +0.000 C 
BRANCH  13  14
ATOM     14  N   UNL     1       4.473   3.400  11.665  0.00  0.00    +0.000 NA
ATOM     15  H   UNL     1       4.517   3.626  10.671  0.00  0.00    +0.000 HD
ATOM     16  H   UNL     1       4.293   4.280  12.147  0.00  0.00    +0.000 HD
ENDBRANCH  13  14
ENDBRANCH  12  13
ENDBRANCH   8  12
ENDBRANCH   7   8
ENDBRANCH   4   7
ENDBRANCH   2   3
BRANCH   2  17
ATOM     17  C   UNL     1       4.572   3.886  18.965  0.00  0.00    +0.000 C 
BRANCH  17  18
ATOM     18  C   UNL     1       3.553   4.344  17.925  0.00  0.00    +0.000 C 
ATOM     19  O   UNL     1       3.037   3.644  17.064  0.00  0.00    +0.000 OA
BRANCH  18  20
ATOM     20  O   UNL     1       3.302   5.676  18.093  0.00  0.00    +0.000 OA
BRANCH  20  21
ATOM     21  C   UNL     1       2.859   6.072  19.396  0.00  0.00    +0.000 C 
BRANCH  21  22
ATOM     22  C   UNL     1       2.186   7.420  19.310  0.00  0.00    +0.000 A 
ATOM     23  C   UNL     1       2.189   8.134  18.101  0.00  0.00    +0.000 A 
ATOM     24  C   UNL     1       1.605   9.401  18.014  0.00  0.00    +0.000 A 
ATOM     25  C   UNL     1       1.004   9.974  19.133  0.00  0.00    +0.000 A 
ATOM     26  C   UNL     1       0.982   9.263  20.341  0.00  0.00    +0.000 A 
ATOM     27  C   UNL     1       1.569   7.991  20.434  0.00  0.00    +0.000 A 
BRANCH  26  28
ATOM     28  N   UNL     1       0.344   9.863  21.518  0.00  0.00    +0.000 N 
ATOM     29  O   UNL     1       0.549   9.339  22.621  0.00  0.00    +0.000 OA
ATOM     30  O   UNL     1      -0.367  10.865  21.337  0.00  0.00    +0.000 OA
ENDBRANCH  26  28
ENDBRANCH  21  22
ENDBRANCH  20  21
ENDBRANCH  18  20
ENDBRANCH  17  18
ENDBRANCH   2  17
TORSDOF 13
ENDMDL
MODEL 2
REMARK VINA RESULT:      -6.0      3.361      7.731
REMARK  Name = 
REMARK  14 active torsions:
REMARK  status: ('A' for Active; 'I' for Inactive)
REMARK    1  A    between atoms: C_1  and  N_2
REMARK    2  A    between atoms: N_2  and  C_3
REMARK    3  A    between atoms: N_2  and  N_17
REMARK    4  A    between atoms: C_3  and  C_4
REMARK    5  A    between atoms: C_4  and  O_6
REMARK    6  A    between atoms: O_6  and  C_7
REMARK    7  A    between atoms: C_7  and  C_8
REMARK    8  A    between atoms: C_12  and  N_13
REMARK    9  A    between atoms: C_18  and  C_20
REMARK   10  A    between atoms: C_20  and  C_21
REMARK   11  A    between atoms: C_21  and  N_22
REMARK   12  A    between atoms: C_21  and  C_23
REMARK   13  A    between atoms: C_23  and  C_24
REMARK   14  A    between atoms: C_24  and  N_25
REMARK                            x       y       z     vdW  Elec       q    Type
REMARK                         _______ _______ _______ _____ _____    ______ ____
ROOT
ATOM      1  C   UNL     1       1.908   3.929  21.400  0.00  0.00    +0.000 C 
ATOM      2  N   UNL     1       2.145   4.853  20.290  0.00  0.00    +0.000 NA
ENDROOT
BRANCH   2   3
ATOM      3  N   UNL     1       1.717   6.165  20.616  0.00  0.00    +0.000 N 
ATOM      4  C   UNL     1       2.157   7.241  19.850  0.00  0.00    +0.000 C 
ATOM      5  O   UNL     1       2.878   7.143  18.861  0.00  0.00    +0.000 OA
ATOM      6  H   UNL     1       1.266   6.337  21.511  0.00  0.00    +0.000 HD
BRANCH   4   7
ATOM      7  C   UNL     1       1.567   8.560  20.323  0.00  0.00    +0.000 C 
BRANCH   7   8
ATOM      8  C   UNL     1       1.114   8.533  21.795  0.00  0.00    +0.000 C 
BRANCH   8   9
ATOM      9  N   UNL     1       2.013   9.318  22.656  0.00  0.00    +0.000 NA
ATOM     10  H   UNL     1       1.873  10.315  22.507  0.00  0.00    +0.000 HD
ATOM     11  H   UNL     1       2.978   9.128  22.352  0.00  0.00    +0.000 HD
ENDBRANCH   8   9
BRANCH   8  12
ATOM     12  C   UNL     1      -0.310   9.089  21.992  0.00  0.00    +0.000 C 
BRANCH  12  13
ATOM     13  C   UNL     1      -0.380  10.613  21.878  0.00  0.00    +0.000 C 
BRANCH  13  14
ATOM     14  N   UNL     1      -0.642  11.220  23.178  0.00  0.00    +0.000 NA
ATOM     15  H   UNL     1      -1.225  12.048  23.058  0.00  0.00    +0.000 HD
ATOM     16  H   UNL     1       0.235  11.548  23.583  0.00  0.00    +0.000 HD
ENDBRANCH  13  14
ENDBRANCH  12  13
ENDBRANCH   8  12
ENDBRANCH   7   8
ENDBRANCH   4   7
ENDBRANCH   2   3
BRANCH   2  17
ATOM     17  C   UNL     1       1.502   4.396  19.035  0.00  0.00    +0.000 C 
BRANCH  17  18
ATOM     18  C   UNL     1       2.022   3.035  18.579  0.00  0.00    +0.000 C 
ATOM     19  O   UNL     1       1.343   2.106  18.162  0.00  0.00    +0.000 OA
BRANCH  18  20
ATOM     20  O   UNL     1       3.381   3.001  18.715  0.00  0.00    +0.000 OA
BRANCH  20  21
ATOM     21  C   UNL     1       4.133   3.001  17.496  0.00  0.00    +0.000 C 
BRANCH  21  22
ATOM     22  C   UNL     1       4.909   4.291  17.386  0.00  0.00    +0.000 A 
ATOM     23  C   UNL     1       4.654   5.180  16.329  0.00  0.00    +0.000 A 
ATOM     24  C   UNL     1       5.392   6.359  16.190  0.00  0.00    +0.000 A 
ATOM     25  C   UNL     1       6.393   6.672  17.107  0.00  0.00    +0.000 A 
ATOM     26  C   UNL     1       6.645   5.800  18.174  0.00  0.00    +0.000 A 
ATOM     27  C   UNL     1       5.909   4.613  18.317  0.00  0.00    +0.000 A 
BRANCH  26  28
ATOM     28  N   UNL     1       7.695   6.131  19.143  0.00  0.00    +0.000 N 
ATOM     29  O   UNL     1       8.460   7.066  18.874  0.00  0.00    +0.000 OA
ATOM     30  O   UNL     1       7.755   5.450  20.180  0.00  0.00    +0.000 OA
ENDBRANCH  26  28
ENDBRANCH  21  22
ENDBRANCH  20  21
ENDBRANCH  18  20
ENDBRANCH  17  18
ENDBRANCH   2  17
TORSDOF 13
ENDMDL
MODEL 3
REMARK VINA RESULT:      -6.0      2.214      3.283
REMARK  Name = 
REMARK  14 active torsions:
REMARK  status: ('A' for Active; 'I' for Inactive)
REMARK    1  A    between atoms: C_1  and  N_2
REMARK    2  A    between atoms: N_2  and  C_3
REMARK    3  A    between atoms: N_2  and  N_17
REMARK    4  A    between atoms: C_3  and  C_4
REMARK    5  A    between atoms: C_4  and  O_6
REMARK    6  A    between atoms: O_6  and  C_7
REMARK    7  A    between atoms: C_7  and  C_8
REMARK    8  A    between atoms: C_12  and  N_13
REMARK    9  A    between atoms: C_18  and  C_20
REMARK   10  A    between atoms: C_20  and  C_21
REMARK   11  A    between atoms: C_21  and  N_22
REMARK   12  A    between atoms: C_21  and  C_23
REMARK   13  A    between atoms: C_23  and  C_24
REMARK   14  A    between atoms: C_24  and  N_25
REMARK                            x       y       z     vdW  Elec       q    Type
REMARK                         _______ _______ _______ _____ _____    ______ ____
ROOT
ATOM      1  C   UNL     1       4.060   2.709  19.751  0.00  0.00    +0.000 C 
ATOM      2  N   UNL     1       4.119   3.222  18.382  0.00  0.00    +0.000 NA
ENDROOT
BRANCH   2   3
ATOM      3  N   UNL     1       5.394   3.772  18.097  0.00  0.00    +0.000 N 
ATOM      4  C   UNL     1       5.773   3.974  16.772  0.00  0.00    +0.000 C 
ATOM      5  O   UNL     1       5.059   3.745  15.801  0.00  0.00    +0.000 OA
ATOM      6  H   UNL     1       6.094   3.824  18.833  0.00  0.00    +0.000 HD
BRANCH   4   7
ATOM      7  C   UNL     1       7.154   4.604  16.661  0.00  0.00    +0.000 C 
BRANCH   7   8
ATOM      8  C   UNL     1       7.122   6.143  16.642  0.00  0.00    +0.000 C 
BRANCH   8   9
ATOM      9  N   UNL     1       5.935   6.655  15.938  0.00  0.00    +0.000 NA
ATOM     10  H   UNL     1       5.725   7.607  16.231  0.00  0.00    +0.000 HD
ATOM     11  H   UNL     1       5.129   6.090  16.238  0.00  0.00    +0.000 HD
ENDBRANCH   8   9
BRANCH   8  12
ATOM     12  C   UNL     1       7.118   6.760  18.055  0.00  0.00    +0.000 C 
BRANCH  12  13
ATOM     13  C   UNL     1       8.134   6.109  18.995  0.00  0.00    +0.000 C 
BRANCH  13  14
ATOM     14  N   UNL     1       7.461   5.411  20.085  0.00  0.00    +0.000 NA
ATOM     15  H   UNL     1       8.024   5.477  20.933  0.00  0.00    +0.000 HD
ATOM     16  H   UNL     1       7.398   4.417  19.863  0.00  0.00    +0.000 HD
ENDBRANCH  13  14
ENDBRANCH  12  13
ENDBRANCH   8  12
ENDBRANCH   7   8
ENDBRANCH   4   7
ENDBRANCH   2   3
BRANCH   2  17
ATOM     17  C   UNL     1       3.054   4.219  18.112  0.00  0.00    +0.000 C 
BRANCH  17  18
ATOM     18  C   UNL     1       1.912   4.135  19.122  0.00  0.00    +0.000 C 
ATOM     19  O   UNL     1       1.053   3.265  19.168  0.00  0.00    +0.000 OA
BRANCH  18  20
ATOM     20  O   UNL     1       1.985   5.199  19.976  0.00  0.00    +0.000 OA
BRANCH  20  21
ATOM     21  C   UNL     1       2.874   6.253  19.590  0.00  0.00    +0.000 C 
BRANCH  21  22
ATOM     22  C   UNL     1       2.113   7.555  19.530  0.00  0.00    +0.000 A 
ATOM     23  C   UNL     1       2.039   8.274  18.326  0.00  0.00    +0.000 A 
ATOM     24  C   UNL     1       1.372   9.502  18.264  0.00  0.00    +0.000 A 
ATOM     25  C   UNL     1       0.763  10.027  19.401  0.00  0.00    +0.000 A 
ATOM     26  C   UNL     1       0.818   9.310  20.605  0.00  0.00    +0.000 A 
ATOM     27  C   UNL     1       1.489   8.079  20.673  0.00  0.00    +0.000 A 
BRANCH  26  28
ATOM     28  N   UNL     1       0.173   9.861  21.801  0.00  0.00    +0.000 N 
ATOM     29  O   UNL     1       0.375  11.051  22.075  0.00  0.00    +0.000 OA
ATOM     30  O   UNL     1      -0.539   9.096  22.472  0.00  0.00    +0.000 OA
ENDBRANCH  26  28
ENDBRANCH  21  22
ENDBRANCH  20  21
ENDBRANCH  18  20
ENDBRANCH  17  18
ENDBRANCH   2  17
TORSDOF 13
ENDMDL
MODEL 4
REMARK VINA RESULT:      -6.0      2.458      4.537
REMARK  Name = 
REMARK  14 active torsions:
REMARK  status: ('A' for Active; 'I' for Inactive)
REMARK    1  A    between atoms: C_1  and  N_2
REMARK    2  A    between atoms: N_2  and  C_3
REMARK    3  A    between atoms: N_2  and  N_17
REMARK    4  A    between atoms: C_3  and  C_4
REMARK    5  A    between atoms: C_4  and  O_6
REMARK    6  A    between atoms: O_6  and  C_7
REMARK    7  A    between atoms: C_7  and  C_8
REMARK    8  A    between atoms: C_12  and  N_13
REMARK    9  A    between atoms: C_18  and  C_20
REMARK   10  A    between atoms: C_20  and  C_21
REMARK   11  A    between atoms: C_21  and  N_22
REMARK   12  A    between atoms: C_21  and  C_23
REMARK   13  A    between atoms: C_23  and  C_24
REMARK   14  A    between atoms: C_24  and  N_25
REMARK                            x       y       z     vdW  Elec       q    Type
REMARK                         _______ _______ _______ _____ _____    ______ ____
ROOT
ATOM      1  C   UNL     1       6.400   4.066  16.920  0.00  0.00    +0.000 C 
ATOM      2  N   UNL     1       5.723   4.272  18.202  0.00  0.00    +0.000 NA
ENDROOT
BRANCH   2   3
ATOM      3  N   UNL     1       4.538   3.499  18.283  0.00  0.00    +0.000 N 
ATOM      4  C   UNL     1       4.365   2.620  19.349  0.00  0.00    +0.000 C 
ATOM      5  O   UNL     1       5.159   2.482  20.275  0.00  0.00    +0.000 OA
ATOM      6  H   UNL     1       3.924   3.435  17.475  0.00  0.00    +0.000 HD
BRANCH   4   7
ATOM      7  C   UNL     1       3.023   1.905  19.290  0.00  0.00    +0.000 C 
BRANCH   7   8
ATOM      8  C   UNL     1       1.856   2.831  18.899  0.00  0.00    +0.000 C 
BRANCH   8   9
ATOM      9  N   UNL     1       0.861   2.133  18.069  0.00  0.00    +0.000 NA
ATOM     10  H   UNL     1       0.433   2.774  17.404  0.00  0.00    +0.000 HD
ATOM     11  H   UNL     1       0.097   1.829  18.688  0.00  0.00    +0.000 HD
ENDBRANCH   8   9
BRANCH   8  12
ATOM     12  C   UNL     1       1.111   3.403  20.122  0.00  0.00    +0.000 C 
BRANCH  12  13
ATOM     13  C   UNL     1       1.956   3.393  21.397  0.00  0.00    +0.000 C 
BRANCH  13  14
ATOM     14  N   UNL     1       1.427   2.438  22.364  0.00  0.00    +0.000 NA
ATOM     15  H   UNL     1       2.171   1.812  22.670  0.00  0.00    +0.000 HD
ATOM     16  H   UNL     1       0.729   1.848  21.911  0.00  0.00    +0.000 HD
ENDBRANCH  13  14
ENDBRANCH  12  13
ENDBRANCH   8  12
ENDBRANCH   7   8
ENDBRANCH   4   7
ENDBRANCH   2   3
BRANCH   2  17
ATOM     17  C   UNL     1       5.425   5.703  18.453  0.00  0.00    +0.000 C 
BRANCH  17  18
ATOM     18  C   UNL     1       4.461   6.284  17.422  0.00  0.00    +0.000 C 
ATOM     19  O   UNL     1       4.772   6.866  16.392  0.00  0.00    +0.000 OA
BRANCH  18  20
ATOM     20  O   UNL     1       3.176   6.064  17.830  0.00  0.00    +0.000 OA
BRANCH  20  21
ATOM     21  C   UNL     1       2.879   6.419  19.186  0.00  0.00    +0.000 C 
BRANCH  21  22
ATOM     22  C   UNL     1       2.116   7.721  19.207  0.00  0.00    +0.000 A 
ATOM     23  C   UNL     1       1.947   8.460  18.025  0.00  0.00    +0.000 A 
ATOM     24  C   UNL     1       1.279   9.688  18.036  0.00  0.00    +0.000 A 
ATOM     25  C   UNL     1       0.763  10.195  19.227  0.00  0.00    +0.000 A 
ATOM     26  C   UNL     1       0.912   9.458  20.410  0.00  0.00    +0.000 A 
ATOM     27  C   UNL     1       1.585   8.226  20.405  0.00  0.00    +0.000 A 
BRANCH  26  28
ATOM     28  N   UNL     1       0.365   9.988  21.663  0.00  0.00    +0.000 N 
ATOM     29  O   UNL     1      -0.790  10.435  21.651  0.00  0.00    +0.000 OA
ATOM     30  O   UNL     1       1.096   9.959  22.666  0.00  0.00    +0.000 OA
ENDBRANCH  26  28
ENDBRANCH  21  22
ENDBRANCH  20  21
ENDBRANCH  18  20
ENDBRANCH  17  18
ENDBRANCH   2  17
TORSDOF 13
ENDMDL
MODEL 5
REMARK VINA RESULT:      -5.9      3.349      8.279
REMARK  Name = 
REMARK  14 active torsions:
REMARK  status: ('A' for Active; 'I' for Inactive)
REMARK    1  A    between atoms: C_1  and  N_2
REMARK    2  A    between atoms: N_2  and  C_3
REMARK    3  A    between atoms: N_2  and  N_17
REMARK    4  A    between atoms: C_3  and  C_4
REMARK    5  A    between atoms: C_4  and  O_6
REMARK    6  A    between atoms: O_6  and  C_7
REMARK    7  A    between atoms: C_7  and  C_8
REMARK    8  A    between atoms: C_12  and  N_13
REMARK    9  A    between atoms: C_18  and  C_20
REMARK   10  A    between atoms: C_20  and  C_21
REMARK   11  A    between atoms: C_21  and  N_22
REMARK   12  A    between atoms: C_21  and  C_23
REMARK   13  A    between atoms: C_23  and  C_24
REMARK   14  A    between atoms: C_24  and  N_25
REMARK                            x       y       z     vdW  Elec       q    Type
REMARK                         _______ _______ _______ _____ _____    ______ ____
ROOT
ATOM      1  C   UNL     1       2.225   7.655  18.292  0.00  0.00    +0.000 C 
ATOM      2  N   UNL     1       2.742   6.362  17.839  0.00  0.00    +0.000 NA
ENDROOT
BRANCH   2   3
ATOM      3  N   UNL     1       2.167   5.295  18.576  0.00  0.00    +0.000 N 
ATOM      4  C   UNL     1       1.649   4.195  17.898  0.00  0.00    +0.000 C 
ATOM      5  O   UNL     1       1.683   4.047  16.680  0.00  0.00    +0.000 OA
ATOM      6  H   UNL     1       1.952   5.425  19.561  0.00  0.00    +0.000 HD
BRANCH   4   7
ATOM      7  C   UNL     1       1.110   3.138  18.850  0.00  0.00    +0.000 C 
BRANCH   7   8
ATOM      8  C   UNL     1       2.102   1.989  19.111  0.00  0.00    +0.000 C 
BRANCH   8   9
ATOM      9  N   UNL     1       3.292   2.092  18.251  0.00  0.00    +0.000 NA
ATOM     10  H   UNL     1       4.142   1.970  18.798  0.00  0.00    +0.000 HD
ATOM     11  H   UNL     1       3.333   3.055  17.891  0.00  0.00    +0.000 HD
ENDBRANCH   8   9
BRANCH   8  12
ATOM     12  C   UNL     1       2.594   1.943  20.571  0.00  0.00    +0.000 C 
BRANCH  12  13
ATOM     13  C   UNL     1       1.655   2.661  21.542  0.00  0.00    +0.000 C 
BRANCH  13  14
ATOM     14  N   UNL     1       2.299   3.840  22.110  0.00  0.00    +0.000 NA
ATOM     15  H   UNL     1       3.069   4.133  21.509  0.00  0.00    +0.000 HD
ATOM     16  H   UNL     1       2.717   3.599  23.009  0.00  0.00    +0.000 HD
ENDBRANCH  13  14
ENDBRANCH  12  13
ENDBRANCH   8  12
ENDBRANCH   7   8
ENDBRANCH   4   7
ENDBRANCH   2   3
BRANCH   2  17
ATOM     17  C   UNL     1       4.221   6.297  17.904  0.00  0.00    +0.000 C 
BRANCH  17  18
ATOM     18  C   UNL     1       4.852   6.052  16.536  0.00  0.00    +0.000 C 
ATOM     19  O   UNL     1       5.058   6.896  15.675  0.00  0.00    +0.000 OA
BRANCH  18  20
ATOM     20  O   UNL     1       5.149   4.724  16.406  0.00  0.00    +0.000 OA
BRANCH  20  21
ATOM     21  C   UNL     1       6.516   4.414  16.111  0.00  0.00    +0.000 C 
BRANCH  21  22
ATOM     22  C   UNL     1       6.706   4.358  14.615  0.00  0.00    +0.000 A 
ATOM     23  C   UNL     1       7.638   5.202  13.990  0.00  0.00    +0.000 A 
ATOM     24  C   UNL     1       7.797   5.191  12.600  0.00  0.00    +0.000 A 
ATOM     25  C   UNL     1       7.031   4.333  11.814  0.00  0.00    +0.000 A 
ATOM     26  C   UNL     1       6.109   3.476  12.429  0.00  0.00    +0.000 A 
ATOM     27  C   UNL     1       5.944   3.484  13.823  0.00  0.00    +0.000 A 
BRANCH  26  28
ATOM     28  N   UNL     1       5.306   2.569  11.603  0.00  0.00    +0.000 N 
ATOM     29  O   UNL     1       5.771   1.451  11.345  0.00  0.00    +0.000 OA
ATOM     30  O   UNL     1       4.203   2.979  11.207  0.00  0.00    +0.000 OA
ENDBRANCH  26  28
ENDBRANCH  21  22
ENDBRANCH  20  21
ENDBRANCH  18  20
ENDBRANCH  17  18
ENDBRANCH   2  17
TORSDOF 13
ENDMDL
MODEL 6
REMARK VINA RESULT:      -5.9      5.580      7.552
REMARK  Name = 
REMARK  14 active torsions:
REMARK  status: ('A' for Active; 'I' for Inactive)
REMARK    1  A    between atoms: C_1  and  N_2
REMARK    2  A    between atoms: N_2  and  C_3
REMARK    3  A    between atoms: N_2  and  N_17
REMARK    4  A    between atoms: C_3  and  C_4
REMARK    5  A    between atoms: C_4  and  O_6
REMARK    6  A    between atoms: O_6  and  C_7
REMARK    7  A    between atoms: C_7  and  C_8
REMARK    8  A    between atoms: C_12  and  N_13
REMARK    9  A    between atoms: C_18  and  C_20
REMARK   10  A    between atoms: C_20  and  C_21
REMARK   11  A    between atoms: C_21  and  N_22
REMARK   12  A    between atoms: C_21  and  C_23
REMARK   13  A    between atoms: C_23  and  C_24
REMARK   14  A    between atoms: C_24  and  N_25
REMARK                            x       y       z     vdW  Elec       q    Type
REMARK                         _______ _______ _______ _____ _____    ______ ____
ROOT
ATOM      1  C   UNL     1       7.406   4.530  17.180  0.00  0.00    +0.000 C 
ATOM      2  N   UNL     1       7.130   4.987  18.543  0.00  0.00    +0.000 NA
ENDROOT
BRANCH   2   3
ATOM      3  N   UNL     1       5.753   5.281  18.714  0.00  0.00    +0.000 N 
ATOM      4  C   UNL     1       4.911   4.322  19.271  0.00  0.00    +0.000 C 
ATOM      5  O   UNL     1       5.279   3.223  19.675  0.00  0.00    +0.000 OA
ATOM      6  H   UNL     1       5.353   6.093  18.251  0.00  0.00    +0.000 HD
BRANCH   4   7
ATOM      7  C   UNL     1       3.483   4.826  19.411  0.00  0.00    +0.000 C 
BRANCH   7   8
ATOM      8  C   UNL     1       2.894   5.364  18.093  0.00  0.00    +0.000 C 
BRANCH   8   9
ATOM      9  N   UNL     1       1.757   4.552  17.633  0.00  0.00    +0.000 NA
ATOM     10  H   UNL     1       1.053   4.471  18.363  0.00  0.00    +0.000 HD
ATOM     11  H   UNL     1       2.102   3.594  17.478  0.00  0.00    +0.000 HD
ENDBRANCH   8   9
BRANCH   8  12
ATOM     12  C   UNL     1       2.400   6.820  18.210  0.00  0.00    +0.000 C 
BRANCH  12  13
ATOM     13  C   UNL     1       2.256   7.289  19.659  0.00  0.00    +0.000 C 
BRANCH  13  14
ATOM     14  N   UNL     1       1.610   8.596  19.720  0.00  0.00    +0.000 NA
ATOM     15  H   UNL     1       2.216   9.256  20.207  0.00  0.00    +0.000 HD
ATOM     16  H   UNL     1       0.759   8.528  20.277  0.00  0.00    +0.000 HD
ENDBRANCH  13  14
ENDBRANCH  12  13
ENDBRANCH   8  12
ENDBRANCH   7   8
ENDBRANCH   4   7
ENDBRANCH   2   3
BRANCH   2  17
ATOM     17  C   UNL     1       7.960   6.156  18.920  0.00  0.00    +0.000 C 
BRANCH  17  18
ATOM     18  C   UNL     1       7.697   7.365  18.025  0.00  0.00    +0.000 C 
ATOM     19  O   UNL     1       6.913   7.412  17.087  0.00  0.00    +0.000 OA
BRANCH  18  20
ATOM     20  O   UNL     1       8.488   8.405  18.427  0.00  0.00    +0.000 OA
BRANCH  20  21
ATOM     21  C   UNL     1       8.206   9.675  17.827  0.00  0.00    +0.000 C 
BRANCH  21  22
ATOM     22  C   UNL     1       9.040  10.742  18.495  0.00  0.00    +0.000 A 
ATOM     23  C   UNL     1       9.578  10.519  19.772  0.00  0.00    +0.000 A 
ATOM     24  C   UNL     1      10.318  11.512  20.421  0.00  0.00    +0.000 A 
ATOM     25  C   UNL     1      10.537  12.741  19.802  0.00  0.00    +0.000 A 
ATOM     26  C   UNL     1      10.017  12.967  18.520  0.00  0.00    +0.000 A 
ATOM     27  C   UNL     1       9.271  11.975  17.866  0.00  0.00    +0.000 A 
BRANCH  26  28
ATOM     28  N   UNL     1      10.251  14.259  17.866  0.00  0.00    +0.000 N 
ATOM     29  O   UNL     1      11.374  14.476  17.393  0.00  0.00    +0.000 OA
ATOM     30  O   UNL     1       9.305  15.062  17.827  0.00  0.00    +0.000 OA
ENDBRANCH  26  28
ENDBRANCH  21  22
ENDBRANCH  20  21
ENDBRANCH  18  20
ENDBRANCH  17  18
ENDBRANCH   2  17
TORSDOF 13
ENDMDL
MODEL 7
REMARK VINA RESULT:      -5.8      3.292      6.651
REMARK  Name = 
REMARK  14 active torsions:
REMARK  status: ('A' for Active; 'I' for Inactive)
REMARK    1  A    between atoms: C_1  and  N_2
REMARK    2  A    between atoms: N_2  and  C_3
REMARK    3  A    between atoms: N_2  and  N_17
REMARK    4  A    between atoms: C_3  and  C_4
REMARK    5  A    between atoms: C_4  and  O_6
REMARK    6  A    between atoms: O_6  and  C_7
REMARK    7  A    between atoms: C_7  and  C_8
REMARK    8  A    between atoms: C_12  and  N_13
REMARK    9  A    between atoms: C_18  and  C_20
REMARK   10  A    between atoms: C_20  and  C_21
REMARK   11  A    between atoms: C_21  and  N_22
REMARK   12  A    between atoms: C_21  and  C_23
REMARK   13  A    between atoms: C_23  and  C_24
REMARK   14  A    between atoms: C_24  and  N_25
REMARK                            x       y       z     vdW  Elec       q    Type
REMARK                         _______ _______ _______ _____ _____    ______ ____
ROOT
ATOM      1  C   UNL     1       1.945   3.275  21.692  0.00  0.00    +0.000 C 
ATOM      2  N   UNL     1       2.654   3.562  20.444  0.00  0.00    +0.000 NA
ENDROOT
BRANCH   2   3
ATOM      3  N   UNL     1       2.057   4.648  19.755  0.00  0.00    +0.000 N 
ATOM      4  C   UNL     1       2.770   5.833  19.593  0.00  0.00    +0.000 C 
ATOM      5  O   UNL     1       3.923   6.009  19.975  0.00  0.00    +0.000 OA
ATOM      6  H   UNL     1       1.058   4.634  19.565  0.00  0.00    +0.000 HD
BRANCH   4   7
ATOM      7  C   UNL     1       1.988   6.869  18.801  0.00  0.00    +0.000 C 
BRANCH   7   8
ATOM      8  C   UNL     1       1.462   8.029  19.666  0.00  0.00    +0.000 C 
BRANCH   8   9
ATOM      9  N   UNL     1       1.792   7.842  21.088  0.00  0.00    +0.000 NA
ATOM     10  H   UNL     1       2.155   8.704  21.489  0.00  0.00    +0.000 HD
ATOM     11  H   UNL     1       2.567   7.166  21.140  0.00  0.00    +0.000 HD
ENDBRANCH   8   9
BRANCH   8  12
ATOM     12  C   UNL     1       2.030   9.398  19.240  0.00  0.00    +0.000 C 
BRANCH  12  13
ATOM     13  C   UNL     1       1.517   9.861  17.875  0.00  0.00    +0.000 C 
BRANCH  13  14
ATOM     14  N   UNL     1       0.061   9.936  17.866  0.00  0.00    +0.000 NA
ATOM     15  H   UNL     1      -0.329   9.076  18.251  0.00  0.00    +0.000 HD
ATOM     16  H   UNL     1      -0.271   9.990  16.903  0.00  0.00    +0.000 HD
ENDBRANCH  13  14
ENDBRANCH  12  13
ENDBRANCH   8  12
ENDBRANCH   7   8
ENDBRANCH   4   7
ENDBRANCH   2   3
BRANCH   2  17
ATOM     17  C   UNL     1       2.736   2.373  19.562  0.00  0.00    +0.000 C 
BRANCH  17  18
ATOM     18  C   UNL     1       1.938   2.550  18.273  0.00  0.00    +0.000 C 
ATOM     19  O   UNL     1       0.738   2.355  18.136  0.00  0.00    +0.000 OA
BRANCH  18  20
ATOM     20  O   UNL     1       2.776   2.956  17.274  0.00  0.00    +0.000 OA
BRANCH  20  21
ATOM     21  C   UNL     1       4.171   2.710  17.487  0.00  0.00    +0.000 C 
BRANCH  21  22
ATOM     22  C   UNL     1       4.945   3.987  17.269  0.00  0.00    +0.000 A 
ATOM     23  C   UNL     1       4.750   4.740  16.100  0.00  0.00    +0.000 A 
ATOM     24  C   UNL     1       5.489   5.903  15.864  0.00  0.00    +0.000 A 
ATOM     25  C   UNL     1       6.429   6.337  16.795  0.00  0.00    +0.000 A 
ATOM     26  C   UNL     1       6.621   5.602  17.973  0.00  0.00    +0.000 A 
ATOM     27  C   UNL     1       5.884   4.431  18.213  0.00  0.00    +0.000 A 
BRANCH  26  28
ATOM     28  N   UNL     1       7.608   6.061  18.956  0.00  0.00    +0.000 N 
ATOM     29  O   UNL     1       8.299   7.047  18.670  0.00  0.00    +0.000 OA
ATOM     30  O   UNL     1       7.692   5.429  20.022  0.00  0.00    +0.000 OA
ENDBRANCH  26  28
ENDBRANCH  21  22
ENDBRANCH  20  21
ENDBRANCH  18  20
ENDBRANCH  17  18
ENDBRANCH   2  17
TORSDOF 13
ENDMDL
MODEL 8
REMARK VINA RESULT:      -5.8      2.798      4.133
REMARK  Name = 
REMARK  14 active torsions:
REMARK  status: ('A' for Active; 'I' for Inactive)
REMARK    1  A    between atoms: C_1  and  N_2
REMARK    2  A    between atoms: N_2  and  C_3
REMARK    3  A    between atoms: N_2  and  N_17
REMARK    4  A    between atoms: C_3  and  C_4
REMARK    5  A    between atoms: C_4  and  O_6
REMARK    6  A    between atoms: O_6  and  C_7
REMARK    7  A    between atoms: C_7  and  C_8
REMARK    8  A    between atoms: C_12  and  N_13
REMARK    9  A    between atoms: C_18  and  C_20
REMARK   10  A    between atoms: C_20  and  C_21
REMARK   11  A    between atoms: C_21  and  N_22
REMARK   12  A    between atoms: C_21  and  C_23
REMARK   13  A    between atoms: C_23  and  C_24
REMARK   14  A    between atoms: C_24  and  N_25
REMARK                            x       y       z     vdW  Elec       q    Type
REMARK                         _______ _______ _______ _____ _____    ______ ____
ROOT
ATOM      1  C   UNL     1       2.193   4.833  20.811  0.00  0.00    +0.000 C 
ATOM      2  N   UNL     1       2.188   5.472  19.494  0.00  0.00    +0.000 NA
ENDROOT
BRANCH   2   3
ATOM      3  N   UNL     1       3.116   4.849  18.621  0.00  0.00    +0.000 N 
ATOM      4  C   UNL     1       2.665   3.904  17.702  0.00  0.00    +0.000 C 
ATOM      5  O   UNL     1       1.490   3.583  17.554  0.00  0.00    +0.000 OA
ATOM      6  H   UNL     1       4.112   4.938  18.801  0.00  0.00    +0.000 HD
BRANCH   4   7
ATOM      7  C   UNL     1       3.790   3.373  16.828  0.00  0.00    +0.000 C 
BRANCH   7   8
ATOM      8  C   UNL     1       5.098   4.176  16.962  0.00  0.00    +0.000 C 
BRANCH   8   9
ATOM      9  N   UNL     1       5.799   3.869  18.219  0.00  0.00    +0.000 NA
ATOM     10  H   UNL     1       6.033   4.725  18.719  0.00  0.00    +0.000 HD
ATOM     11  H   UNL     1       6.702   3.439  17.975  0.00  0.00    +0.000 HD
ENDBRANCH   8   9
BRANCH   8  12
ATOM     12  C   UNL     1       6.086   3.907  15.810  0.00  0.00    +0.000 C 
BRANCH  12  13
ATOM     13  C   UNL     1       6.700   5.186  15.236  0.00  0.00    +0.000 C 
BRANCH  13  14
ATOM     14  N   UNL     1       7.394   5.939  16.275  0.00  0.00    +0.000 NA
ATOM     15  H   UNL     1       6.712   6.392  16.884  0.00  0.00    +0.000 HD
ATOM     16  H   UNL     1       7.934   6.691  15.847  0.00  0.00    +0.000 HD
ENDBRANCH  13  14
ENDBRANCH  12  13
ENDBRANCH   8  12
ENDBRANCH   7   8
ENDBRANCH   4   7
ENDBRANCH   2   3
BRANCH   2  17
ATOM     17  C   UNL     1       2.455   6.928  19.578  0.00  0.00    +0.000 C 
BRANCH  17  18
ATOM     18  C   UNL     1       2.727   7.548  18.210  0.00  0.00    +0.000 C 
ATOM     19  O   UNL     1       3.750   7.418  17.550  0.00  0.00    +0.000 OA
BRANCH  18  20
ATOM     20  O   UNL     1       1.646   8.290  17.825  0.00  0.00    +0.000 OA
BRANCH  20  21
ATOM     21  C   UNL     1       1.805   9.712  17.895  0.00  0.00    +0.000 C 
BRANCH  21  22
ATOM     22  C   UNL     1       0.798  10.283  18.863  0.00  0.00    +0.000 A 
ATOM     23  C   UNL     1       1.086  10.325  20.237  0.00  0.00    +0.000 A 
ATOM     24  C   UNL     1       0.148  10.813  21.152  0.00  0.00    +0.000 A 
ATOM     25  C   UNL     1      -1.090  11.272  20.708  0.00  0.00    +0.000 A 
ATOM     26  C   UNL     1      -1.381  11.249  19.337  0.00  0.00    +0.000 A 
ATOM     27  C   UNL     1      -0.444  10.757  18.415  0.00  0.00    +0.000 A 
BRANCH  26  28
ATOM     28  N   UNL     1      -2.683  11.737  18.870  0.00  0.00    +0.000 N 
ATOM     29  O   UNL     1      -3.382  12.382  19.662  0.00  0.00    +0.000 OA
ATOM     30  O   UNL     1      -3.009  11.472  17.701  0.00  0.00    +0.000 OA
ENDBRANCH  26  28
ENDBRANCH  21  22
ENDBRANCH  20  21
ENDBRANCH  18  20
ENDBRANCH  17  18
ENDBRANCH   2  17
TORSDOF 13
ENDMDL
MODEL 9
REMARK VINA RESULT:      -5.8      2.513      4.377
REMARK  Name = 
REMARK  14 active torsions:
REMARK  status: ('A' for Active; 'I' for Inactive)
REMARK    1  A    between atoms: C_1  and  N_2
REMARK    2  A    between atoms: N_2  and  C_3
REMARK    3  A    between atoms: N_2  and  N_17
REMARK    4  A    between atoms: C_3  and  C_4
REMARK    5  A    between atoms: C_4  and  O_6
REMARK    6  A    between atoms: O_6  and  C_7
REMARK    7  A    between atoms: C_7  and  C_8
REMARK    8  A    between atoms: C_12  and  N_13
REMARK    9  A    between atoms: C_18  and  C_20
REMARK   10  A    between atoms: C_20  and  C_21
REMARK   11  A    between atoms: C_21  and  N_22
REMARK   12  A    between atoms: C_21  and  C_23
REMARK   13  A    between atoms: C_23  and  C_24
REMARK   14  A    between atoms: C_24  and  N_25
REMARK                            x       y       z     vdW  Elec       q    Type
REMARK                         _______ _______ _______ _____ _____    ______ ____
ROOT
ATOM      1  C   UNL     1       4.770   4.111  16.438  0.00  0.00    +0.000 C 
ATOM      2  N   UNL     1       4.933   4.202  17.890  0.00  0.00    +0.000 NA
ENDROOT
BRANCH   2   3
ATOM      3  N   UNL     1       3.843   3.597  18.566  0.00  0.00    +0.000 N 
ATOM      4  C   UNL     1       4.084   2.818  19.695  0.00  0.00    +0.000 C 
ATOM      5  O   UNL     1       5.191   2.638  20.194  0.00  0.00    +0.000 OA
ATOM      6  H   UNL     1       2.931   3.562  18.117  0.00  0.00    +0.000 HD
BRANCH   4   7
ATOM      7  C   UNL     1       2.798   2.283  20.306  0.00  0.00    +0.000 C 
BRANCH   7   8
ATOM      8  C   UNL     1       1.939   3.374  20.973  0.00  0.00    +0.000 C 
BRANCH   8   9
ATOM      9  N   UNL     1       2.708   4.608  21.202  0.00  0.00    +0.000 NA
ATOM     10  H   UNL     1       2.084   5.395  21.370  0.00  0.00    +0.000 HD
ATOM     11  H   UNL     1       3.203   4.832  20.328  0.00  0.00    +0.000 HD
ENDBRANCH   8   9
BRANCH   8  12
ATOM     12  C   UNL     1       0.700   3.754  20.138  0.00  0.00    +0.000 C 
BRANCH  12  13
ATOM     13  C   UNL     1       0.576   2.942  18.847  0.00  0.00    +0.000 C 
BRANCH  13  14
ATOM     14  N   UNL     1       1.038   3.716  17.701  0.00  0.00    +0.000 NA
ATOM     15  H   UNL     1       0.398   4.493  17.532  0.00  0.00    +0.000 HD
ATOM     16  H   UNL     1       1.005   3.135  16.863  0.00  0.00    +0.000 HD
ENDBRANCH  13  14
ENDBRANCH  12  13
ENDBRANCH   8  12
ENDBRANCH   7   8
ENDBRANCH   4   7
ENDBRANCH   2   3
BRANCH   2  17
ATOM     17  C   UNL     1       5.111   5.602  18.346  0.00  0.00    +0.000 C 
BRANCH  17  18
ATOM     18  C   UNL     1       4.928   6.609  17.213  0.00  0.00    +0.000 C 
ATOM     19  O   UNL     1       5.763   6.905  16.370  0.00  0.00    +0.000 OA
BRANCH  18  20
ATOM     20  O   UNL     1       3.675   7.148  17.285  0.00  0.00    +0.000 OA
BRANCH  20  21
ATOM     21  C   UNL     1       2.942   6.875  18.485  0.00  0.00    +0.000 C 
BRANCH  21  22
ATOM     22  C   UNL     1       2.084   8.068  18.832  0.00  0.00    +0.000 A 
ATOM     23  C   UNL     1       1.532   8.859  17.812  0.00  0.00    +0.000 A 
ATOM     24  C   UNL     1       0.769   9.991  18.116  0.00  0.00    +0.000 A 
ATOM     25  C   UNL     1       0.541  10.346  19.443  0.00  0.00    +0.000 A 
ATOM     26  C   UNL     1       1.075   9.554  20.469  0.00  0.00    +0.000 A 
ATOM     27  C   UNL     1       1.844   8.419  20.169  0.00  0.00    +0.000 A 
BRANCH  26  28
ATOM     28  N   UNL     1       0.830   9.925  21.867  0.00  0.00    +0.000 N 
ATOM     29  O   UNL     1       1.357   9.238  22.752  0.00  0.00    +0.000 OA
ATOM     30  O   UNL     1       0.105  10.911  22.081  0.00  0.00    +0.000 OA
ENDBRANCH  26  28
ENDBRANCH  21  22
ENDBRANCH  20  21
ENDBRANCH  18  20
ENDBRANCH  17  18
ENDBRANCH   2  17
TORSDOF 13
ENDMDL
