MODEL 1
REMARK VINA RESULT:      -7.6      0.000      0.000
REMARK  Name = 
REMARK  8 active torsions:
REMARK  status: ('A' for Active; 'I' for Inactive)
REMARK    1  A    between atoms: C_1  and  C_2
REMARK    2  A    between atoms: C_2  and  S_3
REMARK    3  A    between atoms: S_3  and  C_4
REMARK    4  A    between atoms: C_7  and  C_8
REMARK    5  A    between atoms: C_11  and  N_12
REMARK    6  A    between atoms: N_12  and  C_13
REMARK    7  A    between atoms: C_13  and  C_14
REMARK    8  A    between atoms: C_19  and  O_20
REMARK                            x       y       z     vdW  Elec       q    Type
REMARK                         _______ _______ _______ _____ _____    ______ ____
ROOT
ATOM      1  C   UNL     1       1.470   8.191  20.068  0.00  0.00    +0.000 A 
ATOM      2  C   UNL     1       1.645   6.941  20.683  0.00  0.00    +0.000 A 
ATOM      3  C   UNL     1       2.289   5.885  20.027  0.00  0.00    +0.000 A 
ATOM      4  C   UNL     1       2.738   6.011  18.710  0.00  0.00    +0.000 A 
ATOM      5  C   UNL     1       2.579   7.255  18.095  0.00  0.00    +0.000 A 
ATOM      6  C   UNL     1       1.951   8.321  18.757  0.00  0.00    +0.000 A 
ENDROOT
BRANCH   1  10
ATOM      7  C   UNL     1      -0.404  11.481  22.160  0.00  0.00    +0.000 A 
ATOM      8  C   UNL     1      -0.289  10.227  22.761  0.00  0.00    +0.000 A 
ATOM      9  C   UNL     1       0.331   9.172  22.086  0.00  0.00    +0.000 A 
ATOM     10  C   UNL     1       0.835   9.323  20.781  0.00  0.00    +0.000 A 
ATOM     11  C   UNL     1       0.704  10.593  20.192  0.00  0.00    +0.000 A 
ATOM     12  C   UNL     1       0.096  11.657  20.871  0.00  0.00    +0.000 A 
BRANCH   7  13
ATOM     13  S   UNL     1      -1.237  12.836  22.962  0.00  0.00    +0.000 S 
BRANCH  13  15
ATOM     14  C   UNL     1      -3.747  12.394  23.943  0.00  0.00    +0.000 C 
ATOM     15  C   UNL     1      -2.974  12.391  22.635  0.00  0.00    +0.000 C 
ENDBRANCH  13  15
ENDBRANCH   7  13
ENDBRANCH   1  10
BRANCH   4  16
ATOM     16  N   UNL     1       3.445   4.949  18.135  0.00  0.00    +0.000 N 
ATOM     17  H   UNL     1       2.820   4.201  17.847  0.00  0.00    +0.000 HD
BRANCH  16  18
ATOM     18  C   UNL     1       4.400   5.257  17.067  0.00  0.00    +0.000 C 
BRANCH  18  19
ATOM     19  C   UNL     1       5.677   5.850  17.625  0.00  0.00    +0.000 A 
ATOM     20  C   UNL     1       6.185   7.070  17.148  0.00  0.00    +0.000 A 
ATOM     21  C   UNL     1       7.400   7.574  17.619  0.00  0.00    +0.000 A 
ATOM     22  C   UNL     1       8.135   6.855  18.559  0.00  0.00    +0.000 A 
ATOM     23  C   UNL     1       7.655   5.635  19.032  0.00  0.00    +0.000 A 
ATOM     24  C   UNL     1       6.438   5.140  18.561  0.00  0.00    +0.000 A 
BRANCH  24  25
ATOM     25  O   UNL     1       5.977   3.933  19.005  0.00  0.00    +0.000 OA
ATOM     26  H   UNL     1       6.595   3.239  18.724  0.00  0.00    +0.000 HD
ENDBRANCH  24  25
ENDBRANCH  18  19
ENDBRANCH  16  18
ENDBRANCH   4  16
TORSDOF 7
ENDMDL
MODEL 2
REMARK VINA RESULT:      -7.6      5.522      8.116
REMARK  Name = 
REMARK  8 active torsions:
REMARK  status: ('A' for Active; 'I' for Inactive)
REMARK    1  A    between atoms: C_1  and  C_2
REMARK    2  A    between atoms: C_2  and  S_3
REMARK    3  A    between atoms: S_3  and  C_4
REMARK    4  A    between atoms: C_7  and  C_8
REMARK    5  A    between atoms: C_11  and  N_12
REMARK    6  A    between atoms: N_12  and  C_13
REMARK    7  A    between atoms: C_13  and  C_14
REMARK    8  A    between atoms: C_19  and  O_20
REMARK                            x       y       z     vdW  Elec       q    Type
REMARK                         _______ _______ _______ _____ _____    ______ ____
ROOT
ATOM      1  C   UNL     1       7.829   7.795  18.136  0.00  0.00    +0.000 A 
ATOM      2  C   UNL     1       6.904   7.563  17.105  0.00  0.00    +0.000 A 
ATOM      3  C   UNL     1       6.335   6.300  16.900  0.00  0.00    +0.000 A 
ATOM      4  C   UNL     1       6.705   5.200  17.678  0.00  0.00    +0.000 A 
ATOM      5  C   UNL     1       7.615   5.424  18.714  0.00  0.00    +0.000 A 
ATOM      6  C   UNL     1       8.171   6.693  18.934  0.00  0.00    +0.000 A 
ENDROOT
BRANCH   1  10
ATOM      7  C   UNL     1       9.475  11.733  18.835  0.00  0.00    +0.000 A 
ATOM      8  C   UNL     1       8.702  11.475  17.703  0.00  0.00    +0.000 A 
ATOM      9  C   UNL     1       8.160  10.204  17.489  0.00  0.00    +0.000 A 
ATOM     10  C   UNL     1       8.390   9.142  18.384  0.00  0.00    +0.000 A 
ATOM     11  C   UNL     1       9.176   9.423  19.516  0.00  0.00    +0.000 A 
ATOM     12  C   UNL     1       9.708  10.699  19.741  0.00  0.00    +0.000 A 
BRANCH   7  13
ATOM     13  S   UNL     1      10.230  13.322  19.116  0.00  0.00    +0.000 S 
BRANCH  13  15
ATOM     14  C   UNL     1      11.635  13.705  16.806  0.00  0.00    +0.000 C 
ATOM     15  C   UNL     1      10.268  13.971  17.413  0.00  0.00    +0.000 C 
ENDBRANCH  13  15
ENDBRANCH   7  13
ENDBRANCH   1  10
BRANCH   4  16
ATOM     16  N   UNL     1       6.044   3.982  17.479  0.00  0.00    +0.000 N 
ATOM     17  H   UNL     1       5.833   3.527  18.364  0.00  0.00    +0.000 HD
BRANCH  16  18
ATOM     18  C   UNL     1       4.868   3.973  16.606  0.00  0.00    +0.000 C 
BRANCH  18  19
ATOM     19  C   UNL     1       3.600   3.718  17.394  0.00  0.00    +0.000 A 
ATOM     20  C   UNL     1       2.689   4.752  17.669  0.00  0.00    +0.000 A 
ATOM     21  C   UNL     1       1.558   4.521  18.455  0.00  0.00    +0.000 A 
ATOM     22  C   UNL     1       1.331   3.258  18.996  0.00  0.00    +0.000 A 
ATOM     23  C   UNL     1       2.232   2.224  18.749  0.00  0.00    +0.000 A 
ATOM     24  C   UNL     1       3.357   2.459  17.958  0.00  0.00    +0.000 A 
BRANCH  24  25
ATOM     25  O   UNL     1       4.253   1.453  17.733  0.00  0.00    +0.000 OA
ATOM     26  H   UNL     1       5.112   1.709  18.108  0.00  0.00    +0.000 HD
ENDBRANCH  24  25
ENDBRANCH  18  19
ENDBRANCH  16  18
ENDBRANCH   4  16
TORSDOF 7
ENDMDL
MODEL 3
REMARK VINA RESULT:      -7.5      0.388      1.514
REMARK  Name = 
REMARK  8 active torsions:
REMARK  status: ('A' for Active; 'I' for Inactive)
REMARK    1  A    between atoms: C_1  and  C_2
REMARK    2  A    between atoms: C_2  and  S_3
REMARK    3  A    between atoms: S_3  and  C_4
REMARK    4  A    between atoms: C_7  and  C_8
REMARK    5  A    between atoms: C_11  and  N_12
REMARK    6  A    between atoms: N_12  and  C_13
REMARK    7  A    between atoms: C_13  and  C_14
REMARK    8  A    between atoms: C_19  and  O_20
REMARK                            x       y       z     vdW  Elec       q    Type
REMARK                         _______ _______ _______ _____ _____    ______ ____
ROOT
ATOM      1  C   UNL     1       1.613   8.135  19.949  0.00  0.00    +0.000 A 
ATOM      2  C   UNL     1       2.070   8.283  18.629  0.00  0.00    +0.000 A 
ATOM      3  C   UNL     1       2.701   7.234  17.949  0.00  0.00    +0.000 A 
ATOM      4  C   UNL     1       2.953   6.010  18.573  0.00  0.00    +0.000 A 
ATOM      5  C   UNL     1       2.491   5.850  19.881  0.00  0.00    +0.000 A 
ATOM      6  C   UNL     1       1.841   6.893  20.558  0.00  0.00    +0.000 A 
ENDROOT
BRANCH   1  10
ATOM      7  C   UNL     1      -0.449  11.344  21.986  0.00  0.00    +0.000 A 
ATOM      8  C   UNL     1       0.120  11.548  20.729  0.00  0.00    +0.000 A 
ATOM      9  C   UNL     1       0.772  10.504  20.068  0.00  0.00    +0.000 A 
ATOM     10  C   UNL     1       0.901   9.228  20.648  0.00  0.00    +0.000 A 
ATOM     11  C   UNL     1       0.325   9.046  21.919  0.00  0.00    +0.000 A 
ATOM     12  C   UNL     1      -0.342  10.086  22.577  0.00  0.00    +0.000 A 
BRANCH   7  13
ATOM     13  S   UNL     1      -1.239  12.664  22.886  0.00  0.00    +0.000 S 
BRANCH  13  15
ATOM     14  C   UNL     1      -3.326  12.970  21.153  0.00  0.00    +0.000 C 
ATOM     15  C   UNL     1      -2.986  12.330  22.487  0.00  0.00    +0.000 C 
ENDBRANCH  13  15
ENDBRANCH   7  13
ENDBRANCH   1  10
BRANCH   4  16
ATOM     16  N   UNL     1       3.514   4.972  17.818  0.00  0.00    +0.000 N 
ATOM     17  H   UNL     1       2.794   4.400  17.384  0.00  0.00    +0.000 HD
BRANCH  16  18
ATOM     18  C   UNL     1       4.551   5.316  16.841  0.00  0.00    +0.000 C 
BRANCH  18  19
ATOM     19  C   UNL     1       5.785   5.870  17.522  0.00  0.00    +0.000 A 
ATOM     20  C   UNL     1       6.347   7.097  17.130  0.00  0.00    +0.000 A 
ATOM     21  C   UNL     1       7.525   7.565  17.716  0.00  0.00    +0.000 A 
ATOM     22  C   UNL     1       8.171   6.805  18.688  0.00  0.00    +0.000 A 
ATOM     23  C   UNL     1       7.638   5.578  19.078  0.00  0.00    +0.000 A 
ATOM     24  C   UNL     1       6.457   5.118  18.493  0.00  0.00    +0.000 A 
BRANCH  24  25
ATOM     25  O   UNL     1       5.945   3.905  18.857  0.00  0.00    +0.000 OA
ATOM     26  H   UNL     1       5.336   3.602  18.163  0.00  0.00    +0.000 HD
ENDBRANCH  24  25
ENDBRANCH  18  19
ENDBRANCH  16  18
ENDBRANCH   4  16
TORSDOF 7
ENDMDL
MODEL 4
REMARK VINA RESULT:      -7.5      5.607      8.245
REMARK  Name = 
REMARK  8 active torsions:
REMARK  status: ('A' for Active; 'I' for Inactive)
REMARK    1  A    between atoms: C_1  and  C_2
REMARK    2  A    between atoms: C_2  and  S_3
REMARK    3  A    between atoms: S_3  and  C_4
REMARK    4  A    between atoms: C_7  and  C_8
REMARK    5  A    between atoms: C_11  and  N_12
REMARK    6  A    between atoms: N_12  and  C_13
REMARK    7  A    between atoms: C_13  and  C_14
REMARK    8  A    between atoms: C_19  and  O_20
REMARK                            x       y       z     vdW  Elec       q    Type
REMARK                         _______ _______ _______ _____ _____    ______ ____
ROOT
ATOM      1  C   UNL     1       8.044   8.119  18.200  0.00  0.00    +0.000 A 
ATOM      2  C   UNL     1       7.210   7.774  17.124  0.00  0.00    +0.000 A 
ATOM      3  C   UNL     1       6.692   6.481  16.983  0.00  0.00    +0.000 A 
ATOM      4  C   UNL     1       7.026   5.460  17.877  0.00  0.00    +0.000 A 
ATOM      5  C   UNL     1       7.846   5.798  18.957  0.00  0.00    +0.000 A 
ATOM      6  C   UNL     1       8.350   7.098  19.112  0.00  0.00    +0.000 A 
ENDROOT
BRANCH   1  10
ATOM      7  C   UNL     1       9.515  12.150  18.740  0.00  0.00    +0.000 A 
ATOM      8  C   UNL     1       9.925  11.122  19.590  0.00  0.00    +0.000 A 
ATOM      9  C   UNL     1       9.458   9.818  19.402  0.00  0.00    +0.000 A 
ATOM     10  C   UNL     1       8.549   9.500  18.376  0.00  0.00    +0.000 A 
ATOM     11  C   UNL     1       8.145  10.551  17.534  0.00  0.00    +0.000 A 
ATOM     12  C   UNL     1       8.623  11.856  17.710  0.00  0.00    +0.000 A 
BRANCH   7  13
ATOM     13  S   UNL     1      10.043  13.835  18.980  0.00  0.00    +0.000 S 
BRANCH  13  15
ATOM     14  C   UNL     1      11.730  13.631  16.843  0.00  0.00    +0.000 C 
ATOM     15  C   UNL     1      11.753  13.734  18.358  0.00  0.00    +0.000 C 
ENDBRANCH  13  15
ENDBRANCH   7  13
ENDBRANCH   1  10
BRANCH   4  16
ATOM     16  N   UNL     1       6.415   4.210  17.732  0.00  0.00    +0.000 N 
ATOM     17  H   UNL     1       6.092   3.850  18.626  0.00  0.00    +0.000 HD
BRANCH  16  18
ATOM     18  C   UNL     1       5.367   4.072  16.717  0.00  0.00    +0.000 C 
BRANCH  18  19
ATOM     19  C   UNL     1       4.021   3.785  17.351  0.00  0.00    +0.000 A 
ATOM     20  C   UNL     1       3.557   2.469  17.516  0.00  0.00    +0.000 A 
ATOM     21  C   UNL     1       2.286   2.218  18.037  0.00  0.00    +0.000 A 
ATOM     22  C   UNL     1       1.451   3.278  18.382  0.00  0.00    +0.000 A 
ATOM     23  C   UNL     1       1.887   4.591  18.209  0.00  0.00    +0.000 A 
ATOM     24  C   UNL     1       3.161   4.835  17.693  0.00  0.00    +0.000 A 
BRANCH  24  25
ATOM     25  O   UNL     1       3.582   6.121  17.501  0.00  0.00    +0.000 OA
ATOM     26  H   UNL     1       3.545   6.592  18.349  0.00  0.00    +0.000 HD
ENDBRANCH  24  25
ENDBRANCH  18  19
ENDBRANCH  16  18
ENDBRANCH   4  16
TORSDOF 7
ENDMDL
MODEL 5
REMARK VINA RESULT:      -7.5      5.150      7.955
REMARK  Name = 
REMARK  8 active torsions:
REMARK  status: ('A' for Active; 'I' for Inactive)
REMARK    1  A    between atoms: C_1  and  C_2
REMARK    2  A    between atoms: C_2  and  S_3
REMARK    3  A    between atoms: S_3  and  C_4
REMARK    4  A    between atoms: C_7  and  C_8
REMARK    5  A    between atoms: C_11  and  N_12
REMARK    6  A    between atoms: N_12  and  C_13
REMARK    7  A    between atoms: C_13  and  C_14
REMARK    8  A    between atoms: C_19  and  O_20
REMARK                            x       y       z     vdW  Elec       q    Type
REMARK                         _______ _______ _______ _____ _____    ______ ____
ROOT
ATOM      1  C   UNL     1       7.947   8.067  18.152  0.00  0.00    +0.000 A 
ATOM      2  C   UNL     1       8.301   6.980  18.968  0.00  0.00    +0.000 A 
ATOM      3  C   UNL     1       7.823   5.689  18.717  0.00  0.00    +0.000 A 
ATOM      4  C   UNL     1       6.927   5.433  17.676  0.00  0.00    +0.000 A 
ATOM      5  C   UNL     1       6.579   6.506  16.851  0.00  0.00    +0.000 A 
ATOM      6  C   UNL     1       7.073   7.797  17.088  0.00  0.00    +0.000 A 
ENDROOT
BRANCH   1  10
ATOM      7  C   UNL     1       9.539  12.025  18.864  0.00  0.00    +0.000 A 
ATOM      8  C   UNL     1       9.782  10.987  19.763  0.00  0.00    +0.000 A 
ATOM      9  C   UNL     1       9.278   9.706  19.521  0.00  0.00    +0.000 A 
ATOM     10  C   UNL     1       8.494   9.423  18.387  0.00  0.00    +0.000 A 
ATOM     11  C   UNL     1       8.256  10.484  17.496  0.00  0.00    +0.000 A 
ATOM     12  C   UNL     1       8.773  11.766  17.728  0.00  0.00    +0.000 A 
BRANCH   7  13
ATOM     13  S   UNL     1      10.115  13.684  19.164  0.00  0.00    +0.000 S 
BRANCH  13  15
ATOM     14  C   UNL     1      12.241  14.353  17.586  0.00  0.00    +0.000 C 
ATOM     15  C   UNL     1      10.743  14.116  17.508  0.00  0.00    +0.000 C 
ENDBRANCH  13  15
ENDBRANCH   7  13
ENDBRANCH   1  10
BRANCH   4  16
ATOM     16  N   UNL     1       6.547   4.109  17.424  0.00  0.00    +0.000 N 
ATOM     17  H   UNL     1       6.699   3.520  18.239  0.00  0.00    +0.000 HD
BRANCH  16  18
ATOM     18  C   UNL     1       5.214   3.872  16.864  0.00  0.00    +0.000 C 
BRANCH  18  19
ATOM     19  C   UNL     1       4.133   4.096  17.900  0.00  0.00    +0.000 A 
ATOM     20  C   UNL     1       3.138   5.072  17.719  0.00  0.00    +0.000 A 
ATOM     21  C   UNL     1       2.187   5.319  18.712  0.00  0.00    +0.000 A 
ATOM     22  C   UNL     1       2.229   4.610  19.910  0.00  0.00    +0.000 A 
ATOM     23  C   UNL     1       3.219   3.650  20.115  0.00  0.00    +0.000 A 
ATOM     24  C   UNL     1       4.162   3.404  19.117  0.00  0.00    +0.000 A 
BRANCH  24  25
ATOM     25  O   UNL     1       5.147   2.480  19.324  0.00  0.00    +0.000 OA
ATOM     26  H   UNL     1       5.229   1.926  18.530  0.00  0.00    +0.000 HD
ENDBRANCH  24  25
ENDBRANCH  18  19
ENDBRANCH  16  18
ENDBRANCH   4  16
TORSDOF 7
ENDMDL
MODEL 6
REMARK VINA RESULT:      -7.4      5.086      7.664
REMARK  Name = 
REMARK  8 active torsions:
REMARK  status: ('A' for Active; 'I' for Inactive)
REMARK    1  A    between atoms: C_1  and  C_2
REMARK    2  A    between atoms: C_2  and  S_3
REMARK    3  A    between atoms: S_3  and  C_4
REMARK    4  A    between atoms: C_7  and  C_8
REMARK    5  A    between atoms: C_11  and  N_12
REMARK    6  A    between atoms: N_12  and  C_13
REMARK    7  A    between atoms: C_13  and  C_14
REMARK    8  A    between atoms: C_19  and  O_20
REMARK                            x       y       z     vdW  Elec       q    Type
REMARK                         _______ _______ _______ _____ _____    ______ ____
ROOT
ATOM      1  C   UNL     1       8.034   8.129  18.178  0.00  0.00    +0.000 A 
ATOM      2  C   UNL     1       8.331   7.038  19.011  0.00  0.00    +0.000 A 
ATOM      3  C   UNL     1       7.855   5.751  18.732  0.00  0.00    +0.000 A 
ATOM      4  C   UNL     1       7.018   5.505  17.640  0.00  0.00    +0.000 A 
ATOM      5  C   UNL     1       6.728   6.583  16.800  0.00  0.00    +0.000 A 
ATOM      6  C   UNL     1       7.220   7.869  17.067  0.00  0.00    +0.000 A 
ENDROOT
BRANCH   1  10
ATOM      7  C   UNL     1       9.637  12.074  18.937  0.00  0.00    +0.000 A 
ATOM      8  C   UNL     1       8.859  11.826  17.806  0.00  0.00    +0.000 A 
ATOM      9  C   UNL     1       8.331  10.553  17.573  0.00  0.00    +0.000 A 
ATOM     10  C   UNL     1       8.581   9.479  18.447  0.00  0.00    +0.000 A 
ATOM     11  C   UNL     1       9.372   9.748  19.578  0.00  0.00    +0.000 A 
ATOM     12  C   UNL     1       9.890  11.027  19.822  0.00  0.00    +0.000 A 
BRANCH   7  13
ATOM     13  S   UNL     1      10.375  13.667  19.241  0.00  0.00    +0.000 S 
BRANCH  13  15
ATOM     14  C   UNL     1       8.595  15.518  18.312  0.00  0.00    +0.000 C 
ATOM     15  C   UNL     1       9.711  14.609  17.828  0.00  0.00    +0.000 C 
ENDBRANCH  13  15
ENDBRANCH   7  13
ENDBRANCH   1  10
BRANCH   4  16
ATOM     16  N   UNL     1       6.640   4.186  17.365  0.00  0.00    +0.000 N 
ATOM     17  H   UNL     1       6.812   3.578  18.162  0.00  0.00    +0.000 HD
BRANCH  16  18
ATOM     18  C   UNL     1       5.297   3.954  16.826  0.00  0.00    +0.000 C 
BRANCH  18  19
ATOM     19  C   UNL     1       4.230   4.254  17.858  0.00  0.00    +0.000 A 
ATOM     20  C   UNL     1       3.278   5.267  17.651  0.00  0.00    +0.000 A 
ATOM     21  C   UNL     1       2.342   5.583  18.638  0.00  0.00    +0.000 A 
ATOM     22  C   UNL     1       2.357   4.907  19.855  0.00  0.00    +0.000 A 
ATOM     23  C   UNL     1       3.304   3.910  20.085  0.00  0.00    +0.000 A 
ATOM     24  C   UNL     1       4.233   3.595  19.093  0.00  0.00    +0.000 A 
BRANCH  24  25
ATOM     25  O   UNL     1       5.178   2.636  19.325  0.00  0.00    +0.000 OA
ATOM     26  H   UNL     1       4.733   1.827  19.627  0.00  0.00    +0.000 HD
ENDBRANCH  24  25
ENDBRANCH  18  19
ENDBRANCH  16  18
ENDBRANCH   4  16
TORSDOF 7
ENDMDL
MODEL 7
REMARK VINA RESULT:      -7.4      5.205      7.436
REMARK  Name = 
REMARK  8 active torsions:
REMARK  status: ('A' for Active; 'I' for Inactive)
REMARK    1  A    between atoms: C_1  and  C_2
REMARK    2  A    between atoms: C_2  and  S_3
REMARK    3  A    between atoms: S_3  and  C_4
REMARK    4  A    between atoms: C_7  and  C_8
REMARK    5  A    between atoms: C_11  and  N_12
REMARK    6  A    between atoms: N_12  and  C_13
REMARK    7  A    between atoms: C_13  and  C_14
REMARK    8  A    between atoms: C_19  and  O_20
REMARK                            x       y       z     vdW  Elec       q    Type
REMARK                         _______ _______ _______ _____ _____    ______ ____
ROOT
ATOM      1  C   UNL     1       8.126   8.288  18.286  0.00  0.00    +0.000 A 
ATOM      2  C   UNL     1       8.454   7.258  19.183  0.00  0.00    +0.000 A 
ATOM      3  C   UNL     1       8.001   5.947  18.991  0.00  0.00    +0.000 A 
ATOM      4  C   UNL     1       7.156   5.616  17.929  0.00  0.00    +0.000 A 
ATOM      5  C   UNL     1       6.835   6.632  17.025  0.00  0.00    +0.000 A 
ATOM      6  C   UNL     1       7.304   7.942  17.204  0.00  0.00    +0.000 A 
ENDROOT
BRANCH   1  10
ATOM      7  C   UNL     1       9.644  12.302  18.824  0.00  0.00    +0.000 A 
ATOM      8  C   UNL     1       9.971  11.290  19.726  0.00  0.00    +0.000 A 
ATOM      9  C   UNL     1       9.490   9.991  19.540  0.00  0.00    +0.000 A 
ATOM     10  C   UNL     1       8.647   9.663  18.462  0.00  0.00    +0.000 A 
ATOM     11  C   UNL     1       8.326  10.699  17.566  0.00  0.00    +0.000 A 
ATOM     12  C   UNL     1       8.819  11.998  17.742  0.00  0.00    +0.000 A 
BRANCH   7  13
ATOM     13  S   UNL     1      10.190  13.982  19.056  0.00  0.00    +0.000 S 
BRANCH  13  15
ATOM     14  C   UNL     1       7.929  14.348  20.542  0.00  0.00    +0.000 C 
ATOM     15  C   UNL     1       8.585  14.822  19.257  0.00  0.00    +0.000 C 
ENDBRANCH  13  15
ENDBRANCH   7  13
ENDBRANCH   1  10
BRANCH   4  16
ATOM     16  N   UNL     1       6.802   4.275  17.743  0.00  0.00    +0.000 N 
ATOM     17  H   UNL     1       6.832   3.760  18.619  0.00  0.00    +0.000 HD
BRANCH  16  18
ATOM     18  C   UNL     1       5.560   3.986  17.021  0.00  0.00    +0.000 C 
BRANCH  18  19
ATOM     19  C   UNL     1       4.349   4.190  17.908  0.00  0.00    +0.000 A 
ATOM     20  C   UNL     1       3.359   5.134  17.587  0.00  0.00    +0.000 A 
ATOM     21  C   UNL     1       2.282   5.364  18.446  0.00  0.00    +0.000 A 
ATOM     22  C   UNL     1       2.190   4.669  19.650  0.00  0.00    +0.000 A 
ATOM     23  C   UNL     1       3.171   3.741  19.994  0.00  0.00    +0.000 A 
ATOM     24  C   UNL     1       4.241   3.511  19.128  0.00  0.00    +0.000 A 
BRANCH  24  25
ATOM     25  O   UNL     1       5.216   2.619  19.473  0.00  0.00    +0.000 OA
ATOM     26  H   UNL     1       5.783   3.022  20.151  0.00  0.00    +0.000 HD
ENDBRANCH  24  25
ENDBRANCH  18  19
ENDBRANCH  16  18
ENDBRANCH   4  16
TORSDOF 7
ENDMDL
MODEL 8
REMARK VINA RESULT:      -7.4      4.950      7.579
REMARK  Name = 
REMARK  8 active torsions:
REMARK  status: ('A' for Active; 'I' for Inactive)
REMARK    1  A    between atoms: C_1  and  C_2
REMARK    2  A    between atoms: C_2  and  S_3
REMARK    3  A    between atoms: S_3  and  C_4
REMARK    4  A    between atoms: C_7  and  C_8
REMARK    5  A    between atoms: C_11  and  N_12
REMARK    6  A    between atoms: N_12  and  C_13
REMARK    7  A    between atoms: C_13  and  C_14
REMARK    8  A    between atoms: C_19  and  O_20
REMARK                            x       y       z     vdW  Elec       q    Type
REMARK                         _______ _______ _______ _____ _____    ______ ____
ROOT
ATOM      1  C   UNL     1       8.113   8.156  18.210  0.00  0.00    +0.000 A 
ATOM      2  C   UNL     1       7.302   7.831  17.111  0.00  0.00    +0.000 A 
ATOM      3  C   UNL     1       6.828   6.529  16.909  0.00  0.00    +0.000 A 
ATOM      4  C   UNL     1       7.186   5.483  17.764  0.00  0.00    +0.000 A 
ATOM      5  C   UNL     1       7.982   5.800  18.867  0.00  0.00    +0.000 A 
ATOM      6  C   UNL     1       8.442   7.108  19.082  0.00  0.00    +0.000 A 
ENDROOT
BRANCH   1  10
ATOM      7  C   UNL     1       9.444  12.206  18.938  0.00  0.00    +0.000 A 
ATOM      8  C   UNL     1       9.752  11.183  19.835  0.00  0.00    +0.000 A 
ATOM      9  C   UNL     1       9.332   9.873  19.587  0.00  0.00    +0.000 A 
ATOM     10  C   UNL     1       8.571   9.543  18.451  0.00  0.00    +0.000 A 
ATOM     11  C   UNL     1       8.267  10.590  17.562  0.00  0.00    +0.000 A 
ATOM     12  C   UNL     1       8.699  11.902  17.800  0.00  0.00    +0.000 A 
BRANCH   7  13
ATOM     13  S   UNL     1       9.912  13.898  19.244  0.00  0.00    +0.000 S 
BRANCH  13  15
ATOM     14  C   UNL     1       9.422  14.265  21.905  0.00  0.00    +0.000 C 
ATOM     15  C   UNL     1      10.504  13.767  20.964  0.00  0.00    +0.000 C 
ENDBRANCH  13  15
ENDBRANCH   7  13
ENDBRANCH   1  10
BRANCH   4  16
ATOM     16  N   UNL     1       6.616   4.221  17.558  0.00  0.00    +0.000 N 
ATOM     17  H   UNL     1       6.655   3.655  18.402  0.00  0.00    +0.000 HD
BRANCH  16  18
ATOM     18  C   UNL     1       5.279   4.159  16.963  0.00  0.00    +0.000 C 
BRANCH  18  19
ATOM     19  C   UNL     1       4.203   4.418  17.998  0.00  0.00    +0.000 A 
ATOM     20  C   UNL     1       3.267   5.453  17.836  0.00  0.00    +0.000 A 
ATOM     21  C   UNL     1       2.324   5.728  18.828  0.00  0.00    +0.000 A 
ATOM     22  C   UNL     1       2.315   4.987  20.007  0.00  0.00    +0.000 A 
ATOM     23  C   UNL     1       3.247   3.967  20.193  0.00  0.00    +0.000 A 
ATOM     24  C   UNL     1       4.183   3.693  19.195  0.00  0.00    +0.000 A 
BRANCH  24  25
ATOM     25  O   UNL     1       5.112   2.709  19.385  0.00  0.00    +0.000 OA
ATOM     26  H   UNL     1       5.869   3.083  19.865  0.00  0.00    +0.000 HD
ENDBRANCH  24  25
ENDBRANCH  18  19
ENDBRANCH  16  18
ENDBRANCH   4  16
TORSDOF 7
ENDMDL
MODEL 9
REMARK VINA RESULT:      -7.4      0.610      1.176
REMARK  Name = 
REMARK  8 active torsions:
REMARK  status: ('A' for Active; 'I' for Inactive)
REMARK    1  A    between atoms: C_1  and  C_2
REMARK    2  A    between atoms: C_2  and  S_3
REMARK    3  A    between atoms: S_3  and  C_4
REMARK    4  A    between atoms: C_7  and  C_8
REMARK    5  A    between atoms: C_11  and  N_12
REMARK    6  A    between atoms: N_12  and  C_13
REMARK    7  A    between atoms: C_13  and  C_14
REMARK    8  A    between atoms: C_19  and  O_20
REMARK                            x       y       z     vdW  Elec       q    Type
REMARK                         _______ _______ _______ _____ _____    ______ ____
ROOT
ATOM      1  C   UNL     1       1.494   8.097  19.962  0.00  0.00    +0.000 A 
ATOM      2  C   UNL     1       1.705   6.860  20.592  0.00  0.00    +0.000 A 
ATOM      3  C   UNL     1       2.379   5.815  19.949  0.00  0.00    +0.000 A 
ATOM      4  C   UNL     1       2.823   5.938  18.630  0.00  0.00    +0.000 A 
ATOM      5  C   UNL     1       2.629   7.169  18.000  0.00  0.00    +0.000 A 
ATOM      6  C   UNL     1       1.971   8.225  18.649  0.00  0.00    +0.000 A 
ENDROOT
BRANCH   1  10
ATOM      7  C   UNL     1      -0.435  11.389  21.999  0.00  0.00    +0.000 A 
ATOM      8  C   UNL     1       0.077  11.550  20.712  0.00  0.00    +0.000 A 
ATOM      9  C   UNL     1       0.687  10.479  20.052  0.00  0.00    +0.000 A 
ATOM     10  C   UNL     1       0.827   9.218  20.662  0.00  0.00    +0.000 A 
ATOM     11  C   UNL     1       0.308   9.079  21.962  0.00  0.00    +0.000 A 
ATOM     12  C   UNL     1      -0.317  10.146  22.620  0.00  0.00    +0.000 A 
BRANCH   7  13
ATOM     13  S   UNL     1      -1.168  12.743  22.895  0.00  0.00    +0.000 S 
BRANCH  13  15
ATOM     14  C   UNL     1      -3.465  12.786  21.419  0.00  0.00    +0.000 C 
ATOM     15  C   UNL     1      -2.145  13.522  21.568  0.00  0.00    +0.000 C 
ENDBRANCH  13  15
ENDBRANCH   7  13
ENDBRANCH   1  10
BRANCH   4  16
ATOM     16  N   UNL     1       3.561   4.889  18.067  0.00  0.00    +0.000 N 
ATOM     17  H   UNL     1       2.954   4.135  17.756  0.00  0.00    +0.000 HD
BRANCH  16  18
ATOM     18  C   UNL     1       4.541   5.218  17.029  0.00  0.00    +0.000 C 
BRANCH  18  19
ATOM     19  C   UNL     1       5.782   5.850  17.624  0.00  0.00    +0.000 A 
ATOM     20  C   UNL     1       6.300   7.056  17.122  0.00  0.00    +0.000 A 
ATOM     21  C   UNL     1       7.485   7.594  17.631  0.00  0.00    +0.000 A 
ATOM     22  C   UNL     1       8.180   6.923  18.635  0.00  0.00    +0.000 A 
ATOM     23  C   UNL     1       7.691   5.717  19.133  0.00  0.00    +0.000 A 
ATOM     24  C   UNL     1       6.504   5.188  18.624  0.00  0.00    +0.000 A 
BRANCH  24  25
ATOM     25  O   UNL     1       6.035   3.994  19.094  0.00  0.00    +0.000 OA
ATOM     26  H   UNL     1       5.394   3.638  18.457  0.00  0.00    +0.000 HD
ENDBRANCH  24  25
ENDBRANCH  18  19
ENDBRANCH  16  18
ENDBRANCH   4  16
TORSDOF 7
ENDMDL
