MODEL 1
REMARK VINA RESULT:      -8.2      0.000      0.000
REMARK  Name = 
REMARK  10 active torsions:
REMARK  status: ('A' for Active; 'I' for Inactive)
REMARK    1  A    between atoms: C_1  and  N_2
REMARK    2  A    between atoms: N_2  and  C_3
REMARK    3  A    between atoms: N_2  and  C_4
REMARK    4  A    between atoms: C_7  and  C_8
REMARK    5  A    between atoms: N_9  and  N_10
REMARK    6  A    between atoms: C_11  and  C_13
REMARK    7  A    between atoms: C_15  and  C_16
REMARK    8  A    between atoms: N_21  and  C_22
REMARK    9  A    between atoms: C_25  and  S_26
REMARK   10  A    between atoms: S_26  and  N_27
REMARK                            x       y       z     vdW  Elec       q    Type
REMARK                         _______ _______ _______ _____ _____    ______ ____
ROOT
ATOM      1  C   UNL     1       1.260   7.806  20.924  0.00  0.00    +0.000 A 
ATOM      2  C   UNL     1       0.618   6.551  20.814  0.00  0.00    +0.000 A 
ATOM      3  C   UNL     1       1.493   5.722  20.141  0.00  0.00    +0.000 A 
ATOM      4  N   UNL     1       2.575   6.534  19.803  0.00  0.00    +0.000 N 
ATOM      5  N   UNL     1       2.501   7.761  20.399  0.00  0.00    +0.000 NA
ENDROOT
BRANCH   4   6
ATOM      6  C   UNL     1       3.682   6.233  18.959  0.00  0.00    +0.000 A 
ATOM      7  C   UNL     1       3.728   6.724  17.645  0.00  0.00    +0.000 A 
ATOM      8  C   UNL     1       4.728   6.302  16.772  0.00  0.00    +0.000 A 
ATOM      9  C   UNL     1       5.710   5.423  17.231  0.00  0.00    +0.000 A 
ATOM     10  C   UNL     1       5.711   4.975  18.556  0.00  0.00    +0.000 A 
ATOM     11  C   UNL     1       4.706   5.399  19.431  0.00  0.00    +0.000 A 
BRANCH   9  12
ATOM     12  S   UNL     1       6.937   4.851  16.094  0.00  0.00    +0.000 S 
ATOM     13  O   UNL     1       6.380   3.781  15.292  0.00  0.00    +0.000 OA
ATOM     14  O   UNL     1       7.613   5.987  15.511  0.00  0.00    +0.000 OA
BRANCH  12  15
ATOM     15  N   UNL     1       8.037   4.130  17.132  0.00  0.00    +0.000 NA
ATOM     16  H   UNL     1       7.665   3.247  17.480  0.00  0.00    +0.000 HD
ATOM     17  H   UNL     1       8.948   4.050  16.681  0.00  0.00    +0.000 HD
ENDBRANCH  12  15
ENDBRANCH   9  12
ENDBRANCH   4   6
BRANCH   3  18
ATOM     18  C   UNL     1       1.357   4.307  19.882  0.00  0.00    +0.000 A 
ATOM     19  C   UNL     1       1.118   3.670  18.674  0.00  0.00    +0.000 A 
ATOM     20  C   UNL     1       0.939   2.263  18.812  0.00  0.00    +0.000 A 
ATOM     21  C   UNL     1       1.151   1.847  20.104  0.00  0.00    +0.000 A 
ATOM     22  S   UNL     1       1.508   3.153  21.148  0.00  0.00    +0.000 S 
ENDBRANCH   3  18
BRANCH   1  24
ATOM     23  N   UNL     1       1.256  10.184  21.090  0.00  0.00    +0.000 N 
ATOM     24  C   UNL     1       0.700   9.008  21.567  0.00  0.00    +0.000 C 
ATOM     25  O   UNL     1      -0.150   8.929  22.451  0.00  0.00    +0.000 OA
ATOM     26  H   UNL     1       1.938  10.116  20.339  0.00  0.00    +0.000 HD
BRANCH  23  28
ATOM     27  C   UNL     1      -0.176  11.983  21.115  0.00  0.00    +0.000 C 
ATOM     28  N   UNL     1       0.883  11.394  21.589  0.00  0.00    +0.000 NA
BRANCH  27  32
ATOM     29  C   UNL     1      -2.682  10.987  17.738  0.00  0.00    +0.000 A 
ATOM     30  C   UNL     1      -3.136  11.785  18.801  0.00  0.00    +0.000 A 
ATOM     31  C   UNL     1      -2.317  12.098  19.896  0.00  0.00    +0.000 A 
ATOM     32  C   UNL     1      -1.003  11.636  19.938  0.00  0.00    +0.000 A 
ATOM     33  C   UNL     1      -0.493  10.939  18.847  0.00  0.00    +0.000 A 
ATOM     34  C   UNL     1      -1.328  10.610  17.775  0.00  0.00    +0.000 A 
BRANCH  29  36
ATOM     35  C   UNL     1      -2.899   9.980  15.493  0.00  0.00    +0.000 C 
ATOM     36  N   UNL     1      -3.502  10.595  16.671  0.00  0.00    +0.000 N 
ATOM     37  C   UNL     1      -4.682  11.428  16.425  0.00  0.00    +0.000 C 
ENDBRANCH  29  36
ENDBRANCH  27  32
ENDBRANCH  23  28
ENDBRANCH   1  24
TORSDOF 8
ENDMDL
MODEL 2
REMARK VINA RESULT:      -8.0      0.728      1.217
REMARK  Name = 
REMARK  10 active torsions:
REMARK  status: ('A' for Active; 'I' for Inactive)
REMARK    1  A    between atoms: C_1  and  N_2
REMARK    2  A    between atoms: N_2  and  C_3
REMARK    3  A    between atoms: N_2  and  C_4
REMARK    4  A    between atoms: C_7  and  C_8
REMARK    5  A    between atoms: N_9  and  N_10
REMARK    6  A    between atoms: C_11  and  C_13
REMARK    7  A    between atoms: C_15  and  C_16
REMARK    8  A    between atoms: N_21  and  C_22
REMARK    9  A    between atoms: C_25  and  S_26
REMARK   10  A    between atoms: S_26  and  N_27
REMARK                            x       y       z     vdW  Elec       q    Type
REMARK                         _______ _______ _______ _____ _____    ______ ____
ROOT
ATOM      1  C   UNL     1       1.195   7.984  21.094  0.00  0.00    +0.000 A 
ATOM      2  C   UNL     1       0.674   6.677  21.225  0.00  0.00    +0.000 A 
ATOM      3  C   UNL     1       1.528   5.845  20.529  0.00  0.00    +0.000 A 
ATOM      4  N   UNL     1       2.466   6.693  19.943  0.00  0.00    +0.000 N 
ATOM      5  N   UNL     1       2.350   7.977  20.398  0.00  0.00    +0.000 NA
ENDROOT
BRANCH   4   6
ATOM      6  C   UNL     1       3.471   6.380  18.983  0.00  0.00    +0.000 A 
ATOM      7  C   UNL     1       4.464   5.435  19.278  0.00  0.00    +0.000 A 
ATOM      8  C   UNL     1       5.534   5.245  18.406  0.00  0.00    +0.000 A 
ATOM      9  C   UNL     1       5.583   5.971  17.215  0.00  0.00    +0.000 A 
ATOM     10  C   UNL     1       4.566   6.872  16.880  0.00  0.00    +0.000 A 
ATOM     11  C   UNL     1       3.493   7.061  17.757  0.00  0.00    +0.000 A 
BRANCH   9  12
ATOM     12  S   UNL     1       6.977   5.763  16.149  0.00  0.00    +0.000 S 
ATOM     13  O   UNL     1       6.512   5.403  14.825  0.00  0.00    +0.000 OA
ATOM     14  O   UNL     1       7.916   6.837  16.377  0.00  0.00    +0.000 OA
BRANCH  12  15
ATOM     15  N   UNL     1       7.676   4.381  16.787  0.00  0.00    +0.000 NA
ATOM     16  H   UNL     1       6.982   3.841  17.302  0.00  0.00    +0.000 HD
ATOM     17  H   UNL     1       8.155   3.857  16.055  0.00  0.00    +0.000 HD
ENDBRANCH  12  15
ENDBRANCH   9  12
ENDBRANCH   4   6
BRANCH   3  18
ATOM     18  C   UNL     1       1.501   4.401  20.457  0.00  0.00    +0.000 A 
ATOM     19  C   UNL     1       1.758   3.483  21.463  0.00  0.00    +0.000 A 
ATOM     20  C   UNL     1       1.741   2.134  21.003  0.00  0.00    +0.000 A 
ATOM     21  C   UNL     1       1.365   2.051  19.684  0.00  0.00    +0.000 A 
ATOM     22  S   UNL     1       1.092   3.591  18.996  0.00  0.00    +0.000 S 
ENDBRANCH   3  18
BRANCH   1  24
ATOM     23  N   UNL     1       1.201  10.366  21.192  0.00  0.00    +0.000 N 
ATOM     24  C   UNL     1       0.610   9.208  21.670  0.00  0.00    +0.000 C 
ATOM     25  O   UNL     1      -0.287   9.160  22.508  0.00  0.00    +0.000 OA
ATOM     26  H   UNL     1       1.923  10.273  20.482  0.00  0.00    +0.000 HD
BRANCH  23  28
ATOM     27  C   UNL     1      -0.239  12.158  21.112  0.00  0.00    +0.000 C 
ATOM     28  N   UNL     1       0.811  11.593  21.635  0.00  0.00    +0.000 NA
BRANCH  27  32
ATOM     29  C   UNL     1      -2.655  11.024  17.714  0.00  0.00    +0.000 A 
ATOM     30  C   UNL     1      -3.133  11.875  18.725  0.00  0.00    +0.000 A 
ATOM     31  C   UNL     1      -2.342  12.233  19.828  0.00  0.00    +0.000 A 
ATOM     32  C   UNL     1      -1.035  11.763  19.930  0.00  0.00    +0.000 A 
ATOM     33  C   UNL     1      -0.499  11.011  18.888  0.00  0.00    +0.000 A 
ATOM     34  C   UNL     1      -1.307  10.638  17.809  0.00  0.00    +0.000 A 
BRANCH  29  36
ATOM     35  C   UNL     1      -2.807  10.187  15.395  0.00  0.00    +0.000 C 
ATOM     36  N   UNL     1      -3.448  10.589  16.644  0.00  0.00    +0.000 N 
ATOM     37  C   UNL     1      -4.761  11.225  16.512  0.00  0.00    +0.000 C 
ENDBRANCH  29  36
ENDBRANCH  27  32
ENDBRANCH  23  28
ENDBRANCH   1  24
TORSDOF 8
ENDMDL
MODEL 3
REMARK VINA RESULT:      -8.0      0.846      1.276
REMARK  Name = 
REMARK  10 active torsions:
REMARK  status: ('A' for Active; 'I' for Inactive)
REMARK    1  A    between atoms: C_1  and  N_2
REMARK    2  A    between atoms: N_2  and  C_3
REMARK    3  A    between atoms: N_2  and  C_4
REMARK    4  A    between atoms: C_7  and  C_8
REMARK    5  A    between atoms: N_9  and  N_10
REMARK    6  A    between atoms: C_11  and  C_13
REMARK    7  A    between atoms: C_15  and  C_16
REMARK    8  A    between atoms: N_21  and  C_22
REMARK    9  A    between atoms: C_25  and  S_26
REMARK   10  A    between atoms: S_26  and  N_27
REMARK                            x       y       z     vdW  Elec       q    Type
REMARK                         _______ _______ _______ _____ _____    ______ ____
ROOT
ATOM      1  C   UNL     1       1.416   7.935  20.923  0.00  0.00    +0.000 A 
ATOM      2  C   UNL     1       0.748   6.690  20.884  0.00  0.00    +0.000 A 
ATOM      3  C   UNL     1       1.573   5.826  20.192  0.00  0.00    +0.000 A 
ATOM      4  N   UNL     1       2.649   6.607  19.774  0.00  0.00    +0.000 N 
ATOM      5  N   UNL     1       2.626   7.853  20.335  0.00  0.00    +0.000 NA
ENDROOT
BRANCH   4   6
ATOM      6  C   UNL     1       3.705   6.261  18.883  0.00  0.00    +0.000 A 
ATOM      7  C   UNL     1       3.754   6.809  17.593  0.00  0.00    +0.000 A 
ATOM      8  C   UNL     1       4.694   6.352  16.671  0.00  0.00    +0.000 A 
ATOM      9  C   UNL     1       5.615   5.377  17.059  0.00  0.00    +0.000 A 
ATOM     10  C   UNL     1       5.616   4.868  18.362  0.00  0.00    +0.000 A 
ATOM     11  C   UNL     1       4.672   5.327  19.286  0.00  0.00    +0.000 A 
BRANCH   9  12
ATOM     12  S   UNL     1       6.761   4.766  15.861  0.00  0.00    +0.000 S 
ATOM     13  O   UNL     1       6.662   5.565  14.657  0.00  0.00    +0.000 OA
ATOM     14  O   UNL     1       8.024   4.490  16.508  0.00  0.00    +0.000 OA
BRANCH  12  15
ATOM     15  N   UNL     1       6.087   3.278  15.489  0.00  0.00    +0.000 NA
ATOM     16  H   UNL     1       5.623   3.319  14.582  0.00  0.00    +0.000 HD
ATOM     17  H   UNL     1       6.790   2.543  15.565  0.00  0.00    +0.000 HD
ENDBRANCH  12  15
ENDBRANCH   9  12
ENDBRANCH   4   6
BRANCH   3  18
ATOM     18  C   UNL     1       1.399   4.406  19.983  0.00  0.00    +0.000 A 
ATOM     19  C   UNL     1       1.329   3.397  20.931  0.00  0.00    +0.000 A 
ATOM     20  C   UNL     1       1.259   2.096  20.355  0.00  0.00    +0.000 A 
ATOM     21  C   UNL     1       1.169   2.149  18.985  0.00  0.00    +0.000 A 
ATOM     22  S   UNL     1       1.227   3.754  18.401  0.00  0.00    +0.000 S 
ENDBRANCH   3  18
BRANCH   1  24
ATOM     23  N   UNL     1       1.309  10.317  20.896  0.00  0.00    +0.000 N 
ATOM     24  C   UNL     1       0.910   9.166  21.556  0.00  0.00    +0.000 C 
ATOM     25  O   UNL     1       0.232   9.132  22.580  0.00  0.00    +0.000 OA
ATOM     26  H   UNL     1       1.853  10.211  20.043  0.00  0.00    +0.000 HD
BRANCH  23  28
ATOM     27  C   UNL     1      -0.125  12.115  20.913  0.00  0.00    +0.000 C 
ATOM     28  N   UNL     1       0.962  11.551  21.354  0.00  0.00    +0.000 NA
BRANCH  27  32
ATOM     29  C   UNL     1      -2.644  10.912  17.615  0.00  0.00    +0.000 A 
ATOM     30  C   UNL     1      -1.305  10.501  17.726  0.00  0.00    +0.000 A 
ATOM     31  C   UNL     1      -0.493  10.902  18.798  0.00  0.00    +0.000 A 
ATOM     32  C   UNL     1      -1.017  11.709  19.805  0.00  0.00    +0.000 A 
ATOM     33  C   UNL     1      -2.369  12.038  19.779  0.00  0.00    +0.000 A 
ATOM     34  C   UNL     1      -3.160  11.656  18.690  0.00  0.00    +0.000 A 
BRANCH  29  36
ATOM     35  C   UNL     1      -2.833  10.100  15.290  0.00  0.00    +0.000 C 
ATOM     36  N   UNL     1      -3.452  10.591  16.517  0.00  0.00    +0.000 N 
ATOM     37  C   UNL     1      -4.656  11.407  16.341  0.00  0.00    +0.000 C 
ENDBRANCH  29  36
ENDBRANCH  27  32
ENDBRANCH  23  28
ENDBRANCH   1  24
TORSDOF 8
ENDMDL
MODEL 4
REMARK VINA RESULT:      -7.7      0.916      1.667
REMARK  Name = 
REMARK  10 active torsions:
REMARK  status: ('A' for Active; 'I' for Inactive)
REMARK    1  A    between atoms: C_1  and  N_2
REMARK    2  A    between atoms: N_2  and  C_3
REMARK    3  A    between atoms: N_2  and  C_4
REMARK    4  A    between atoms: C_7  and  C_8
REMARK    5  A    between atoms: N_9  and  N_10
REMARK    6  A    between atoms: C_11  and  C_13
REMARK    7  A    between atoms: C_15  and  C_16
REMARK    8  A    between atoms: N_21  and  C_22
REMARK    9  A    between atoms: C_25  and  S_26
REMARK   10  A    between atoms: S_26  and  N_27
REMARK                            x       y       z     vdW  Elec       q    Type
REMARK                         _______ _______ _______ _____ _____    ______ ____
ROOT
ATOM      1  C   UNL     1       1.211   8.043  21.073  0.00  0.00    +0.000 A 
ATOM      2  C   UNL     1       0.629   6.757  21.151  0.00  0.00    +0.000 A 
ATOM      3  C   UNL     1       1.483   5.902  20.483  0.00  0.00    +0.000 A 
ATOM      4  N   UNL     1       2.485   6.720  19.964  0.00  0.00    +0.000 N 
ATOM      5  N   UNL     1       2.399   7.999  20.439  0.00  0.00    +0.000 NA
ENDROOT
BRANCH   4   6
ATOM      6  C   UNL     1       3.526   6.382  19.052  0.00  0.00    +0.000 A 
ATOM      7  C   UNL     1       4.505   5.442  19.409  0.00  0.00    +0.000 A 
ATOM      8  C   UNL     1       5.607   5.229  18.584  0.00  0.00    +0.000 A 
ATOM      9  C   UNL     1       5.704   5.926  17.378  0.00  0.00    +0.000 A 
ATOM     10  C   UNL     1       4.702   6.819  16.982  0.00  0.00    +0.000 A 
ATOM     11  C   UNL     1       3.597   7.032  17.811  0.00  0.00    +0.000 A 
BRANCH   9  12
ATOM     12  S   UNL     1       7.137   5.688  16.371  0.00  0.00    +0.000 S 
ATOM     13  O   UNL     1       7.898   6.920  16.330  0.00  0.00    +0.000 OA
ATOM     14  O   UNL     1       7.739   4.415  16.693  0.00  0.00    +0.000 OA
BRANCH  12  15
ATOM     15  N   UNL     1       6.449   5.515  14.854  0.00  0.00    +0.000 NA
ATOM     16  H   UNL     1       6.823   6.216  14.216  0.00  0.00    +0.000 HD
ATOM     17  H   UNL     1       6.554   4.554  14.526  0.00  0.00    +0.000 HD
ENDBRANCH  12  15
ENDBRANCH   9  12
ENDBRANCH   4   6
BRANCH   3  18
ATOM     18  C   UNL     1       1.399   4.462  20.380  0.00  0.00    +0.000 A 
ATOM     19  C   UNL     1       1.521   3.517  21.387  0.00  0.00    +0.000 A 
ATOM     20  C   UNL     1       1.487   2.178  20.901  0.00  0.00    +0.000 A 
ATOM     21  C   UNL     1       1.233   2.133  19.551  0.00  0.00    +0.000 A 
ATOM     22  S   UNL     1       1.094   3.694  18.872  0.00  0.00    +0.000 S 
ENDBRANCH   3  18
BRANCH   1  24
ATOM     23  N   UNL     1       1.174  10.427  21.071  0.00  0.00    +0.000 N 
ATOM     24  C   UNL     1       0.648   9.280  21.644  0.00  0.00    +0.000 C 
ATOM     25  O   UNL     1      -0.179   9.253  22.552  0.00  0.00    +0.000 OA
ATOM     26  H   UNL     1       1.839  10.316  20.310  0.00  0.00    +0.000 HD
BRANCH  23  28
ATOM     27  C   UNL     1      -0.282  12.206  21.001  0.00  0.00    +0.000 C 
ATOM     28  N   UNL     1       0.795  11.665  21.492  0.00  0.00    +0.000 NA
BRANCH  27  32
ATOM     29  C   UNL     1      -2.661  10.905  17.635  0.00  0.00    +0.000 A 
ATOM     30  C   UNL     1      -1.328  10.498  17.816  0.00  0.00    +0.000 A 
ATOM     31  C   UNL     1      -0.562  10.930  18.909  0.00  0.00    +0.000 A 
ATOM     32  C   UNL     1      -1.127  11.767  19.868  0.00  0.00    +0.000 A 
ATOM     33  C   UNL     1      -2.477  12.095  19.775  0.00  0.00    +0.000 A 
ATOM     34  C   UNL     1      -3.221  11.681  18.665  0.00  0.00    +0.000 A 
BRANCH  29  36
ATOM     35  C   UNL     1      -2.746  10.109  15.299  0.00  0.00    +0.000 C 
ATOM     36  N   UNL     1      -3.423  10.552  16.514  0.00  0.00    +0.000 N 
ATOM     37  C   UNL     1      -4.666  11.301  16.316  0.00  0.00    +0.000 C 
ENDBRANCH  29  36
ENDBRANCH  27  32
ENDBRANCH  23  28
ENDBRANCH   1  24
TORSDOF 8
ENDMDL
MODEL 5
REMARK VINA RESULT:      -7.4      4.998      7.806
REMARK  Name = 
REMARK  10 active torsions:
REMARK  status: ('A' for Active; 'I' for Inactive)
REMARK    1  A    between atoms: C_1  and  N_2
REMARK    2  A    between atoms: N_2  and  C_3
REMARK    3  A    between atoms: N_2  and  C_4
REMARK    4  A    between atoms: C_7  and  C_8
REMARK    5  A    between atoms: N_9  and  N_10
REMARK    6  A    between atoms: C_11  and  C_13
REMARK    7  A    between atoms: C_15  and  C_16
REMARK    8  A    between atoms: N_21  and  C_22
REMARK    9  A    between atoms: C_25  and  S_26
REMARK   10  A    between atoms: S_26  and  N_27
REMARK                            x       y       z     vdW  Elec       q    Type
REMARK                         _______ _______ _______ _____ _____    ______ ____
ROOT
ATOM      1  C   UNL     1      -2.267  11.216  17.429  0.00  0.00    +0.000 A 
ATOM      2  C   UNL     1      -1.494  10.032  17.431  0.00  0.00    +0.000 A 
ATOM      3  C   UNL     1      -0.374  10.298  18.193  0.00  0.00    +0.000 A 
ATOM      4  N   UNL     1      -0.480  11.644  18.539  0.00  0.00    +0.000 N 
ATOM      5  N   UNL     1      -1.696  12.166  18.196  0.00  0.00    +0.000 NA
ENDROOT
BRANCH   4   6
ATOM      6  C   UNL     1       0.483  12.477  19.176  0.00  0.00    +0.000 A 
ATOM      7  C   UNL     1       1.682  12.802  18.525  0.00  0.00    +0.000 A 
ATOM      8  C   UNL     1       2.689  13.483  19.207  0.00  0.00    +0.000 A 
ATOM      9  C   UNL     1       2.474  13.878  20.528  0.00  0.00    +0.000 A 
ATOM     10  C   UNL     1       1.259  13.614  21.168  0.00  0.00    +0.000 A 
ATOM     11  C   UNL     1       0.250  12.930  20.483  0.00  0.00    +0.000 A 
BRANCH   9  12
ATOM     12  S   UNL     1       3.783  14.688  21.397  0.00  0.00    +0.000 S 
ATOM     13  O   UNL     1       3.324  15.986  21.845  0.00  0.00    +0.000 OA
ATOM     14  O   UNL     1       4.422  13.742  22.283  0.00  0.00    +0.000 OA
BRANCH  12  15
ATOM     15  N   UNL     1       4.870  14.980  20.157  0.00  0.00    +0.000 NA
ATOM     16  H   UNL     1       5.791  14.619  20.404  0.00  0.00    +0.000 HD
ATOM     17  H   UNL     1       4.504  14.623  19.274  0.00  0.00    +0.000 HD
ENDBRANCH  12  15
ENDBRANCH   9  12
ENDBRANCH   4   6
BRANCH   3  18
ATOM     18  C   UNL     1       0.665   9.378  18.598  0.00  0.00    +0.000 A 
ATOM     19  C   UNL     1       1.633   8.770  17.814  0.00  0.00    +0.000 A 
ATOM     20  C   UNL     1       2.430   7.837  18.538  0.00  0.00    +0.000 A 
ATOM     21  C   UNL     1       2.122   7.835  19.878  0.00  0.00    +0.000 A 
ATOM     22  S   UNL     1       0.844   8.908  20.243  0.00  0.00    +0.000 S 
ENDBRANCH   3  18
BRANCH   1  24
ATOM     23  N   UNL     1      -4.504  12.035  17.524  0.00  0.00    +0.000 N 
ATOM     24  C   UNL     1      -3.554  11.405  16.736  0.00  0.00    +0.000 C 
ATOM     25  O   UNL     1      -3.733  11.004  15.589  0.00  0.00    +0.000 OA
ATOM     26  H   UNL     1      -4.225  12.338  18.454  0.00  0.00    +0.000 HD
BRANCH  23  28
ATOM     27  C   UNL     1      -6.693  12.631  17.897  0.00  0.00    +0.000 C 
ATOM     28  N   UNL     1      -5.763  12.267  17.062  0.00  0.00    +0.000 NA
BRANCH  27  32
ATOM     29  C   UNL     1      -6.726  12.701  22.218  0.00  0.00    +0.000 A 
ATOM     30  C   UNL     1      -7.435  11.741  21.477  0.00  0.00    +0.000 A 
ATOM     31  C   UNL     1      -7.422  11.729  20.073  0.00  0.00    +0.000 A 
ATOM     32  C   UNL     1      -6.672  12.674  19.376  0.00  0.00    +0.000 A 
ATOM     33  C   UNL     1      -5.872  13.565  20.085  0.00  0.00    +0.000 A 
ATOM     34  C   UNL     1      -5.916  13.584  21.482  0.00  0.00    +0.000 A 
BRANCH  29  36
ATOM     35  C   UNL     1      -7.781  13.645  24.242  0.00  0.00    +0.000 C 
ATOM     36  N   UNL     1      -6.784  12.783  23.615  0.00  0.00    +0.000 N 
ATOM     37  C   UNL     1      -5.506  12.665  24.322  0.00  0.00    +0.000 C 
ENDBRANCH  29  36
ENDBRANCH  27  32
ENDBRANCH  23  28
ENDBRANCH   1  24
TORSDOF 8
ENDMDL
MODEL 6
REMARK VINA RESULT:      -7.3      4.232      6.342
REMARK  Name = 
REMARK  10 active torsions:
REMARK  status: ('A' for Active; 'I' for Inactive)
REMARK    1  A    between atoms: C_1  and  N_2
REMARK    2  A    between atoms: N_2  and  C_3
REMARK    3  A    between atoms: N_2  and  C_4
REMARK    4  A    between atoms: C_7  and  C_8
REMARK    5  A    between atoms: N_9  and  N_10
REMARK    6  A    between atoms: C_11  and  C_13
REMARK    7  A    between atoms: C_15  and  C_16
REMARK    8  A    between atoms: N_21  and  C_22
REMARK    9  A    between atoms: C_25  and  S_26
REMARK   10  A    between atoms: S_26  and  N_27
REMARK                            x       y       z     vdW  Elec       q    Type
REMARK                         _______ _______ _______ _____ _____    ______ ____
ROOT
ATOM      1  C   UNL     1       0.256  12.724  21.043  0.00  0.00    +0.000 A 
ATOM      2  C   UNL     1      -0.785  12.725  20.087  0.00  0.00    +0.000 A 
ATOM      3  C   UNL     1      -0.705  11.518  19.421  0.00  0.00    +0.000 A 
ATOM      4  N   UNL     1       0.424  10.889  19.943  0.00  0.00    +0.000 N 
ATOM      5  N   UNL     1       0.928  11.556  21.025  0.00  0.00    +0.000 NA
ENDROOT
BRANCH   4   6
ATOM      6  C   UNL     1       1.064   9.698  19.497  0.00  0.00    +0.000 A 
ATOM      7  C   UNL     1       1.160   8.584  20.344  0.00  0.00    +0.000 A 
ATOM      8  C   UNL     1       1.921   7.479  19.967  0.00  0.00    +0.000 A 
ATOM      9  C   UNL     1       2.547   7.473  18.719  0.00  0.00    +0.000 A 
ATOM     10  C   UNL     1       2.407   8.552  17.840  0.00  0.00    +0.000 A 
ATOM     11  C   UNL     1       1.644   9.660  18.220  0.00  0.00    +0.000 A 
BRANCH   9  12
ATOM     12  S   UNL     1       3.556   6.090  18.281  0.00  0.00    +0.000 S 
ATOM     13  O   UNL     1       4.274   6.393  17.060  0.00  0.00    +0.000 OA
ATOM     14  O   UNL     1       4.216   5.588  19.465  0.00  0.00    +0.000 OA
BRANCH  12  15
ATOM     15  N   UNL     1       2.397   4.953  17.870  0.00  0.00    +0.000 NA
ATOM     16  H   UNL     1       1.851   4.694  18.691  0.00  0.00    +0.000 HD
ATOM     17  H   UNL     1       1.838   5.287  17.084  0.00  0.00    +0.000 HD
ENDBRANCH  12  15
ENDBRANCH   9  12
ENDBRANCH   4   6
BRANCH   3  18
ATOM     18  C   UNL     1      -1.617  10.984  18.435  0.00  0.00    +0.000 A 
ATOM     19  C   UNL     1      -1.376  10.018  17.471  0.00  0.00    +0.000 A 
ATOM     20  C   UNL     1      -2.484   9.814  16.598  0.00  0.00    +0.000 A 
ATOM     21  C   UNL     1      -3.578  10.549  16.984  0.00  0.00    +0.000 A 
ATOM     22  S   UNL     1      -3.250  11.519  18.352  0.00  0.00    +0.000 S 
ENDBRANCH   3  18
BRANCH   1  24
ATOM     23  N   UNL     1      -0.526  14.186  22.756  0.00  0.00    +0.000 N 
ATOM     24  C   UNL     1       0.563  13.816  21.984  0.00  0.00    +0.000 C 
ATOM     25  O   UNL     1       1.675  14.336  22.027  0.00  0.00    +0.000 OA
ATOM     26  H   UNL     1      -1.390  13.662  22.640  0.00  0.00    +0.000 HD
BRANCH  23  28
ATOM     27  C   UNL     1      -1.510  15.582  24.296  0.00  0.00    +0.000 C 
ATOM     28  N   UNL     1      -0.440  15.199  23.661  0.00  0.00    +0.000 NA
BRANCH  27  32
ATOM     29  C   UNL     1      -5.614  14.393  23.653  0.00  0.00    +0.000 A 
ATOM     30  C   UNL     1      -4.682  13.559  24.292  0.00  0.00    +0.000 A 
ATOM     31  C   UNL     1      -3.349  13.952  24.491  0.00  0.00    +0.000 A 
ATOM     32  C   UNL     1      -2.925  15.211  24.073  0.00  0.00    +0.000 A 
ATOM     33  C   UNL     1      -3.853  16.100  23.540  0.00  0.00    +0.000 A 
ATOM     34  C   UNL     1      -5.171  15.685  23.321  0.00  0.00    +0.000 A 
BRANCH  29  36
ATOM     35  C   UNL     1      -7.358  12.646  23.722  0.00  0.00    +0.000 C 
ATOM     36  N   UNL     1      -6.928  13.996  23.372  0.00  0.00    +0.000 N 
ATOM     37  C   UNL     1      -7.531  14.566  22.164  0.00  0.00    +0.000 C 
ENDBRANCH  29  36
ENDBRANCH  27  32
ENDBRANCH  23  28
ENDBRANCH   1  24
TORSDOF 8
ENDMDL
MODEL 7
REMARK VINA RESULT:      -7.3      5.680      8.014
REMARK  Name = 
REMARK  10 active torsions:
REMARK  status: ('A' for Active; 'I' for Inactive)
REMARK    1  A    between atoms: C_1  and  N_2
REMARK    2  A    between atoms: N_2  and  C_3
REMARK    3  A    between atoms: N_2  and  C_4
REMARK    4  A    between atoms: C_7  and  C_8
REMARK    5  A    between atoms: N_9  and  N_10
REMARK    6  A    between atoms: C_11  and  C_13
REMARK    7  A    between atoms: C_15  and  C_16
REMARK    8  A    between atoms: N_21  and  C_22
REMARK    9  A    between atoms: C_25  and  S_26
REMARK   10  A    between atoms: S_26  and  N_27
REMARK                            x       y       z     vdW  Elec       q    Type
REMARK                         _______ _______ _______ _____ _____    ______ ____
ROOT
ATOM      1  C   UNL     1      -2.240  11.466  17.887  0.00  0.00    +0.000 A 
ATOM      2  C   UNL     1      -1.885  10.422  18.771  0.00  0.00    +0.000 A 
ATOM      3  C   UNL     1      -0.740  10.835  19.424  0.00  0.00    +0.000 A 
ATOM      4  N   UNL     1      -0.414  12.060  18.844  0.00  0.00    +0.000 N 
ATOM      5  N   UNL     1      -1.399  12.511  18.011  0.00  0.00    +0.000 NA
ENDROOT
BRANCH   4   6
ATOM      6  C   UNL     1       0.763  12.843  19.023  0.00  0.00    +0.000 A 
ATOM      7  C   UNL     1       0.759  13.943  19.893  0.00  0.00    +0.000 A 
ATOM      8  C   UNL     1       1.857  14.799  19.947  0.00  0.00    +0.000 A 
ATOM      9  C   UNL     1       2.978  14.524  19.163  0.00  0.00    +0.000 A 
ATOM     10  C   UNL     1       3.018  13.395  18.337  0.00  0.00    +0.000 A 
ATOM     11  C   UNL     1       1.915  12.538  18.283  0.00  0.00    +0.000 A 
BRANCH   9  12
ATOM     12  S   UNL     1       4.338  15.652  19.199  0.00  0.00    +0.000 S 
ATOM     13  O   UNL     1       5.480  15.041  18.550  0.00  0.00    +0.000 OA
ATOM     14  O   UNL     1       3.868  16.976  18.858  0.00  0.00    +0.000 OA
BRANCH  12  15
ATOM     15  N   UNL     1       4.695  15.686  20.835  0.00  0.00    +0.000 NA
ATOM     16  H   UNL     1       5.664  15.409  20.989  0.00  0.00    +0.000 HD
ATOM     17  H   UNL     1       4.452  16.594  21.231  0.00  0.00    +0.000 HD
ENDBRANCH  12  15
ENDBRANCH   9  12
ENDBRANCH   4   6
BRANCH   3  18
ATOM     18  C   UNL     1      -0.050  10.179  20.511  0.00  0.00    +0.000 A 
ATOM     19  C   UNL     1       0.921   9.192  20.445  0.00  0.00    +0.000 A 
ATOM     20  C   UNL     1       1.305   8.702  21.727  0.00  0.00    +0.000 A 
ATOM     21  C   UNL     1       0.698   9.402  22.742  0.00  0.00    +0.000 A 
ATOM     22  S   UNL     1      -0.368  10.598  22.148  0.00  0.00    +0.000 S 
ENDBRANCH   3  18
BRANCH   1  24
ATOM     23  N   UNL     1      -4.539  12.000  17.552  0.00  0.00    +0.000 N 
ATOM     24  C   UNL     1      -3.398  11.466  16.975  0.00  0.00    +0.000 C 
ATOM     25  O   UNL     1      -3.324  11.005  15.839  0.00  0.00    +0.000 OA
ATOM     26  H   UNL     1      -4.466  12.369  18.496  0.00  0.00    +0.000 HD
BRANCH  23  28
ATOM     27  C   UNL     1      -6.798  12.426  17.491  0.00  0.00    +0.000 C 
ATOM     28  N   UNL     1      -5.716  12.055  16.870  0.00  0.00    +0.000 NA
BRANCH  27  32
ATOM     29  C   UNL     1      -7.442  13.171  21.698  0.00  0.00    +0.000 A 
ATOM     30  C   UNL     1      -7.404  14.206  20.749  0.00  0.00    +0.000 A 
ATOM     31  C   UNL     1      -7.189  13.954  19.385  0.00  0.00    +0.000 A 
ATOM     32  C   UNL     1      -7.031  12.646  18.935  0.00  0.00    +0.000 A 
ATOM     33  C   UNL     1      -7.176  11.595  19.835  0.00  0.00    +0.000 A 
ATOM     34  C   UNL     1      -7.362  11.860  21.196  0.00  0.00    +0.000 A 
BRANCH  29  36
ATOM     35  C   UNL     1      -7.691  14.770  23.564  0.00  0.00    +0.000 C 
ATOM     36  N   UNL     1      -7.578  13.400  23.074  0.00  0.00    +0.000 N 
ATOM     37  C   UNL     1      -6.880  12.461  23.956  0.00  0.00    +0.000 C 
ENDBRANCH  29  36
ENDBRANCH  27  32
ENDBRANCH  23  28
ENDBRANCH   1  24
TORSDOF 8
ENDMDL
MODEL 8
REMARK VINA RESULT:      -7.2      4.227      7.177
REMARK  Name = 
REMARK  10 active torsions:
REMARK  status: ('A' for Active; 'I' for Inactive)
REMARK    1  A    between atoms: C_1  and  N_2
REMARK    2  A    between atoms: N_2  and  C_3
REMARK    3  A    between atoms: N_2  and  C_4
REMARK    4  A    between atoms: C_7  and  C_8
REMARK    5  A    between atoms: N_9  and  N_10
REMARK    6  A    between atoms: C_11  and  C_13
REMARK    7  A    between atoms: C_15  and  C_16
REMARK    8  A    between atoms: N_21  and  C_22
REMARK    9  A    between atoms: C_25  and  S_26
REMARK   10  A    between atoms: S_26  and  N_27
REMARK                            x       y       z     vdW  Elec       q    Type
REMARK                         _______ _______ _______ _____ _____    ______ ____
ROOT
ATOM      1  C   UNL     1      -2.140  11.589  18.637  0.00  0.00    +0.000 A 
ATOM      2  C   UNL     1      -1.267  12.613  19.070  0.00  0.00    +0.000 A 
ATOM      3  C   UNL     1      -0.014  12.043  19.168  0.00  0.00    +0.000 A 
ATOM      4  N   UNL     1      -0.205  10.693  18.878  0.00  0.00    +0.000 N 
ATOM      5  N   UNL     1      -1.467  10.442  18.418  0.00  0.00    +0.000 NA
ENDROOT
BRANCH   4   6
ATOM      6  C   UNL     1       0.721   9.618  18.998  0.00  0.00    +0.000 A 
ATOM      7  C   UNL     1       1.413   9.148  17.872  0.00  0.00    +0.000 A 
ATOM      8  C   UNL     1       2.197   7.999  17.959  0.00  0.00    +0.000 A 
ATOM      9  C   UNL     1       2.323   7.348  19.187  0.00  0.00    +0.000 A 
ATOM     10  C   UNL     1       1.688   7.843  20.331  0.00  0.00    +0.000 A 
ATOM     11  C   UNL     1       0.902   8.995  20.242  0.00  0.00    +0.000 A 
BRANCH   9  12
ATOM     12  S   UNL     1       3.273   5.859  19.267  0.00  0.00    +0.000 S 
ATOM     13  O   UNL     1       2.747   4.908  18.309  0.00  0.00    +0.000 OA
ATOM     14  O   UNL     1       4.677   6.193  19.339  0.00  0.00    +0.000 OA
BRANCH  12  15
ATOM     15  N   UNL     1       2.848   5.279  20.780  0.00  0.00    +0.000 NA
ATOM     16  H   UNL     1       3.255   5.864  21.508  0.00  0.00    +0.000 HD
ATOM     17  H   UNL     1       1.835   5.173  20.847  0.00  0.00    +0.000 HD
ENDBRANCH  12  15
ENDBRANCH   9  12
ENDBRANCH   4   6
BRANCH   3  18
ATOM     18  C   UNL     1       1.242  12.698  19.456  0.00  0.00    +0.000 A 
ATOM     19  C   UNL     1       1.784  13.019  20.690  0.00  0.00    +0.000 A 
ATOM     20  C   UNL     1       2.998  13.760  20.589  0.00  0.00    +0.000 A 
ATOM     21  C   UNL     1       3.406  13.893  19.284  0.00  0.00    +0.000 A 
ATOM     22  S   UNL     1       2.304  13.178  18.191  0.00  0.00    +0.000 S 
ENDBRANCH   3  18
BRANCH   1  24
ATOM     23  N   UNL     1      -4.213  12.534  19.340  0.00  0.00    +0.000 N 
ATOM     24  C   UNL     1      -3.587  11.733  18.398  0.00  0.00    +0.000 C 
ATOM     25  O   UNL     1      -4.146  11.161  17.466  0.00  0.00    +0.000 OA
ATOM     26  H   UNL     1      -3.634  12.968  20.054  0.00  0.00    +0.000 HD
BRANCH  23  28
ATOM     27  C   UNL     1      -6.106  13.517  20.200  0.00  0.00    +0.000 C 
ATOM     28  N   UNL     1      -5.555  12.756  19.298  0.00  0.00    +0.000 NA
BRANCH  27  32
ATOM     29  C   UNL     1      -4.388  15.242  23.769  0.00  0.00    +0.000 A 
ATOM     30  C   UNL     1      -4.714  16.016  22.643  0.00  0.00    +0.000 A 
ATOM     31  C   UNL     1      -5.266  15.445  21.486  0.00  0.00    +0.000 A 
ATOM     32  C   UNL     1      -5.530  14.078  21.442  0.00  0.00    +0.000 A 
ATOM     33  C   UNL     1      -5.322  13.308  22.582  0.00  0.00    +0.000 A 
ATOM     34  C   UNL     1      -4.745  13.884  23.718  0.00  0.00    +0.000 A 
BRANCH  29  36
ATOM     35  C   UNL     1      -3.571  17.216  25.010  0.00  0.00    +0.000 C 
ATOM     36  N   UNL     1      -3.764  15.773  24.906  0.00  0.00    +0.000 N 
ATOM     37  C   UNL     1      -2.722  14.944  25.518  0.00  0.00    +0.000 C 
ENDBRANCH  29  36
ENDBRANCH  27  32
ENDBRANCH  23  28
ENDBRANCH   1  24
TORSDOF 8
ENDMDL
MODEL 9
REMARK VINA RESULT:      -7.2      3.991      6.879
REMARK  Name = 
REMARK  10 active torsions:
REMARK  status: ('A' for Active; 'I' for Inactive)
REMARK    1  A    between atoms: C_1  and  N_2
REMARK    2  A    between atoms: N_2  and  C_3
REMARK    3  A    between atoms: N_2  and  C_4
REMARK    4  A    between atoms: C_7  and  C_8
REMARK    5  A    between atoms: N_9  and  N_10
REMARK    6  A    between atoms: C_11  and  C_13
REMARK    7  A    between atoms: C_15  and  C_16
REMARK    8  A    between atoms: N_21  and  C_22
REMARK    9  A    between atoms: C_25  and  S_26
REMARK   10  A    between atoms: S_26  and  N_27
REMARK                            x       y       z     vdW  Elec       q    Type
REMARK                         _______ _______ _______ _____ _____    ______ ____
ROOT
ATOM      1  C   UNL     1      -1.998  11.150  17.734  0.00  0.00    +0.000 A 
ATOM      2  C   UNL     1      -1.297  12.208  18.357  0.00  0.00    +0.000 A 
ATOM      3  C   UNL     1      -0.063  11.702  18.715  0.00  0.00    +0.000 A 
ATOM      4  N   UNL     1      -0.111  10.352  18.372  0.00  0.00    +0.000 N 
ATOM      5  N   UNL     1      -1.229  10.046  17.649  0.00  0.00    +0.000 NA
ENDROOT
BRANCH   4   6
ATOM      6  C   UNL     1       0.829   9.325  18.675  0.00  0.00    +0.000 A 
ATOM      7  C   UNL     1       1.647   8.792  17.668  0.00  0.00    +0.000 A 
ATOM      8  C   UNL     1       2.450   7.684  17.929  0.00  0.00    +0.000 A 
ATOM      9  C   UNL     1       2.466   7.138  19.213  0.00  0.00    +0.000 A 
ATOM     10  C   UNL     1       1.702   7.698  20.242  0.00  0.00    +0.000 A 
ATOM     11  C   UNL     1       0.896   8.810  19.978  0.00  0.00    +0.000 A 
BRANCH   9  12
ATOM     12  S   UNL     1       3.444   5.696  19.512  0.00  0.00    +0.000 S 
ATOM     13  O   UNL     1       4.843   6.025  19.335  0.00  0.00    +0.000 OA
ATOM     14  O   UNL     1       2.948   5.020  20.689  0.00  0.00    +0.000 OA
BRANCH  12  15
ATOM     15  N   UNL     1       3.023   4.736  18.205  0.00  0.00    +0.000 NA
ATOM     16  H   UNL     1       2.414   5.252  17.571  0.00  0.00    +0.000 HD
ATOM     17  H   UNL     1       3.860   4.355  17.763  0.00  0.00    +0.000 HD
ENDBRANCH  12  15
ENDBRANCH   9  12
ENDBRANCH   4   6
BRANCH   3  18
ATOM     18  C   UNL     1       1.063  12.416  19.273  0.00  0.00    +0.000 A 
ATOM     19  C   UNL     1       1.316  12.725  20.601  0.00  0.00    +0.000 A 
ATOM     20  C   UNL     1       2.476  13.534  20.772  0.00  0.00    +0.000 A 
ATOM     21  C   UNL     1       3.139  13.733  19.585  0.00  0.00    +0.000 A 
ATOM     22  S   UNL     1       2.334  12.996  18.270  0.00  0.00    +0.000 S 
ENDBRANCH   3  18
BRANCH   1  24
ATOM     23  N   UNL     1      -4.341  11.058  18.162  0.00  0.00    +0.000 N 
ATOM     24  C   UNL     1      -3.366  11.223  17.192  0.00  0.00    +0.000 C 
ATOM     25  O   UNL     1      -3.576  11.385  15.993  0.00  0.00    +0.000 OA
ATOM     26  H   UNL     1      -4.038  10.953  19.127  0.00  0.00    +0.000 HD
BRANCH  23  28
ATOM     27  C   UNL     1      -6.473  11.859  18.484  0.00  0.00    +0.000 C 
ATOM     28  N   UNL     1      -5.664  11.065  17.843  0.00  0.00    +0.000 NA
BRANCH  27  32
ATOM     29  C   UNL     1      -5.713  14.333  21.944  0.00  0.00    +0.000 A 
ATOM     30  C   UNL     1      -5.698  14.846  20.636  0.00  0.00    +0.000 A 
ATOM     31  C   UNL     1      -5.941  14.033  19.518  0.00  0.00    +0.000 A 
ATOM     32  C   UNL     1      -6.231  12.681  19.690  0.00  0.00    +0.000 A 
ATOM     33  C   UNL     1      -6.363  12.172  20.978  0.00  0.00    +0.000 A 
ATOM     34  C   UNL     1      -6.091  12.986  22.082  0.00  0.00    +0.000 A 
BRANCH  29  36
ATOM     35  C   UNL     1      -6.475  15.605  23.920  0.00  0.00    +0.000 C 
ATOM     36  N   UNL     1      -5.398  15.104  23.071  0.00  0.00    +0.000 N 
ATOM     37  C   UNL     1      -4.223  15.970  22.953  0.00  0.00    +0.000 C 
ENDBRANCH  29  36
ENDBRANCH  27  32
ENDBRANCH  23  28
ENDBRANCH   1  24
TORSDOF 8
ENDMDL
