MODEL 1
REMARK VINA RESULT:      -7.8      0.000      0.000
REMARK  Name = 
REMARK  8 active torsions:
REMARK  status: ('A' for Active; 'I' for Inactive)
REMARK    1  A    between atoms: C_1  and  C_2
REMARK    2  A    between atoms: C_2  and  C_3
REMARK    3  A    between atoms: C_2  and  O_4
REMARK    4  A    between atoms: O_4  and  C_5
REMARK    5  A    between atoms: C_7  and  N_8
REMARK    6  A    between atoms: CA_18  and  C_19
REMARK    7  A    between atoms: C_25  and  C_26
REMARK    8  A    between atoms: C_27  and  C_28
REMARK                            x       y       z     vdW  Elec       q    Type
REMARK                         _______ _______ _______ _____ _____    ______ ____
ROOT
ATOM      1  C   UNL     1      -0.805  10.386  18.964  0.00  0.00    +0.000 A 
ATOM      2  C   UNL     1      -1.585  11.330  19.649  0.00  0.00    +0.000 A 
ATOM      3  C   UNL     1      -1.101  11.902  20.804  0.00  0.00    +0.000 A 
ATOM      4  N   UNL     1      -0.066  11.355  21.471  0.00  0.00    +0.000 NA
ATOM      5  C   UNL     1       0.642  10.375  20.831  0.00  0.00    +0.000 A 
ATOM      6  C   UNL     1       0.368   9.905  19.549  0.00  0.00    +0.000 A 
ENDROOT
BRANCH   3   7
ATOM      7  N   UNL     1      -1.542  13.181  21.241  0.00  0.00    +0.000 N 
ATOM      8  C   UNL     1      -2.252  13.374  22.430  0.00  0.00    +0.000 C 
ATOM      9  O   UNL     1      -1.637  13.290  23.504  0.00  0.00    +0.000 OA
ATOM     10  N   UNL     1      -3.408  14.231  22.279  0.00  0.00    +0.000 N 
ATOM     11  C   UNL     1      -3.047  15.566  22.776  0.00  0.00    +0.000 C 
ATOM     12  C   UNL     1      -4.165  16.559  22.971  0.00  0.00    +0.000 C 
ATOM     13  C   UNL     1      -5.268  15.992  23.819  0.00  0.00    +0.000 C 
ATOM     14  C   UNL     1      -5.523  14.542  23.561  0.00  0.00    +0.000 A 
ATOM     15  C   UNL     1      -6.767  14.116  24.062  0.00  0.00    +0.000 A 
ATOM     16  C   UNL     1      -7.415  13.105  23.426  0.00  0.00    +0.000 A 
ATOM     17  CA  UNL     1      -6.750  12.490  22.397  0.00  0.00    +0.000 A 
ATOM     18  N   UNL     1      -5.405  12.719  22.049  0.00  0.00    +0.000 NA
ATOM     19  C   UNL     1      -4.760  13.755  22.677  0.00  0.00    +0.000 A 
ATOM     20  H   UNL     1      -0.753  13.812  21.138  0.00  0.00    +0.000 HD
BRANCH  17  21
ATOM     21  C   UNL     1      -7.649  11.700  21.468  0.00  0.00    +0.000 C 
ATOM     22  O   UNL     1      -7.916  10.507  21.655  0.00  0.00    +0.000 OA
ENDBRANCH  17  21
ENDBRANCH   3   7
BRANCH   6  23
ATOM     23  C   UNL     1       1.330   9.028  18.863  0.00  0.00    +0.000 C 
ATOM     24  C   UNL     1       2.101   8.214  18.434  0.00  0.00    +0.000 C 
BRANCH  24  25
ATOM     25  C   UNL     1       2.998   7.213  17.890  0.00  0.00    +0.000 A 
ATOM     26  C   UNL     1       4.149   7.554  17.173  0.00  0.00    +0.000 A 
ATOM     27  C   UNL     1       4.976   6.546  16.663  0.00  0.00    +0.000 A 
ATOM     28  C   UNL     1       4.628   5.225  16.880  0.00  0.00    +0.000 A 
ATOM     29  N   UNL     1       3.521   4.857  17.559  0.00  0.00    +0.000 NA
ATOM     30  C   UNL     1       2.736   5.861  18.042  0.00  0.00    +0.000 A 
ENDBRANCH  24  25
ENDBRANCH   6  23
BRANCH   1  31
ATOM     31  O   UNL     1      -1.113   9.971  17.692  0.00  0.00    +0.000 OA
BRANCH  31  33
ATOM     32  C   UNL     1      -2.450  10.260  15.632  0.00  0.00    +0.000 C 
ATOM     33  C   UNL     1      -2.396  10.362  17.163  0.00  0.00    +0.000 C 
ATOM     34  C   UNL     1      -3.428   9.416  17.765  0.00  0.00    +0.000 C 
ENDBRANCH  31  33
ENDBRANCH   1  31
TORSDOF 6
ENDMDL
MODEL 2
REMARK VINA RESULT:      -7.8      3.924      6.100
REMARK  Name = 
REMARK  8 active torsions:
REMARK  status: ('A' for Active; 'I' for Inactive)
REMARK    1  A    between atoms: C_1  and  C_2
REMARK    2  A    between atoms: C_2  and  C_3
REMARK    3  A    between atoms: C_2  and  O_4
REMARK    4  A    between atoms: O_4  and  C_5
REMARK    5  A    between atoms: C_7  and  N_8
REMARK    6  A    between atoms: CA_18  and  C_19
REMARK    7  A    between atoms: C_25  and  C_26
REMARK    8  A    between atoms: C_27  and  C_28
REMARK                            x       y       z     vdW  Elec       q    Type
REMARK                         _______ _______ _______ _____ _____    ______ ____
ROOT
ATOM      1  C   UNL     1       0.147   9.910  20.311  0.00  0.00    +0.000 A 
ATOM      2  C   UNL     1      -0.341  11.186  20.628  0.00  0.00    +0.000 A 
ATOM      3  C   UNL     1      -0.399  11.583  21.946  0.00  0.00    +0.000 A 
ATOM      4  N   UNL     1      -0.318  10.684  22.947  0.00  0.00    +0.000 NA
ATOM      5  C   UNL     1       0.079   9.417  22.619  0.00  0.00    +0.000 A 
ATOM      6  C   UNL     1       0.399   8.993  21.332  0.00  0.00    +0.000 A 
ENDROOT
BRANCH   3   7
ATOM      7  N   UNL     1      -0.361  12.955  22.311  0.00  0.00    +0.000 N 
ATOM      8  C   UNL     1      -0.628  13.989  21.408  0.00  0.00    +0.000 C 
ATOM      9  O   UNL     1      -1.803  14.180  21.062  0.00  0.00    +0.000 OA
ATOM     10  N   UNL     1       0.334  15.068  21.464  0.00  0.00    +0.000 N 
ATOM     11  C   UNL     1      -0.263  16.164  22.239  0.00  0.00    +0.000 C 
ATOM     12  C   UNL     1       0.441  17.498  22.209  0.00  0.00    +0.000 C 
ATOM     13  C   UNL     1       0.691  17.960  20.801  0.00  0.00    +0.000 C 
ATOM     14  C   UNL     1       1.048  16.847  19.871  0.00  0.00    +0.000 A 
ATOM     15  C   UNL     1       1.636  17.309  18.679  0.00  0.00    +0.000 A 
ATOM     16  C   UNL     1       2.541  16.516  18.047  0.00  0.00    +0.000 A 
ATOM     17  CA  UNL     1       2.734  15.260  18.563  0.00  0.00    +0.000 A 
ATOM     18  N   UNL     1       1.967  14.679  19.591  0.00  0.00    +0.000 NA
ATOM     19  C   UNL     1       1.071  15.489  20.242  0.00  0.00    +0.000 A 
ATOM     20  H   UNL     1      -0.877  13.041  23.182  0.00  0.00    +0.000 HD
BRANCH  17  21
ATOM     21  C   UNL     1       4.021  14.600  18.112  0.00  0.00    +0.000 C 
ATOM     22  O   UNL     1       5.012  15.249  17.754  0.00  0.00    +0.000 OA
ENDBRANCH  17  21
ENDBRANCH   3   7
BRANCH   6  23
ATOM     23  C   UNL     1       1.043   7.686  21.124  0.00  0.00    +0.000 C 
ATOM     24  C   UNL     1       1.448   6.590  20.848  0.00  0.00    +0.000 C 
BRANCH  24  25
ATOM     25  C   UNL     1       1.968   5.286  20.485  0.00  0.00    +0.000 A 
ATOM     26  C   UNL     1       1.246   4.109  20.702  0.00  0.00    +0.000 A 
ATOM     27  C   UNL     1       1.800   2.875  20.339  0.00  0.00    +0.000 A 
ATOM     28  C   UNL     1       3.062   2.852  19.773  0.00  0.00    +0.000 A 
ATOM     29  N   UNL     1       3.792   3.965  19.557  0.00  0.00    +0.000 NA
ATOM     30  C   UNL     1       3.227   5.151  19.922  0.00  0.00    +0.000 A 
ENDBRANCH  24  25
ENDBRANCH   6  23
BRANCH   1  31
ATOM     31  O   UNL     1       0.464   9.552  19.023  0.00  0.00    +0.000 OA
BRANCH  31  33
ATOM     32  C   UNL     1       2.254   8.523  17.664  0.00  0.00    +0.000 C 
ATOM     33  C   UNL     1       1.849   9.640  18.635  0.00  0.00    +0.000 C 
ATOM     34  C   UNL     1       2.030  10.990  17.950  0.00  0.00    +0.000 C 
ENDBRANCH  31  33
ENDBRANCH   1  31
TORSDOF 6
ENDMDL
MODEL 3
REMARK VINA RESULT:      -7.6      1.995      2.914
REMARK  Name = 
REMARK  8 active torsions:
REMARK  status: ('A' for Active; 'I' for Inactive)
REMARK    1  A    between atoms: C_1  and  C_2
REMARK    2  A    between atoms: C_2  and  C_3
REMARK    3  A    between atoms: C_2  and  O_4
REMARK    4  A    between atoms: O_4  and  C_5
REMARK    5  A    between atoms: C_7  and  N_8
REMARK    6  A    between atoms: CA_18  and  C_19
REMARK    7  A    between atoms: C_25  and  C_26
REMARK    8  A    between atoms: C_27  and  C_28
REMARK                            x       y       z     vdW  Elec       q    Type
REMARK                         _______ _______ _______ _____ _____    ______ ____
ROOT
ATOM      1  C   UNL     1       0.446  12.402  19.352  0.00  0.00    +0.000 A 
ATOM      2  C   UNL     1      -0.375  13.512  19.603  0.00  0.00    +0.000 A 
ATOM      3  C   UNL     1      -1.727  13.327  19.796  0.00  0.00    +0.000 A 
ATOM      4  N   UNL     1      -2.331  12.179  19.431  0.00  0.00    +0.000 NA
ATOM      5  C   UNL     1      -1.524  11.124  19.105  0.00  0.00    +0.000 A 
ATOM      6  C   UNL     1      -0.132  11.152  19.123  0.00  0.00    +0.000 A 
ENDROOT
BRANCH   3   7
ATOM      7  N   UNL     1      -2.502  14.249  20.550  0.00  0.00    +0.000 N 
ATOM      8  C   UNL     1      -3.091  13.922  21.775  0.00  0.00    +0.000 C 
ATOM      9  O   UNL     1      -2.361  13.820  22.772  0.00  0.00    +0.000 OA
ATOM     10  N   UNL     1      -4.472  14.342  21.882  0.00  0.00    +0.000 N 
ATOM     11  C   UNL     1      -4.505  15.577  22.679  0.00  0.00    +0.000 C 
ATOM     12  C   UNL     1      -5.854  16.059  23.153  0.00  0.00    +0.000 C 
ATOM     13  C   UNL     1      -6.606  14.978  23.875  0.00  0.00    +0.000 C 
ATOM     14  C   UNL     1      -6.407  13.623  23.279  0.00  0.00    +0.000 A 
ATOM     15  C   UNL     1      -7.378  12.699  23.705  0.00  0.00    +0.000 A 
ATOM     16  C   UNL     1      -7.736  11.692  22.864  0.00  0.00    +0.000 A 
ATOM     17  CA  UNL     1      -7.033  11.584  21.691  0.00  0.00    +0.000 A 
ATOM     18  N   UNL     1      -5.885  12.329  21.361  0.00  0.00    +0.000 NA
ATOM     19  C   UNL     1      -5.540  13.358  22.201  0.00  0.00    +0.000 A 
ATOM     20  H   UNL     1      -1.977  15.118  20.577  0.00  0.00    +0.000 HD
BRANCH  17  21
ATOM     21  C   UNL     1      -7.732  10.758  20.630  0.00  0.00    +0.000 C 
ATOM     22  O   UNL     1      -7.917   9.541  20.748  0.00  0.00    +0.000 OA
ENDBRANCH  17  21
ENDBRANCH   3   7
BRANCH   6  23
ATOM     23  C   UNL     1       0.634   9.903  18.993  0.00  0.00    +0.000 C 
ATOM     24  C   UNL     1       1.390   8.979  18.863  0.00  0.00    +0.000 C 
BRANCH  24  25
ATOM     25  C   UNL     1       2.304   7.860  18.753  0.00  0.00    +0.000 A 
ATOM     26  C   UNL     1       3.168   7.706  17.665  0.00  0.00    +0.000 A 
ATOM     27  C   UNL     1       4.025   6.600  17.607  0.00  0.00    +0.000 A 
ATOM     28  C   UNL     1       3.993   5.677  18.636  0.00  0.00    +0.000 A 
ATOM     29  N   UNL     1       3.168   5.787  19.698  0.00  0.00    +0.000 NA
ATOM     30  C   UNL     1       2.344   6.873  19.726  0.00  0.00    +0.000 A 
ENDBRANCH  24  25
ENDBRANCH   6  23
BRANCH   1  31
ATOM     31  O   UNL     1       1.816  12.485  19.401  0.00  0.00    +0.000 OA
BRANCH  31  33
ATOM     32  C   UNL     1       3.202  14.046  20.725  0.00  0.00    +0.000 C 
ATOM     33  C   UNL     1       2.397  13.803  19.440  0.00  0.00    +0.000 C 
ATOM     34  C   UNL     1       3.327  13.911  18.238  0.00  0.00    +0.000 C 
ENDBRANCH  31  33
ENDBRANCH   1  31
TORSDOF 6
ENDMDL
MODEL 4
REMARK VINA RESULT:      -7.5      3.211     11.385
REMARK  Name = 
REMARK  8 active torsions:
REMARK  status: ('A' for Active; 'I' for Inactive)
REMARK    1  A    between atoms: C_1  and  C_2
REMARK    2  A    between atoms: C_2  and  C_3
REMARK    3  A    between atoms: C_2  and  O_4
REMARK    4  A    between atoms: O_4  and  C_5
REMARK    5  A    between atoms: C_7  and  N_8
REMARK    6  A    between atoms: CA_18  and  C_19
REMARK    7  A    between atoms: C_25  and  C_26
REMARK    8  A    between atoms: C_27  and  C_28
REMARK                            x       y       z     vdW  Elec       q    Type
REMARK                         _______ _______ _______ _____ _____    ______ ____
ROOT
ATOM      1  C   UNL     1       0.722  10.490  20.019  0.00  0.00    +0.000 A 
ATOM      2  C   UNL     1       1.366   9.477  19.293  0.00  0.00    +0.000 A 
ATOM      3  C   UNL     1       1.555   8.241  19.873  0.00  0.00    +0.000 A 
ATOM      4  N   UNL     1       1.443   8.073  21.205  0.00  0.00    +0.000 NA
ATOM      5  C   UNL     1       0.891   9.100  21.921  0.00  0.00    +0.000 A 
ATOM      6  C   UNL     1       0.441  10.298  21.373  0.00  0.00    +0.000 A 
ENDROOT
BRANCH   3   7
ATOM      7  N   UNL     1       1.690   7.065  19.087  0.00  0.00    +0.000 N 
ATOM      8  C   UNL     1       2.656   6.087  19.344  0.00  0.00    +0.000 C 
ATOM      9  O   UNL     1       2.494   5.340  20.320  0.00  0.00    +0.000 OA
ATOM     10  N   UNL     1       3.365   5.651  18.160  0.00  0.00    +0.000 N 
ATOM     11  C   UNL     1       2.789   4.366  17.739  0.00  0.00    +0.000 C 
ATOM     12  C   UNL     1       3.537   3.583  16.688  0.00  0.00    +0.000 C 
ATOM     13  C   UNL     1       4.978   3.386  17.065  0.00  0.00    +0.000 C 
ATOM     14  C   UNL     1       5.574   4.571  17.753  0.00  0.00    +0.000 A 
ATOM     15  C   UNL     1       6.981   4.535  17.765  0.00  0.00    +0.000 A 
ATOM     16  C   UNL     1       7.663   5.711  17.758  0.00  0.00    +0.000 A 
ATOM     17  CA  UNL     1       6.922   6.860  17.855  0.00  0.00    +0.000 A 
ATOM     18  N   UNL     1       5.539   6.914  18.110  0.00  0.00    +0.000 NA
ATOM     19  C   UNL     1       4.849   5.728  18.095  0.00  0.00    +0.000 A 
ATOM     20  H   UNL     1       0.756   6.684  18.969  0.00  0.00    +0.000 HD
BRANCH  17  21
ATOM     21  C   UNL     1       7.661   8.107  17.413  0.00  0.00    +0.000 C 
ATOM     22  O   UNL     1       8.323   8.801  18.194  0.00  0.00    +0.000 OA
ENDBRANCH  17  21
ENDBRANCH   3   7
BRANCH   6  23
ATOM     23  C   UNL     1      -0.354  11.231  22.188  0.00  0.00    +0.000 C 
ATOM     24  C   UNL     1      -1.004  12.088  22.721  0.00  0.00    +0.000 C 
BRANCH  24  25
ATOM     25  C   UNL     1      -1.828  13.098  23.356  0.00  0.00    +0.000 A 
ATOM     26  C   UNL     1      -1.307  14.320  23.791  0.00  0.00    +0.000 A 
ATOM     27  C   UNL     1      -2.148  15.256  24.406  0.00  0.00    +0.000 A 
ATOM     28  C   UNL     1      -3.485  14.944  24.571  0.00  0.00    +0.000 A 
ATOM     29  N   UNL     1      -4.022  13.773  24.172  0.00  0.00    +0.000 NA
ATOM     30  C   UNL     1      -3.179  12.881  23.578  0.00  0.00    +0.000 A 
ENDBRANCH  24  25
ENDBRANCH   6  23
BRANCH   1  31
ATOM     31  O   UNL     1       0.282  11.646  19.422  0.00  0.00    +0.000 OA
BRANCH  31  33
ATOM     32  C   UNL     1       2.098  12.902  18.309  0.00  0.00    +0.000 C 
ATOM     33  C   UNL     1       1.141  12.800  19.505  0.00  0.00    +0.000 C 
ATOM     34  C   UNL     1       0.234  14.024  19.526  0.00  0.00    +0.000 C 
ENDBRANCH  31  33
ENDBRANCH   1  31
TORSDOF 6
ENDMDL
MODEL 5
REMARK VINA RESULT:      -7.5      3.000      5.538
REMARK  Name = 
REMARK  8 active torsions:
REMARK  status: ('A' for Active; 'I' for Inactive)
REMARK    1  A    between atoms: C_1  and  C_2
REMARK    2  A    between atoms: C_2  and  C_3
REMARK    3  A    between atoms: C_2  and  O_4
REMARK    4  A    between atoms: O_4  and  C_5
REMARK    5  A    between atoms: C_7  and  N_8
REMARK    6  A    between atoms: CA_18  and  C_19
REMARK    7  A    between atoms: C_25  and  C_26
REMARK    8  A    between atoms: C_27  and  C_28
REMARK                            x       y       z     vdW  Elec       q    Type
REMARK                         _______ _______ _______ _____ _____    ______ ____
ROOT
ATOM      1  C   UNL     1       2.246   7.398  19.667  0.00  0.00    +0.000 A 
ATOM      2  C   UNL     1       1.371   8.191  20.425  0.00  0.00    +0.000 A 
ATOM      3  C   UNL     1       0.882   9.363  19.891  0.00  0.00    +0.000 A 
ATOM      4  N   UNL     1       1.461   9.934  18.817  0.00  0.00    +0.000 NA
ATOM      5  C   UNL     1       2.376   9.186  18.129  0.00  0.00    +0.000 A 
ATOM      6  C   UNL     1       2.751   7.886  18.460  0.00  0.00    +0.000 A 
ENDROOT
BRANCH   3   7
ATOM      7  N   UNL     1      -0.351   9.919  20.327  0.00  0.00    +0.000 N 
ATOM      8  C   UNL     1      -0.892  11.088  19.781  0.00  0.00    +0.000 C 
ATOM      9  O   UNL     1      -1.390  11.033  18.647  0.00  0.00    +0.000 OA
ATOM     10  N   UNL     1      -1.366  12.024  20.776  0.00  0.00    +0.000 N 
ATOM     11  C   UNL     1      -2.828  11.893  20.858  0.00  0.00    +0.000 C 
ATOM     12  C   UNL     1      -3.577  12.950  21.631  0.00  0.00    +0.000 C 
ATOM     13  C   UNL     1      -3.225  14.333  21.161  0.00  0.00    +0.000 C 
ATOM     14  C   UNL     1      -1.784  14.482  20.795  0.00  0.00    +0.000 A 
ATOM     15  C   UNL     1      -1.383  15.828  20.721  0.00  0.00    +0.000 A 
ATOM     16  C   UNL     1      -0.094  16.143  21.018  0.00  0.00    +0.000 A 
ATOM     17  CA  UNL     1       0.760  15.099  21.262  0.00  0.00    +0.000 A 
ATOM     18  N   UNL     1       0.449  13.738  21.082  0.00  0.00    +0.000 NA
ATOM     19  C   UNL     1      -0.857  13.422  20.804  0.00  0.00    +0.000 A 
ATOM     20  H   UNL     1      -1.017   9.153  20.373  0.00  0.00    +0.000 HD
BRANCH  17  21
ATOM     21  C   UNL     1       2.025  15.497  21.995  0.00  0.00    +0.000 C 
ATOM     22  O   UNL     1       2.842  14.667  22.413  0.00  0.00    +0.000 OA
ENDBRANCH  17  21
ENDBRANCH   3   7
BRANCH   6  23
ATOM     23  C   UNL     1       3.555   7.087  17.522  0.00  0.00    +0.000 C 
ATOM     24  C   UNL     1       4.342   6.495  16.836  0.00  0.00    +0.000 C 
BRANCH  24  25
ATOM     25  C   UNL     1       5.286   5.741  16.033  0.00  0.00    +0.000 A 
ATOM     26  C   UNL     1       4.889   4.676  15.219  0.00  0.00    +0.000 A 
ATOM     27  C   UNL     1       5.845   3.979  14.470  0.00  0.00    +0.000 A 
ATOM     28  C   UNL     1       7.171   4.362  14.559  0.00  0.00    +0.000 A 
ATOM     29  N   UNL     1       7.592   5.378  15.340  0.00  0.00    +0.000 NA
ATOM     30  C   UNL     1       6.639   6.037  16.058  0.00  0.00    +0.000 A 
ENDBRANCH  24  25
ENDBRANCH   6  23
BRANCH   1  31
ATOM     31  O   UNL     1       2.566   6.114  20.033  0.00  0.00    +0.000 OA
BRANCH  31  33
ATOM     32  C   UNL     1       1.704   4.289  18.606  0.00  0.00    +0.000 C 
ATOM     33  C   UNL     1       1.540   5.111  19.892  0.00  0.00    +0.000 C 
ATOM     34  C   UNL     1       1.658   4.187  21.098  0.00  0.00    +0.000 C 
ENDBRANCH  31  33
ENDBRANCH   1  31
TORSDOF 6
ENDMDL
MODEL 6
REMARK VINA RESULT:      -7.5      3.821      6.075
REMARK  Name = 
REMARK  8 active torsions:
REMARK  status: ('A' for Active; 'I' for Inactive)
REMARK    1  A    between atoms: C_1  and  C_2
REMARK    2  A    between atoms: C_2  and  C_3
REMARK    3  A    between atoms: C_2  and  O_4
REMARK    4  A    between atoms: O_4  and  C_5
REMARK    5  A    between atoms: C_7  and  N_8
REMARK    6  A    between atoms: CA_18  and  C_19
REMARK    7  A    between atoms: C_25  and  C_26
REMARK    8  A    between atoms: C_27  and  C_28
REMARK                            x       y       z     vdW  Elec       q    Type
REMARK                         _______ _______ _______ _____ _____    ______ ____
ROOT
ATOM      1  C   UNL     1      -0.206  10.095  20.598  0.00  0.00    +0.000 A 
ATOM      2  C   UNL     1      -0.803  11.299  21.000  0.00  0.00    +0.000 A 
ATOM      3  C   UNL     1      -0.843  11.624  22.338  0.00  0.00    +0.000 A 
ATOM      4  N   UNL     1      -0.632  10.691  23.287  0.00  0.00    +0.000 NA
ATOM      5  C   UNL     1      -0.128   9.486  22.878  0.00  0.00    +0.000 A 
ATOM      6  C   UNL     1       0.177   9.159  21.560  0.00  0.00    +0.000 A 
ENDROOT
BRANCH   3   7
ATOM      7  N   UNL     1      -0.923  12.974  22.773  0.00  0.00    +0.000 N 
ATOM      8  C   UNL     1      -0.522  14.053  21.977  0.00  0.00    +0.000 C 
ATOM      9  O   UNL     1      -1.244  14.383  21.025  0.00  0.00    +0.000 OA
ATOM     10  N   UNL     1       0.299  15.014  22.680  0.00  0.00    +0.000 N 
ATOM     11  C   UNL     1      -0.555  16.152  23.047  0.00  0.00    +0.000 C 
ATOM     12  C   UNL     1       0.130  17.399  23.551  0.00  0.00    +0.000 C 
ATOM     13  C   UNL     1       1.201  17.863  22.604  0.00  0.00    +0.000 C 
ATOM     14  C   UNL     1       1.954  16.739  21.970  0.00  0.00    +0.000 A 
ATOM     15  C   UNL     1       3.167  17.159  21.395  0.00  0.00    +0.000 A 
ATOM     16  C   UNL     1       4.206  16.284  21.349  0.00  0.00    +0.000 A 
ATOM     17  CA  UNL     1       3.958  15.003  21.770  0.00  0.00    +0.000 A 
ATOM     18  N   UNL     1       2.689  14.488  22.098  0.00  0.00    +0.000 NA
ATOM     19  C   UNL     1       1.647  15.378  22.165  0.00  0.00    +0.000 A 
ATOM     20  H   UNL     1      -1.846  13.097  23.178  0.00  0.00    +0.000 HD
BRANCH  17  21
ATOM     21  C   UNL     1       5.206  14.213  22.107  0.00  0.00    +0.000 C 
ATOM     22  O   UNL     1       5.223  13.332  22.975  0.00  0.00    +0.000 OA
ENDBRANCH  17  21
ENDBRANCH   3   7
BRANCH   6  23
ATOM     23  C   UNL     1       0.936   7.934  21.260  0.00  0.00    +0.000 C 
ATOM     24  C   UNL     1       1.448   6.912  20.893  0.00  0.00    +0.000 C 
BRANCH  24  25
ATOM     25  C   UNL     1       2.098   5.703  20.428  0.00  0.00    +0.000 A 
ATOM     26  C   UNL     1       1.664   4.429  20.807  0.00  0.00    +0.000 A 
ATOM     27  C   UNL     1       2.335   3.295  20.333  0.00  0.00    +0.000 A 
ATOM     28  C   UNL     1       3.424   3.466  19.496  0.00  0.00    +0.000 A 
ATOM     29  N   UNL     1       3.877   4.678  19.116  0.00  0.00    +0.000 NA
ATOM     30  C   UNL     1       3.204   5.763  19.595  0.00  0.00    +0.000 A 
ENDBRANCH  24  25
ENDBRANCH   6  23
BRANCH   1  31
ATOM     31  O   UNL     1       0.089   9.832  19.283  0.00  0.00    +0.000 OA
BRANCH  31  33
ATOM     32  C   UNL     1       1.832   8.999  17.741  0.00  0.00    +0.000 C 
ATOM     33  C   UNL     1       1.465   9.965  18.876  0.00  0.00    +0.000 C 
ATOM     34  C   UNL     1       1.646  11.398  18.392  0.00  0.00    +0.000 C 
ENDBRANCH  31  33
ENDBRANCH   1  31
TORSDOF 6
ENDMDL
MODEL 7
REMARK VINA RESULT:      -7.5      2.111      2.404
REMARK  Name = 
REMARK  8 active torsions:
REMARK  status: ('A' for Active; 'I' for Inactive)
REMARK    1  A    between atoms: C_1  and  C_2
REMARK    2  A    between atoms: C_2  and  C_3
REMARK    3  A    between atoms: C_2  and  O_4
REMARK    4  A    between atoms: O_4  and  C_5
REMARK    5  A    between atoms: C_7  and  N_8
REMARK    6  A    between atoms: CA_18  and  C_19
REMARK    7  A    between atoms: C_25  and  C_26
REMARK    8  A    between atoms: C_27  and  C_28
REMARK                            x       y       z     vdW  Elec       q    Type
REMARK                         _______ _______ _______ _____ _____    ______ ____
ROOT
ATOM      1  C   UNL     1      -0.807  11.012  20.680  0.00  0.00    +0.000 A 
ATOM      2  C   UNL     1      -1.598  11.949  21.361  0.00  0.00    +0.000 A 
ATOM      3  C   UNL     1      -1.606  11.959  22.739  0.00  0.00    +0.000 A 
ATOM      4  N   UNL     1      -1.147  10.907  23.444  0.00  0.00    +0.000 NA
ATOM      5  C   UNL     1      -0.447   9.952  22.760  0.00  0.00    +0.000 A 
ATOM      6  C   UNL     1      -0.178   9.990  21.394  0.00  0.00    +0.000 A 
ENDROOT
BRANCH   3   7
ATOM      7  N   UNL     1      -1.919  13.136  23.471  0.00  0.00    +0.000 N 
ATOM      8  C   UNL     1      -3.209  13.427  23.925  0.00  0.00    +0.000 C 
ATOM      9  O   UNL     1      -3.653  12.786  24.889  0.00  0.00    +0.000 OA
ATOM     10  N   UNL     1      -3.620  14.789  23.662  0.00  0.00    +0.000 N 
ATOM     11  C   UNL     1      -3.469  15.553  24.908  0.00  0.00    +0.000 C 
ATOM     12  C   UNL     1      -4.086  16.929  24.956  0.00  0.00    +0.000 C 
ATOM     13  C   UNL     1      -5.535  16.900  24.561  0.00  0.00    +0.000 C 
ATOM     14  C   UNL     1      -5.826  15.933  23.460  0.00  0.00    +0.000 A 
ATOM     15  C   UNL     1      -7.070  16.171  22.849  0.00  0.00    +0.000 A 
ATOM     16  C   UNL     1      -7.223  15.856  21.535  0.00  0.00    +0.000 A 
ATOM     17  CA  UNL     1      -6.175  15.217  20.923  0.00  0.00    +0.000 A 
ATOM     18  N   UNL     1      -5.028  14.731  21.579  0.00  0.00    +0.000 NA
ATOM     19  C   UNL     1      -4.866  15.069  22.899  0.00  0.00    +0.000 A 
ATOM     20  H   UNL     1      -1.210  13.228  24.192  0.00  0.00    +0.000 HD
BRANCH  17  21
ATOM     21  C   UNL     1      -6.214  15.282  19.410  0.00  0.00    +0.000 C 
ATOM     22  O   UNL     1      -6.958  16.056  18.795  0.00  0.00    +0.000 OA
ENDBRANCH  17  21
ENDBRANCH   3   7
BRANCH   6  23
ATOM     23  C   UNL     1       0.784   9.046  20.804  0.00  0.00    +0.000 C 
ATOM     24  C   UNL     1       1.457   8.252  20.205  0.00  0.00    +0.000 C 
BRANCH  24  25
ATOM     25  C   UNL     1       2.292   7.328  19.463  0.00  0.00    +0.000 A 
ATOM     26  C   UNL     1       2.859   7.661  18.230  0.00  0.00    +0.000 A 
ATOM     27  C   UNL     1       3.652   6.726  17.553  0.00  0.00    +0.000 A 
ATOM     28  C   UNL     1       3.853   5.483  18.126  0.00  0.00    +0.000 A 
ATOM     29  N   UNL     1       3.316   5.123  19.310  0.00  0.00    +0.000 NA
ATOM     30  C   UNL     1       2.548   6.053  19.944  0.00  0.00    +0.000 A 
ENDBRANCH  24  25
ENDBRANCH   6  23
BRANCH   1  31
ATOM     31  O   UNL     1      -0.560  11.110  19.333  0.00  0.00    +0.000 OA
BRANCH  31  33
ATOM     32  C   UNL     1      -2.310  11.646  17.670  0.00  0.00    +0.000 C 
ATOM     33  C   UNL     1      -1.547  10.558  18.439  0.00  0.00    +0.000 C 
ATOM     34  C   UNL     1      -0.800   9.673  17.449  0.00  0.00    +0.000 C 
ENDBRANCH  31  33
ENDBRANCH   1  31
TORSDOF 6
ENDMDL
MODEL 8
REMARK VINA RESULT:      -7.5      2.955     11.337
REMARK  Name = 
REMARK  8 active torsions:
REMARK  status: ('A' for Active; 'I' for Inactive)
REMARK    1  A    between atoms: C_1  and  C_2
REMARK    2  A    between atoms: C_2  and  C_3
REMARK    3  A    between atoms: C_2  and  O_4
REMARK    4  A    between atoms: O_4  and  C_5
REMARK    5  A    between atoms: C_7  and  N_8
REMARK    6  A    between atoms: CA_18  and  C_19
REMARK    7  A    between atoms: C_25  and  C_26
REMARK    8  A    between atoms: C_27  and  C_28
REMARK                            x       y       z     vdW  Elec       q    Type
REMARK                         _______ _______ _______ _____ _____    ______ ____
ROOT
ATOM      1  C   UNL     1       0.932  10.407  20.113  0.00  0.00    +0.000 A 
ATOM      2  C   UNL     1       1.551   9.346  19.434  0.00  0.00    +0.000 A 
ATOM      3  C   UNL     1       1.567   8.092  20.005  0.00  0.00    +0.000 A 
ATOM      4  N   UNL     1       1.306   7.921  21.316  0.00  0.00    +0.000 NA
ATOM      5  C   UNL     1       0.779   8.986  21.993  0.00  0.00    +0.000 A 
ATOM      6  C   UNL     1       0.498  10.227  21.427  0.00  0.00    +0.000 A 
ENDROOT
BRANCH   3   7
ATOM      7  N   UNL     1       1.673   6.917  19.213  0.00  0.00    +0.000 N 
ATOM      8  C   UNL     1       2.656   5.945  19.424  0.00  0.00    +0.000 C 
ATOM      9  O   UNL     1       2.543   5.196  20.405  0.00  0.00    +0.000 OA
ATOM     10  N   UNL     1       3.312   5.515  18.209  0.00  0.00    +0.000 N 
ATOM     11  C   UNL     1       2.726   4.226  17.813  0.00  0.00    +0.000 C 
ATOM     12  C   UNL     1       3.429   3.449  16.728  0.00  0.00    +0.000 C 
ATOM     13  C   UNL     1       4.887   3.260  17.039  0.00  0.00    +0.000 C 
ATOM     14  C   UNL     1       5.507   4.448  17.700  0.00  0.00    +0.000 A 
ATOM     15  C   UNL     1       6.913   4.421  17.647  0.00  0.00    +0.000 A 
ATOM     16  C   UNL     1       7.587   5.601  17.610  0.00  0.00    +0.000 A 
ATOM     17  CA  UNL     1       6.845   6.746  17.742  0.00  0.00    +0.000 A 
ATOM     18  N   UNL     1       5.474   6.791  18.061  0.00  0.00    +0.000 NA
ATOM     19  C   UNL     1       4.791   5.601  18.075  0.00  0.00    +0.000 A 
ATOM     20  H   UNL     1       0.737   6.531  19.137  0.00  0.00    +0.000 HD
BRANCH  17  21
ATOM     21  C   UNL     1       7.554   7.998  17.268  0.00  0.00    +0.000 C 
ATOM     22  O   UNL     1       7.943   8.877  18.045  0.00  0.00    +0.000 OA
ENDBRANCH  17  21
ENDBRANCH   3   7
BRANCH   6  23
ATOM     23  C   UNL     1      -0.286  11.220  22.178  0.00  0.00    +0.000 C 
ATOM     24  C   UNL     1      -1.051  11.990  22.692  0.00  0.00    +0.000 C 
BRANCH  24  25
ATOM     25  C   UNL     1      -1.982  12.888  23.346  0.00  0.00    +0.000 A 
ATOM     26  C   UNL     1      -3.295  12.514  23.646  0.00  0.00    +0.000 A 
ATOM     27  C   UNL     1      -4.153  13.426  24.271  0.00  0.00    +0.000 A 
ATOM     28  C   UNL     1      -3.677  14.689  24.577  0.00  0.00    +0.000 A 
ATOM     29  N   UNL     1      -2.420  15.089  24.296  0.00  0.00    +0.000 NA
ATOM     30  C   UNL     1      -1.608  14.179  23.685  0.00  0.00    +0.000 A 
ENDBRANCH  24  25
ENDBRANCH   6  23
BRANCH   1  31
ATOM     31  O   UNL     1       0.662  11.605  19.498  0.00  0.00    +0.000 OA
BRANCH  31  33
ATOM     32  C   UNL     1      -1.541  10.750  18.773  0.00  0.00    +0.000 C 
ATOM     33  C   UNL     1      -0.307  11.597  18.432  0.00  0.00    +0.000 C 
ATOM     34  C   UNL     1      -0.736  13.044  18.215  0.00  0.00    +0.000 C 
ENDBRANCH  31  33
ENDBRANCH   1  31
TORSDOF 6
ENDMDL
MODEL 9
REMARK VINA RESULT:      -7.4      2.456      3.575
REMARK  Name = 
REMARK  8 active torsions:
REMARK  status: ('A' for Active; 'I' for Inactive)
REMARK    1  A    between atoms: C_1  and  C_2
REMARK    2  A    between atoms: C_2  and  C_3
REMARK    3  A    between atoms: C_2  and  O_4
REMARK    4  A    between atoms: O_4  and  C_5
REMARK    5  A    between atoms: C_7  and  N_8
REMARK    6  A    between atoms: CA_18  and  C_19
REMARK    7  A    between atoms: C_25  and  C_26
REMARK    8  A    between atoms: C_27  and  C_28
REMARK                            x       y       z     vdW  Elec       q    Type
REMARK                         _______ _______ _______ _____ _____    ______ ____
ROOT
ATOM      1  C   UNL     1       0.763  10.649  19.625  0.00  0.00    +0.000 A 
ATOM      2  C   UNL     1       0.401  11.984  19.862  0.00  0.00    +0.000 A 
ATOM      3  C   UNL     1       0.874  12.974  19.028  0.00  0.00    +0.000 A 
ATOM      4  N   UNL     1       1.919  12.752  18.208  0.00  0.00    +0.000 NA
ATOM      5  C   UNL     1       2.322  11.456  18.045  0.00  0.00    +0.000 A 
ATOM      6  C   UNL     1       1.734  10.357  18.666  0.00  0.00    +0.000 A 
ENDROOT
BRANCH   3   7
ATOM      7  N   UNL     1       0.174  14.200  18.861  0.00  0.00    +0.000 N 
ATOM      8  C   UNL     1      -0.052  15.094  19.911  0.00  0.00    +0.000 C 
ATOM      9  O   UNL     1       0.901  15.769  20.327  0.00  0.00    +0.000 OA
ATOM     10  N   UNL     1      -1.413  15.581  19.971  0.00  0.00    +0.000 N 
ATOM     11  C   UNL     1      -1.435  16.928  19.383  0.00  0.00    +0.000 C 
ATOM     12  C   UNL     1      -2.688  17.747  19.575  0.00  0.00    +0.000 C 
ATOM     13  C   UNL     1      -3.081  17.828  21.022  0.00  0.00    +0.000 C 
ATOM     14  C   UNL     1      -2.835  16.558  21.771  0.00  0.00    +0.000 A 
ATOM     15  C   UNL     1      -3.532  16.509  22.992  0.00  0.00    +0.000 A 
ATOM     16  C   UNL     1      -3.929  15.299  23.469  0.00  0.00    +0.000 A 
ATOM     17  CA  UNL     1      -3.518  14.191  22.773  0.00  0.00    +0.000 A 
ATOM     18  N   UNL     1      -2.602  14.199  21.703  0.00  0.00    +0.000 NA
ATOM     19  C   UNL     1      -2.221  15.422  21.210  0.00  0.00    +0.000 A 
ATOM     20  H   UNL     1       0.559  14.644  18.032  0.00  0.00    +0.000 HD
BRANCH  17  21
ATOM     21  C   UNL     1      -4.321  12.942  23.074  0.00  0.00    +0.000 C 
ATOM     22  O   UNL     1      -5.037  12.391  22.229  0.00  0.00    +0.000 OA
ENDBRANCH  17  21
ENDBRANCH   3   7
BRANCH   6  23
ATOM     23  C   UNL     1       2.084   8.992  18.238  0.00  0.00    +0.000 C 
ATOM     24  C   UNL     1       2.486   7.886  18.005  0.00  0.00    +0.000 C 
BRANCH  24  25
ATOM     25  C   UNL     1       2.937   6.532  17.748  0.00  0.00    +0.000 A 
ATOM     26  C   UNL     1       2.113   5.421  17.945  0.00  0.00    +0.000 A 
ATOM     27  C   UNL     1       2.604   4.135  17.688  0.00  0.00    +0.000 A 
ATOM     28  C   UNL     1       3.908   3.995  17.246  0.00  0.00    +0.000 A 
ATOM     29  N   UNL     1       4.735   5.042  17.053  0.00  0.00    +0.000 NA
ATOM     30  C   UNL     1       4.229   6.281  17.312  0.00  0.00    +0.000 A 
ENDBRANCH  24  25
ENDBRANCH   6  23
BRANCH   1  31
ATOM     31  O   UNL     1       0.135   9.602  20.253  0.00  0.00    +0.000 OA
BRANCH  31  33
ATOM     32  C   UNL     1      -0.373   9.334  22.658  0.00  0.00    +0.000 C 
ATOM     33  C   UNL     1       0.659   9.189  21.531  0.00  0.00    +0.000 C 
ATOM     34  C   UNL     1       1.049   7.722  21.394  0.00  0.00    +0.000 C 
ENDBRANCH  31  33
ENDBRANCH   1  31
TORSDOF 6
ENDMDL
