MODEL 1
REMARK VINA RESULT:      -6.3      0.000      0.000
REMARK  Name = 
REMARK  14 active torsions:
REMARK  status: ('A' for Active; 'I' for Inactive)
REMARK    1  A    between atoms: C_1  and  C_2
REMARK    2  A    between atoms: C_2  and  C_3
REMARK    3  A    between atoms: C_3  and  C_4
REMARK    4  A    between atoms: C_4  and  N_5
REMARK    5  A    between atoms: C_4  and  C_15
REMARK    6  A    between atoms: N_5  and  S_6
REMARK    7  A    between atoms: S_6  and  C_8
REMARK    8  A    between atoms: C_11  and  C_12
REMARK    9  A    between atoms: C_15  and  C_16
REMARK   10  A    between atoms: C_16  and  O_18
REMARK   11  A    between atoms: O_18  and  C_19
REMARK   12  A    between atoms: C_19  and  C_20
REMARK   13  A    between atoms: C_21  and  C_22
REMARK   14  A    between atoms: C_21  and  C_28
REMARK                            x       y       z     vdW  Elec       q    Type
REMARK                         _______ _______ _______ _____ _____    ______ ____
ROOT
ATOM      1  C   UNL     1      -0.228  11.706  19.919  0.00  0.00    +0.000 C 
ATOM      2  C   UNL     1      -1.125  12.515  19.269  0.00  0.00    +0.000 C 
ENDROOT
BRANCH   2   3
ATOM      3  C   UNL     1      -1.092  14.012  19.352  0.00  0.00    +0.000 A 
ATOM      4  C   UNL     1      -1.772  14.694  20.373  0.00  0.00    +0.000 A 
ATOM      5  C   UNL     1      -1.655  16.085  20.490  0.00  0.00    +0.000 A 
ATOM      6  C   UNL     1      -0.867  16.808  19.595  0.00  0.00    +0.000 A 
ATOM      7  C   UNL     1      -0.194  16.140  18.575  0.00  0.00    +0.000 A 
ATOM      8  C   UNL     1      -0.294  14.749  18.462  0.00  0.00    +0.000 A 
ENDBRANCH   2   3
BRANCH   2   9
ATOM      9  C   UNL     1      -2.206  11.912  18.439  0.00  0.00    +0.000 A 
ATOM     10  C   UNL     1      -3.517  11.867  18.931  0.00  0.00    +0.000 A 
ATOM     11  C   UNL     1      -4.537  11.277  18.184  0.00  0.00    +0.000 A 
ATOM     12  C   UNL     1      -4.263  10.751  16.925  0.00  0.00    +0.000 A 
ATOM     13  C   UNL     1      -2.978  10.850  16.396  0.00  0.00    +0.000 A 
ATOM     14  C   UNL     1      -1.955  11.441  17.144  0.00  0.00    +0.000 A 
ENDBRANCH   2   9
BRANCH   1  15
ATOM     15  C   UNL     1       0.791  12.336  20.850  0.00  0.00    +0.000 C 
ATOM     16  O   UNL     1       0.621  12.568  22.035  0.00  0.00    +0.000 OA
BRANCH  15  17
ATOM     17  O   UNL     1       1.965  12.547  20.200  0.00  0.00    +0.000 OA
BRANCH  17  18
ATOM     18  C   UNL     1       2.799  13.617  20.678  0.00  0.00    +0.000 C 
ATOM     19  C   UNL     1       3.104  14.640  19.594  0.00  0.00    +0.000 C 
ENDBRANCH  17  18
ENDBRANCH  15  17
ENDBRANCH   1  15
BRANCH   1  20
ATOM     20  C   UNL     1      -0.129  10.157  19.839  0.00  0.00    +0.000 C 
BRANCH  20  21
ATOM     21  N   UNL     1       1.250   9.633  19.585  0.00  0.00    +0.000 NA
ATOM     22  H   UNL     1       1.896  10.319  19.972  0.00  0.00    +0.000 HD
BRANCH  21  23
ATOM     23  S   UNL     1       1.600   9.239  17.983  0.00  0.00    +0.000 S 
ATOM     24  O   UNL     1       2.558  10.300  17.335  0.00  0.00    +0.000 OA
BRANCH  23  25
ATOM     25  C   UNL     1       2.586   7.755  18.253  0.00  0.00    +0.000 A 
ATOM     26  C   UNL     1       3.675   7.397  17.455  0.00  0.00    +0.000 A 
ATOM     27  C   UNL     1       4.421   6.250  17.753  0.00  0.00    +0.000 A 
ATOM     28  C   UNL     1       4.102   5.461  18.866  0.00  0.00    +0.000 A 
ATOM     29  C   UNL     1       4.842   4.194  19.172  0.00  0.00    +0.000 C 
ATOM     30  C   UNL     1       3.056   5.858  19.702  0.00  0.00    +0.000 A 
ATOM     31  C   UNL     1       2.309   6.992  19.396  0.00  0.00    +0.000 A 
ENDBRANCH  23  25
ENDBRANCH  21  23
ENDBRANCH  20  21
BRANCH  20  32
ATOM     32  C   UNL     1      -0.789   9.437  21.056  0.00  0.00    +0.000 C 
BRANCH  32  34
ATOM     33  C   UNL     1      -0.050   9.524  23.446  0.00  0.00    +0.000 C 
ATOM     34  C   UNL     1       0.191   8.876  22.086  0.00  0.00    +0.000 C 
ENDBRANCH  32  34
ENDBRANCH  20  32
ENDBRANCH   1  20
TORSDOF 11
ENDMDL
MODEL 2
REMARK VINA RESULT:      -6.2      3.575      9.123
REMARK  Name = 
REMARK  14 active torsions:
REMARK  status: ('A' for Active; 'I' for Inactive)
REMARK    1  A    between atoms: C_1  and  C_2
REMARK    2  A    between atoms: C_2  and  C_3
REMARK    3  A    between atoms: C_3  and  C_4
REMARK    4  A    between atoms: C_4  and  N_5
REMARK    5  A    between atoms: C_4  and  C_15
REMARK    6  A    between atoms: N_5  and  S_6
REMARK    7  A    between atoms: S_6  and  C_8
REMARK    8  A    between atoms: C_11  and  C_12
REMARK    9  A    between atoms: C_15  and  C_16
REMARK   10  A    between atoms: C_16  and  O_18
REMARK   11  A    between atoms: O_18  and  C_19
REMARK   12  A    between atoms: C_19  and  C_20
REMARK   13  A    between atoms: C_21  and  C_22
REMARK   14  A    between atoms: C_21  and  C_28
REMARK                            x       y       z     vdW  Elec       q    Type
REMARK                         _______ _______ _______ _____ _____    ______ ____
ROOT
ATOM      1  C   UNL     1       4.398   5.944  17.743  0.00  0.00    +0.000 C 
ATOM      2  C   UNL     1       4.325   4.737  17.098  0.00  0.00    +0.000 C 
ENDROOT
BRANCH   2   3
ATOM      3  C   UNL     1       5.144   4.400  15.888  0.00  0.00    +0.000 A 
ATOM      4  C   UNL     1       4.533   4.139  14.652  0.00  0.00    +0.000 A 
ATOM      5  C   UNL     1       5.315   3.917  13.511  0.00  0.00    +0.000 A 
ATOM      6  C   UNL     1       6.708   3.951  13.590  0.00  0.00    +0.000 A 
ATOM      7  C   UNL     1       7.323   4.203  14.814  0.00  0.00    +0.000 A 
ATOM      8  C   UNL     1       6.546   4.441  15.954  0.00  0.00    +0.000 A 
ENDBRANCH   2   3
BRANCH   2   9
ATOM      9  C   UNL     1       3.388   3.686  17.589  0.00  0.00    +0.000 A 
ATOM     10  C   UNL     1       2.005   3.889  17.493  0.00  0.00    +0.000 A 
ATOM     11  C   UNL     1       1.111   2.933  17.976  0.00  0.00    +0.000 A 
ATOM     12  C   UNL     1       1.590   1.751  18.535  0.00  0.00    +0.000 A 
ATOM     13  C   UNL     1       2.962   1.508  18.573  0.00  0.00    +0.000 A 
ATOM     14  C   UNL     1       3.859   2.466  18.090  0.00  0.00    +0.000 A 
ENDBRANCH   2   9
BRANCH   1  15
ATOM     15  C   UNL     1       5.271   7.039  17.159  0.00  0.00    +0.000 C 
ATOM     16  O   UNL     1       5.058   7.636  16.117  0.00  0.00    +0.000 OA
BRANCH  15  17
ATOM     17  O   UNL     1       6.301   7.326  17.997  0.00  0.00    +0.000 OA
BRANCH  17  18
ATOM     18  C   UNL     1       7.565   7.659  17.396  0.00  0.00    +0.000 C 
ATOM     19  C   UNL     1       8.100   8.998  17.881  0.00  0.00    +0.000 C 
ENDBRANCH  17  18
ENDBRANCH  15  17
ENDBRANCH   1  15
BRANCH   1  20
ATOM     20  C   UNL     1       3.652   6.364  19.041  0.00  0.00    +0.000 C 
BRANCH  20  21
ATOM     21  N   UNL     1       2.294   6.953  18.817  0.00  0.00    +0.000 NA
ATOM     22  H   UNL     1       1.860   6.405  18.075  0.00  0.00    +0.000 HD
BRANCH  21  23
ATOM     23  S   UNL     1       2.257   8.611  18.511  0.00  0.00    +0.000 S 
ATOM     24  O   UNL     1       1.429   8.929  17.216  0.00  0.00    +0.000 OA
BRANCH  23  25
ATOM     25  C   UNL     1       1.252   9.147  19.907  0.00  0.00    +0.000 A 
ATOM     26  C   UNL     1       1.077   8.389  21.067  0.00  0.00    +0.000 A 
ATOM     27  C   UNL     1       0.316   8.891  22.130  0.00  0.00    +0.000 A 
ATOM     28  C   UNL     1      -0.258  10.166  22.055  0.00  0.00    +0.000 A 
ATOM     29  C   UNL     1      -1.131  10.704  23.149  0.00  0.00    +0.000 C 
ATOM     30  C   UNL     1      -0.025  10.950  20.922  0.00  0.00    +0.000 A 
ATOM     31  C   UNL     1       0.722  10.443  19.863  0.00  0.00    +0.000 A 
ENDBRANCH  23  25
ENDBRANCH  21  23
ENDBRANCH  20  21
BRANCH  20  32
ATOM     32  C   UNL     1       3.603   5.230  20.113  0.00  0.00    +0.000 C 
BRANCH  32  34
ATOM     33  C   UNL     1       2.198   3.699  21.507  0.00  0.00    +0.000 C 
ATOM     34  C   UNL     1       2.255   5.056  20.811  0.00  0.00    +0.000 C 
ENDBRANCH  32  34
ENDBRANCH  20  32
ENDBRANCH   1  20
TORSDOF 11
ENDMDL
MODEL 3
REMARK VINA RESULT:      -6.1      3.218      7.220
REMARK  Name = 
REMARK  14 active torsions:
REMARK  status: ('A' for Active; 'I' for Inactive)
REMARK    1  A    between atoms: C_1  and  C_2
REMARK    2  A    between atoms: C_2  and  C_3
REMARK    3  A    between atoms: C_3  and  C_4
REMARK    4  A    between atoms: C_4  and  N_5
REMARK    5  A    between atoms: C_4  and  C_15
REMARK    6  A    between atoms: N_5  and  S_6
REMARK    7  A    between atoms: S_6  and  C_8
REMARK    8  A    between atoms: C_11  and  C_12
REMARK    9  A    between atoms: C_15  and  C_16
REMARK   10  A    between atoms: C_16  and  O_18
REMARK   11  A    between atoms: O_18  and  C_19
REMARK   12  A    between atoms: C_19  and  C_20
REMARK   13  A    between atoms: C_21  and  C_22
REMARK   14  A    between atoms: C_21  and  C_28
REMARK                            x       y       z     vdW  Elec       q    Type
REMARK                         _______ _______ _______ _____ _____    ______ ____
ROOT
ATOM      1  C   UNL     1      -0.449  13.557  20.533  0.00  0.00    +0.000 C 
ATOM      2  C   UNL     1      -1.053  12.331  20.432  0.00  0.00    +0.000 C 
ENDROOT
BRANCH   2   3
ATOM      3  C   UNL     1      -0.507  11.089  21.071  0.00  0.00    +0.000 A 
ATOM      4  C   UNL     1       0.261  10.175  20.332  0.00  0.00    +0.000 A 
ATOM      5  C   UNL     1       0.841   9.068  20.966  0.00  0.00    +0.000 A 
ATOM      6  C   UNL     1       0.662   8.861  22.333  0.00  0.00    +0.000 A 
ATOM      7  C   UNL     1      -0.103   9.759  23.073  0.00  0.00    +0.000 A 
ATOM      8  C   UNL     1      -0.673  10.875  22.449  0.00  0.00    +0.000 A 
ENDBRANCH   2   3
BRANCH   2   9
ATOM      9  C   UNL     1      -2.313  12.184  19.648  0.00  0.00    +0.000 A 
ATOM     10  C   UNL     1      -3.537  12.543  20.227  0.00  0.00    +0.000 A 
ATOM     11  C   UNL     1      -4.731  12.383  19.523  0.00  0.00    +0.000 A 
ATOM     12  C   UNL     1      -4.711  11.887  18.222  0.00  0.00    +0.000 A 
ATOM     13  C   UNL     1      -3.494  11.590  17.611  0.00  0.00    +0.000 A 
ATOM     14  C   UNL     1      -2.297  11.751  18.316  0.00  0.00    +0.000 A 
ENDBRANCH   2   9
BRANCH   1  15
ATOM     15  C   UNL     1       0.891  13.662  21.237  0.00  0.00    +0.000 C 
ATOM     16  O   UNL     1       1.101  14.260  22.279  0.00  0.00    +0.000 OA
BRANCH  15  17
ATOM     17  O   UNL     1       1.831  12.930  20.584  0.00  0.00    +0.000 OA
BRANCH  17  18
ATOM     18  C   UNL     1       2.530  13.571  19.503  0.00  0.00    +0.000 C 
ATOM     19  C   UNL     1       2.459  12.769  18.212  0.00  0.00    +0.000 C 
ENDBRANCH  17  18
ENDBRANCH  15  17
ENDBRANCH   1  15
BRANCH   1  20
ATOM     20  C   UNL     1      -0.970  14.912  19.975  0.00  0.00    +0.000 C 
BRANCH  20  21
ATOM     21  N   UNL     1      -0.882  16.056  20.937  0.00  0.00    +0.000 NA
ATOM     22  H   UNL     1      -0.402  15.704  21.763  0.00  0.00    +0.000 HD
BRANCH  21  23
ATOM     23  S   UNL     1      -2.342  16.815  21.305  0.00  0.00    +0.000 S 
ATOM     24  O   UNL     1      -3.250  16.948  20.031  0.00  0.00    +0.000 OA
BRANCH  23  25
ATOM     25  C   UNL     1      -3.088  15.539  22.335  0.00  0.00    +0.000 A 
ATOM     26  C   UNL     1      -4.449  15.230  22.316  0.00  0.00    +0.000 A 
ATOM     27  C   UNL     1      -4.949  14.193  23.115  0.00  0.00    +0.000 A 
ATOM     28  C   UNL     1      -4.089  13.439  23.923  0.00  0.00    +0.000 A 
ATOM     29  C   UNL     1      -4.604  12.367  24.836  0.00  0.00    +0.000 C 
ATOM     30  C   UNL     1      -2.718  13.704  23.890  0.00  0.00    +0.000 A 
ATOM     31  C   UNL     1      -2.227  14.742  23.104  0.00  0.00    +0.000 A 
ENDBRANCH  23  25
ENDBRANCH  21  23
ENDBRANCH  20  21
BRANCH  20  32
ATOM     32  C   UNL     1      -0.344  15.287  18.596  0.00  0.00    +0.000 C 
BRANCH  32  34
ATOM     33  C   UNL     1       1.465  17.006  18.409  0.00  0.00    +0.000 C 
ATOM     34  C   UNL     1      -0.043  16.774  18.404  0.00  0.00    +0.000 C 
ENDBRANCH  32  34
ENDBRANCH  20  32
ENDBRANCH   1  20
TORSDOF 11
ENDMDL
MODEL 4
REMARK VINA RESULT:      -5.9      0.677      1.161
REMARK  Name = 
REMARK  14 active torsions:
REMARK  status: ('A' for Active; 'I' for Inactive)
REMARK    1  A    between atoms: C_1  and  C_2
REMARK    2  A    between atoms: C_2  and  C_3
REMARK    3  A    between atoms: C_3  and  C_4
REMARK    4  A    between atoms: C_4  and  N_5
REMARK    5  A    between atoms: C_4  and  C_15
REMARK    6  A    between atoms: N_5  and  S_6
REMARK    7  A    between atoms: S_6  and  C_8
REMARK    8  A    between atoms: C_11  and  C_12
REMARK    9  A    between atoms: C_15  and  C_16
REMARK   10  A    between atoms: C_16  and  O_18
REMARK   11  A    between atoms: O_18  and  C_19
REMARK   12  A    between atoms: C_19  and  C_20
REMARK   13  A    between atoms: C_21  and  C_22
REMARK   14  A    between atoms: C_21  and  C_28
REMARK                            x       y       z     vdW  Elec       q    Type
REMARK                         _______ _______ _______ _____ _____    ______ ____
ROOT
ATOM      1  C   UNL     1      -0.076  11.995  19.880  0.00  0.00    +0.000 C 
ATOM      2  C   UNL     1      -1.081  12.861  19.530  0.00  0.00    +0.000 C 
ENDROOT
BRANCH   2   3
ATOM      3  C   UNL     1      -0.935  14.352  19.577  0.00  0.00    +0.000 A 
ATOM      4  C   UNL     1      -1.297  15.078  20.722  0.00  0.00    +0.000 A 
ATOM      5  C   UNL     1      -1.068  16.459  20.783  0.00  0.00    +0.000 A 
ATOM      6  C   UNL     1      -0.481  17.128  19.709  0.00  0.00    +0.000 A 
ATOM      7  C   UNL     1      -0.124  16.417  18.566  0.00  0.00    +0.000 A 
ATOM      8  C   UNL     1      -0.336  15.035  18.505  0.00  0.00    +0.000 A 
ENDBRANCH   2   3
BRANCH   2   9
ATOM      9  C   UNL     1      -2.401  12.329  19.086  0.00  0.00    +0.000 A 
ATOM     10  C   UNL     1      -3.533  12.525  19.887  0.00  0.00    +0.000 A 
ATOM     11  C   UNL     1      -4.772  12.007  19.507  0.00  0.00    +0.000 A 
ATOM     12  C   UNL     1      -4.897  11.311  18.308  0.00  0.00    +0.000 A 
ATOM     13  C   UNL     1      -3.792  11.168  17.470  0.00  0.00    +0.000 A 
ATOM     14  C   UNL     1      -2.551  11.687  17.851  0.00  0.00    +0.000 A 
ENDBRANCH   2   9
BRANCH   1  15
ATOM     15  C   UNL     1       1.218  12.557  20.438  0.00  0.00    +0.000 C 
ATOM     16  O   UNL     1       1.431  12.816  21.611  0.00  0.00    +0.000 OA
BRANCH  15  17
ATOM     17  O   UNL     1       2.151  12.671  19.457  0.00  0.00    +0.000 OA
BRANCH  17  18
ATOM     18  C   UNL     1       2.976  13.849  19.467  0.00  0.00    +0.000 C 
ATOM     19  C   UNL     1       3.270  14.360  18.065  0.00  0.00    +0.000 C 
ENDBRANCH  17  18
ENDBRANCH  15  17
ENDBRANCH   1  15
BRANCH   1  20
ATOM     20  C   UNL     1      -0.100  10.444  19.796  0.00  0.00    +0.000 C 
BRANCH  20  21
ATOM     21  N   UNL     1       1.243   9.809  19.607  0.00  0.00    +0.000 NA
ATOM     22  H   UNL     1       1.930  10.478  19.950  0.00  0.00    +0.000 HD
BRANCH  21  23
ATOM     23  S   UNL     1       1.583   9.267  18.046  0.00  0.00    +0.000 S 
ATOM     24  O   UNL     1       2.551  10.254  17.302  0.00  0.00    +0.000 OA
BRANCH  23  25
ATOM     25  C   UNL     1       2.553   7.802  18.447  0.00  0.00    +0.000 A 
ATOM     26  C   UNL     1       2.282   6.973  19.537  0.00  0.00    +0.000 A 
ATOM     27  C   UNL     1       3.055   5.826  19.760  0.00  0.00    +0.000 A 
ATOM     28  C   UNL     1       4.090   5.483  18.882  0.00  0.00    +0.000 A 
ATOM     29  C   UNL     1       4.974   4.298  19.130  0.00  0.00    +0.000 C 
ATOM     30  C   UNL     1       4.316   6.276  17.754  0.00  0.00    +0.000 A 
ATOM     31  C   UNL     1       3.554   7.422  17.543  0.00  0.00    +0.000 A 
ENDBRANCH  23  25
ENDBRANCH  21  23
ENDBRANCH  20  21
BRANCH  20  32
ATOM     32  C   UNL     1      -0.875   9.778  20.976  0.00  0.00    +0.000 C 
BRANCH  32  34
ATOM     33  C   UNL     1       0.016   9.458  23.293  0.00  0.00    +0.000 C 
ATOM     34  C   UNL     1      -0.667  10.435  22.340  0.00  0.00    +0.000 C 
ENDBRANCH  32  34
ENDBRANCH  20  32
ENDBRANCH   1  20
TORSDOF 11
ENDMDL
MODEL 5
REMARK VINA RESULT:      -5.9      3.118      7.219
REMARK  Name = 
REMARK  14 active torsions:
REMARK  status: ('A' for Active; 'I' for Inactive)
REMARK    1  A    between atoms: C_1  and  C_2
REMARK    2  A    between atoms: C_2  and  C_3
REMARK    3  A    between atoms: C_3  and  C_4
REMARK    4  A    between atoms: C_4  and  N_5
REMARK    5  A    between atoms: C_4  and  C_15
REMARK    6  A    between atoms: N_5  and  S_6
REMARK    7  A    between atoms: S_6  and  C_8
REMARK    8  A    between atoms: C_11  and  C_12
REMARK    9  A    between atoms: C_15  and  C_16
REMARK   10  A    between atoms: C_16  and  O_18
REMARK   11  A    between atoms: O_18  and  C_19
REMARK   12  A    between atoms: C_19  and  C_20
REMARK   13  A    between atoms: C_21  and  C_22
REMARK   14  A    between atoms: C_21  and  C_28
REMARK                            x       y       z     vdW  Elec       q    Type
REMARK                         _______ _______ _______ _____ _____    ______ ____
ROOT
ATOM      1  C   UNL     1      -0.149  13.542  20.528  0.00  0.00    +0.000 C 
ATOM      2  C   UNL     1      -0.751  12.313  20.445  0.00  0.00    +0.000 C 
ENDROOT
BRANCH   2   3
ATOM      3  C   UNL     1      -0.153  11.064  21.021  0.00  0.00    +0.000 A 
ATOM      4  C   UNL     1      -0.334  10.734  22.373  0.00  0.00    +0.000 A 
ATOM      5  C   UNL     1       0.152   9.519  22.873  0.00  0.00    +0.000 A 
ATOM      6  C   UNL     1       0.822   8.626  22.037  0.00  0.00    +0.000 A 
ATOM      7  C   UNL     1       1.012   8.948  20.695  0.00  0.00    +0.000 A 
ATOM      8  C   UNL     1       0.515  10.153  20.186  0.00  0.00    +0.000 A 
ENDBRANCH   2   3
BRANCH   2   9
ATOM      9  C   UNL     1      -2.060  12.170  19.746  0.00  0.00    +0.000 A 
ATOM     10  C   UNL     1      -2.096  11.685  18.431  0.00  0.00    +0.000 A 
ATOM     11  C   UNL     1      -3.307  11.574  17.747  0.00  0.00    +0.000 A 
ATOM     12  C   UNL     1      -4.498  11.922  18.379  0.00  0.00    +0.000 A 
ATOM     13  C   UNL     1      -4.481  12.341  19.708  0.00  0.00    +0.000 A 
ATOM     14  C   UNL     1      -3.268  12.452  20.395  0.00  0.00    +0.000 A 
ENDBRANCH   2   9
BRANCH   1  15
ATOM     15  C   UNL     1       1.235  13.644  21.141  0.00  0.00    +0.000 C 
ATOM     16  O   UNL     1       1.491  14.102  22.242  0.00  0.00    +0.000 OA
BRANCH  15  17
ATOM     17  O   UNL     1       2.162  13.085  20.321  0.00  0.00    +0.000 OA
BRANCH  17  18
ATOM     18  C   UNL     1       2.903  13.972  19.464  0.00  0.00    +0.000 C 
ATOM     19  C   UNL     1       4.053  14.652  20.193  0.00  0.00    +0.000 C 
ENDBRANCH  17  18
ENDBRANCH  15  17
ENDBRANCH   1  15
BRANCH   1  20
ATOM     20  C   UNL     1      -0.717  14.902  20.033  0.00  0.00    +0.000 C 
BRANCH  20  21
ATOM     21  N   UNL     1      -0.553  16.034  21.000  0.00  0.00    +0.000 NA
ATOM     22  H   UNL     1      -0.071  15.653  21.812  0.00  0.00    +0.000 HD
BRANCH  21  23
ATOM     23  S   UNL     1      -1.967  16.858  21.407  0.00  0.00    +0.000 S 
ATOM     24  O   UNL     1      -2.873  17.086  20.146  0.00  0.00    +0.000 OA
BRANCH  23  25
ATOM     25  C   UNL     1      -2.774  15.588  22.397  0.00  0.00    +0.000 A 
ATOM     26  C   UNL     1      -4.154  15.371  22.397  0.00  0.00    +0.000 A 
ATOM     27  C   UNL     1      -4.705  14.335  23.161  0.00  0.00    +0.000 A 
ATOM     28  C   UNL     1      -3.881  13.489  23.915  0.00  0.00    +0.000 A 
ATOM     29  C   UNL     1      -4.448  12.414  24.792  0.00  0.00    +0.000 C 
ATOM     30  C   UNL     1      -2.497  13.664  23.860  0.00  0.00    +0.000 A 
ATOM     31  C   UNL     1      -1.953  14.703  23.109  0.00  0.00    +0.000 A 
ENDBRANCH  23  25
ENDBRANCH  21  23
ENDBRANCH  20  21
BRANCH  20  32
ATOM     32  C   UNL     1      -0.207  15.298  18.612  0.00  0.00    +0.000 C 
BRANCH  32  34
ATOM     33  C   UNL     1      -0.488  17.551  17.560  0.00  0.00    +0.000 C 
ATOM     34  C   UNL     1       0.370  16.709  18.500  0.00  0.00    +0.000 C 
ENDBRANCH  32  34
ENDBRANCH  20  32
ENDBRANCH   1  20
TORSDOF 11
ENDMDL
MODEL 6
REMARK VINA RESULT:      -5.9      2.490      5.034
REMARK  Name = 
REMARK  14 active torsions:
REMARK  status: ('A' for Active; 'I' for Inactive)
REMARK    1  A    between atoms: C_1  and  C_2
REMARK    2  A    between atoms: C_2  and  C_3
REMARK    3  A    between atoms: C_3  and  C_4
REMARK    4  A    between atoms: C_4  and  N_5
REMARK    5  A    between atoms: C_4  and  C_15
REMARK    6  A    between atoms: N_5  and  S_6
REMARK    7  A    between atoms: S_6  and  C_8
REMARK    8  A    between atoms: C_11  and  C_12
REMARK    9  A    between atoms: C_15  and  C_16
REMARK   10  A    between atoms: C_16  and  O_18
REMARK   11  A    between atoms: O_18  and  C_19
REMARK   12  A    between atoms: C_19  and  C_20
REMARK   13  A    between atoms: C_21  and  C_22
REMARK   14  A    between atoms: C_21  and  C_28
REMARK                            x       y       z     vdW  Elec       q    Type
REMARK                         _______ _______ _______ _____ _____    ______ ____
ROOT
ATOM      1  C   UNL     1      -2.682  11.608  19.143  0.00  0.00    +0.000 C 
ATOM      2  C   UNL     1      -3.590  12.383  19.818  0.00  0.00    +0.000 C 
ENDROOT
BRANCH   2   3
ATOM      3  C   UNL     1      -5.058  12.387  19.509  0.00  0.00    +0.000 A 
ATOM      4  C   UNL     1      -5.965  11.668  20.303  0.00  0.00    +0.000 A 
ATOM      5  C   UNL     1      -7.341  11.756  20.057  0.00  0.00    +0.000 A 
ATOM      6  C   UNL     1      -7.825  12.556  19.022  0.00  0.00    +0.000 A 
ATOM      7  C   UNL     1      -6.932  13.269  18.225  0.00  0.00    +0.000 A 
ATOM      8  C   UNL     1      -5.557  13.196  18.476  0.00  0.00    +0.000 A 
ENDBRANCH   2   3
BRANCH   2   9
ATOM      9  C   UNL     1      -3.132  13.285  20.912  0.00  0.00    +0.000 A 
ATOM     10  C   UNL     1      -2.920  12.767  22.197  0.00  0.00    +0.000 A 
ATOM     11  C   UNL     1      -2.523  13.600  23.243  0.00  0.00    +0.000 A 
ATOM     12  C   UNL     1      -2.306  14.956  23.010  0.00  0.00    +0.000 A 
ATOM     13  C   UNL     1      -2.447  15.469  21.722  0.00  0.00    +0.000 A 
ATOM     14  C   UNL     1      -2.846  14.635  20.673  0.00  0.00    +0.000 A 
ENDBRANCH   2   9
BRANCH   1  15
ATOM     15  C   UNL     1      -3.153  10.786  17.958  0.00  0.00    +0.000 C 
ATOM     16  O   UNL     1      -3.614   9.658  18.016  0.00  0.00    +0.000 OA
BRANCH  15  17
ATOM     17  O   UNL     1      -3.060  11.506  16.810  0.00  0.00    +0.000 OA
BRANCH  17  18
ATOM     18  C   UNL     1      -2.600  10.816  15.636  0.00  0.00    +0.000 C 
ATOM     19  C   UNL     1      -3.746  10.371  14.740  0.00  0.00    +0.000 C 
ENDBRANCH  17  18
ENDBRANCH  15  17
ENDBRANCH   1  15
BRANCH   1  20
ATOM     20  C   UNL     1      -1.161  11.475  19.433  0.00  0.00    +0.000 C 
BRANCH  20  21
ATOM     21  N   UNL     1      -0.610  10.095  19.249  0.00  0.00    +0.000 NA
ATOM     22  H   UNL     1      -1.408   9.486  19.077  0.00  0.00    +0.000 HD
BRANCH  21  23
ATOM     23  S   UNL     1       0.384   9.532  20.490  0.00  0.00    +0.000 S 
ATOM     24  O   UNL     1      -0.409   8.600  21.473  0.00  0.00    +0.000 OA
BRANCH  23  25
ATOM     25  C   UNL     1       1.473   8.461  19.533  0.00  0.00    +0.000 A 
ATOM     26  C   UNL     1       1.924   8.770  18.248  0.00  0.00    +0.000 A 
ATOM     27  C   UNL     1       2.805   7.907  17.584  0.00  0.00    +0.000 A 
ATOM     28  C   UNL     1       3.262   6.739  18.206  0.00  0.00    +0.000 A 
ATOM     29  C   UNL     1       4.153   5.765  17.495  0.00  0.00    +0.000 C 
ATOM     30  C   UNL     1       2.864   6.466  19.517  0.00  0.00    +0.000 A 
ATOM     31  C   UNL     1       1.980   7.320  20.170  0.00  0.00    +0.000 A 
ENDBRANCH  23  25
ENDBRANCH  21  23
ENDBRANCH  20  21
BRANCH  20  32
ATOM     32  C   UNL     1      -0.298  12.530  18.673  0.00  0.00    +0.000 C 
BRANCH  32  34
ATOM     33  C   UNL     1       0.535  13.043  20.976  0.00  0.00    +0.000 C 
ATOM     34  C   UNL     1       0.369  13.582  19.559  0.00  0.00    +0.000 C 
ENDBRANCH  32  34
ENDBRANCH  20  32
ENDBRANCH   1  20
TORSDOF 11
ENDMDL
MODEL 7
REMARK VINA RESULT:      -5.9      3.226      7.288
REMARK  Name = 
REMARK  14 active torsions:
REMARK  status: ('A' for Active; 'I' for Inactive)
REMARK    1  A    between atoms: C_1  and  C_2
REMARK    2  A    between atoms: C_2  and  C_3
REMARK    3  A    between atoms: C_3  and  C_4
REMARK    4  A    between atoms: C_4  and  N_5
REMARK    5  A    between atoms: C_4  and  C_15
REMARK    6  A    between atoms: N_5  and  S_6
REMARK    7  A    between atoms: S_6  and  C_8
REMARK    8  A    between atoms: C_11  and  C_12
REMARK    9  A    between atoms: C_15  and  C_16
REMARK   10  A    between atoms: C_16  and  O_18
REMARK   11  A    between atoms: O_18  and  C_19
REMARK   12  A    between atoms: C_19  and  C_20
REMARK   13  A    between atoms: C_21  and  C_22
REMARK   14  A    between atoms: C_21  and  C_28
REMARK                            x       y       z     vdW  Elec       q    Type
REMARK                         _______ _______ _______ _____ _____    ______ ____
ROOT
ATOM      1  C   UNL     1      -0.288  13.479  20.286  0.00  0.00    +0.000 C 
ATOM      2  C   UNL     1      -0.945  12.276  20.282  0.00  0.00    +0.000 C 
ENDROOT
BRANCH   2   3
ATOM      3  C   UNL     1      -0.518  11.103  21.113  0.00  0.00    +0.000 A 
ATOM      4  C   UNL     1      -0.848  11.024  22.475  0.00  0.00    +0.000 A 
ATOM      5  C   UNL     1      -0.521   9.880  23.214  0.00  0.00    +0.000 A 
ATOM      6  C   UNL     1       0.136   8.809  22.608  0.00  0.00    +0.000 A 
ATOM      7  C   UNL     1       0.473   8.881  21.259  0.00  0.00    +0.000 A 
ATOM      8  C   UNL     1       0.136  10.015  20.511  0.00  0.00    +0.000 A 
ENDBRANCH   2   3
BRANCH   2   9
ATOM      9  C   UNL     1      -2.141  12.083  19.413  0.00  0.00    +0.000 A 
ATOM     10  C   UNL     1      -3.420  12.337  19.927  0.00  0.00    +0.000 A 
ATOM     11  C   UNL     1      -4.555  12.132  19.142  0.00  0.00    +0.000 A 
ATOM     12  C   UNL     1      -4.423  11.697  17.826  0.00  0.00    +0.000 A 
ATOM     13  C   UNL     1      -3.153  11.506  17.283  0.00  0.00    +0.000 A 
ATOM     14  C   UNL     1      -2.015  11.712  18.069  0.00  0.00    +0.000 A 
ENDBRANCH   2   9
BRANCH   1  15
ATOM     15  C   UNL     1       0.992  13.616  21.087  0.00  0.00    +0.000 C 
ATOM     16  O   UNL     1       1.118  14.252  22.121  0.00  0.00    +0.000 OA
BRANCH  15  17
ATOM     17  O   UNL     1       1.983  12.868  20.535  0.00  0.00    +0.000 OA
BRANCH  17  18
ATOM     18  C   UNL     1       2.572  13.353  19.316  0.00  0.00    +0.000 C 
ATOM     19  C   UNL     1       2.378  12.386  18.157  0.00  0.00    +0.000 C 
ENDBRANCH  17  18
ENDBRANCH  15  17
ENDBRANCH   1  15
BRANCH   1  20
ATOM     20  C   UNL     1      -0.691  14.773  19.524  0.00  0.00    +0.000 C 
BRANCH  20  21
ATOM     21  N   UNL     1      -1.929  15.439  20.038  0.00  0.00    +0.000 NA
ATOM     22  H   UNL     1      -2.160  16.174  19.372  0.00  0.00    +0.000 HD
BRANCH  21  23
ATOM     23  S   UNL     1      -1.853  16.000  21.627  0.00  0.00    +0.000 S 
ATOM     24  O   UNL     1      -2.274  17.509  21.716  0.00  0.00    +0.000 OA
BRANCH  23  25
ATOM     25  C   UNL     1      -3.204  15.046  22.342  0.00  0.00    +0.000 A 
ATOM     26  C   UNL     1      -4.543  15.216  21.982  0.00  0.00    +0.000 A 
ATOM     27  C   UNL     1      -5.534  14.407  22.551  0.00  0.00    +0.000 A 
ATOM     28  C   UNL     1      -5.196  13.403  23.467  0.00  0.00    +0.000 A 
ATOM     29  C   UNL     1      -6.241  12.565  24.140  0.00  0.00    +0.000 C 
ATOM     30  C   UNL     1      -3.850  13.189  23.774  0.00  0.00    +0.000 A 
ATOM     31  C   UNL     1      -2.869  14.003  23.216  0.00  0.00    +0.000 A 
ENDBRANCH  23  25
ENDBRANCH  21  23
ENDBRANCH  20  21
BRANCH  20  32
ATOM     32  C   UNL     1       0.481  15.794  19.388  0.00  0.00    +0.000 C 
BRANCH  32  34
ATOM     33  C   UNL     1       0.380  18.295  19.364  0.00  0.00    +0.000 C 
ATOM     34  C   UNL     1       0.172  17.028  18.540  0.00  0.00    +0.000 C 
ENDBRANCH  32  34
ENDBRANCH  20  32
ENDBRANCH   1  20
TORSDOF 11
ENDMDL
MODEL 8
REMARK VINA RESULT:      -5.8      2.373      5.127
REMARK  Name = 
REMARK  14 active torsions:
REMARK  status: ('A' for Active; 'I' for Inactive)
REMARK    1  A    between atoms: C_1  and  C_2
REMARK    2  A    between atoms: C_2  and  C_3
REMARK    3  A    between atoms: C_3  and  C_4
REMARK    4  A    between atoms: C_4  and  N_5
REMARK    5  A    between atoms: C_4  and  C_15
REMARK    6  A    between atoms: N_5  and  S_6
REMARK    7  A    between atoms: S_6  and  C_8
REMARK    8  A    between atoms: C_11  and  C_12
REMARK    9  A    between atoms: C_15  and  C_16
REMARK   10  A    between atoms: C_16  and  O_18
REMARK   11  A    between atoms: O_18  and  C_19
REMARK   12  A    between atoms: C_19  and  C_20
REMARK   13  A    between atoms: C_21  and  C_22
REMARK   14  A    between atoms: C_21  and  C_28
REMARK                            x       y       z     vdW  Elec       q    Type
REMARK                         _______ _______ _______ _____ _____    ______ ____
ROOT
ATOM      1  C   UNL     1      -2.541  11.415  19.152  0.00  0.00    +0.000 C 
ATOM      2  C   UNL     1      -3.529  12.198  19.691  0.00  0.00    +0.000 C 
ENDROOT
BRANCH   2   3
ATOM      3  C   UNL     1      -4.946  12.188  19.201  0.00  0.00    +0.000 A 
ATOM      4  C   UNL     1      -6.002  11.820  20.049  0.00  0.00    +0.000 A 
ATOM      5  C   UNL     1      -7.327  11.905  19.603  0.00  0.00    +0.000 A 
ATOM      6  C   UNL     1      -7.613  12.353  18.314  0.00  0.00    +0.000 A 
ATOM      7  C   UNL     1      -6.572  12.714  17.462  0.00  0.00    +0.000 A 
ATOM      8  C   UNL     1      -5.246  12.646  17.907  0.00  0.00    +0.000 A 
ENDBRANCH   2   3
BRANCH   2   9
ATOM      9  C   UNL     1      -3.214  13.125  20.815  0.00  0.00    +0.000 A 
ATOM     10  C   UNL     1      -2.898  12.605  22.077  0.00  0.00    +0.000 A 
ATOM     11  C   UNL     1      -2.633  13.455  23.151  0.00  0.00    +0.000 A 
ATOM     12  C   UNL     1      -2.653  14.835  22.968  0.00  0.00    +0.000 A 
ATOM     13  C   UNL     1      -2.898  15.363  21.702  0.00  0.00    +0.000 A 
ATOM     14  C   UNL     1      -3.165  14.512  20.625  0.00  0.00    +0.000 A 
ENDBRANCH   2   9
BRANCH   1  15
ATOM     15  C   UNL     1      -2.857  10.565  17.936  0.00  0.00    +0.000 C 
ATOM     16  O   UNL     1      -3.289   9.424  17.959  0.00  0.00    +0.000 OA
BRANCH  15  17
ATOM     17  O   UNL     1      -2.662  11.276  16.794  0.00  0.00    +0.000 OA
BRANCH  17  18
ATOM     18  C   UNL     1      -2.540  10.532  15.569  0.00  0.00    +0.000 C 
ATOM     19  C   UNL     1      -3.848  10.476  14.795  0.00  0.00    +0.000 C 
ENDBRANCH  17  18
ENDBRANCH  15  17
ENDBRANCH   1  15
BRANCH   1  20
ATOM     20  C   UNL     1      -1.068  11.295  19.634  0.00  0.00    +0.000 C 
BRANCH  20  21
ATOM     21  N   UNL     1      -0.610   9.894  19.896  0.00  0.00    +0.000 NA
ATOM     22  H   UNL     1      -1.413   9.393  20.272  0.00  0.00    +0.000 HD
BRANCH  21  23
ATOM     23  S   UNL     1       0.765   9.742  20.860  0.00  0.00    +0.000 S 
ATOM     24  O   UNL     1       0.403   9.175  22.278  0.00  0.00    +0.000 OA
BRANCH  23  25
ATOM     25  C   UNL     1       1.601   8.413  19.975  0.00  0.00    +0.000 A 
ATOM     26  C   UNL     1       1.809   7.141  20.511  0.00  0.00    +0.000 A 
ATOM     27  C   UNL     1       2.428   6.145  19.745  0.00  0.00    +0.000 A 
ATOM     28  C   UNL     1       2.826   6.403  18.428  0.00  0.00    +0.000 A 
ATOM     29  C   UNL     1       3.549   5.379  17.607  0.00  0.00    +0.000 C 
ATOM     30  C   UNL     1       2.556   7.655  17.870  0.00  0.00    +0.000 A 
ATOM     31  C   UNL     1       1.950   8.646  18.637  0.00  0.00    +0.000 A 
ENDBRANCH  23  25
ENDBRANCH  21  23
ENDBRANCH  20  21
BRANCH  20  32
ATOM     32  C   UNL     1      -0.060  12.053  18.715  0.00  0.00    +0.000 C 
BRANCH  32  34
ATOM     33  C   UNL     1       0.328  14.411  19.460  0.00  0.00    +0.000 C 
ATOM     34  C   UNL     1      -0.398  13.522  18.455  0.00  0.00    +0.000 C 
ENDBRANCH  32  34
ENDBRANCH  20  32
ENDBRANCH   1  20
TORSDOF 11
ENDMDL
MODEL 9
REMARK VINA RESULT:      -5.8      3.674      7.971
REMARK  Name = 
REMARK  14 active torsions:
REMARK  status: ('A' for Active; 'I' for Inactive)
REMARK    1  A    between atoms: C_1  and  C_2
REMARK    2  A    between atoms: C_2  and  C_3
REMARK    3  A    between atoms: C_3  and  C_4
REMARK    4  A    between atoms: C_4  and  N_5
REMARK    5  A    between atoms: C_4  and  C_15
REMARK    6  A    between atoms: N_5  and  S_6
REMARK    7  A    between atoms: S_6  and  C_8
REMARK    8  A    between atoms: C_11  and  C_12
REMARK    9  A    between atoms: C_15  and  C_16
REMARK   10  A    between atoms: C_16  and  O_18
REMARK   11  A    between atoms: O_18  and  C_19
REMARK   12  A    between atoms: C_19  and  C_20
REMARK   13  A    between atoms: C_21  and  C_22
REMARK   14  A    between atoms: C_21  and  C_28
REMARK                            x       y       z     vdW  Elec       q    Type
REMARK                         _______ _______ _______ _____ _____    ______ ____
ROOT
ATOM      1  C   UNL     1      -0.688  13.410  21.520  0.00  0.00    +0.000 C 
ATOM      2  C   UNL     1      -0.421  13.361  20.176  0.00  0.00    +0.000 C 
ENDROOT
BRANCH   2   3
ATOM      3  C   UNL     1      -0.727  12.170  19.319  0.00  0.00    +0.000 A 
ATOM      4  C   UNL     1      -1.944  12.071  18.626  0.00  0.00    +0.000 A 
ATOM      5  C   UNL     1      -2.176  10.997  17.757  0.00  0.00    +0.000 A 
ATOM      6  C   UNL     1      -1.205  10.013  17.573  0.00  0.00    +0.000 A 
ATOM      7  C   UNL     1       0.003  10.099  18.261  0.00  0.00    +0.000 A 
ATOM      8  C   UNL     1       0.247  11.178  19.118  0.00  0.00    +0.000 A 
ENDBRANCH   2   3
BRANCH   2   9
ATOM      9  C   UNL     1       0.214  14.529  19.500  0.00  0.00    +0.000 A 
ATOM     10  C   UNL     1      -0.549  15.671  19.225  0.00  0.00    +0.000 A 
ATOM     11  C   UNL     1       0.017  16.762  18.564  0.00  0.00    +0.000 A 
ATOM     12  C   UNL     1       1.360  16.733  18.196  0.00  0.00    +0.000 A 
ATOM     13  C   UNL     1       2.146  15.630  18.525  0.00  0.00    +0.000 A 
ATOM     14  C   UNL     1       1.579  14.537  19.187  0.00  0.00    +0.000 A 
ENDBRANCH   2   9
BRANCH   1  15
ATOM     15  C   UNL     1      -1.227  12.170  22.208  0.00  0.00    +0.000 C 
ATOM     16  O   UNL     1      -2.400  11.839  22.258  0.00  0.00    +0.000 OA
BRANCH  15  17
ATOM     17  O   UNL     1      -0.210  11.423  22.710  0.00  0.00    +0.000 OA
BRANCH  17  18
ATOM     18  C   UNL     1      -0.522  10.082  23.128  0.00  0.00    +0.000 C 
ATOM     19  C   UNL     1      -0.168   9.050  22.069  0.00  0.00    +0.000 C 
ENDBRANCH  17  18
ENDBRANCH  15  17
ENDBRANCH   1  15
BRANCH   1  20
ATOM     20  C   UNL     1      -0.480  14.617  22.477  0.00  0.00    +0.000 C 
BRANCH  20  21
ATOM     21  N   UNL     1      -0.998  14.406  23.866  0.00  0.00    +0.000 NA
ATOM     22  H   UNL     1      -1.334  13.445  23.907  0.00  0.00    +0.000 HD
BRANCH  21  23
ATOM     23  S   UNL     1      -2.146  15.521  24.396  0.00  0.00    +0.000 S 
ATOM     24  O   UNL     1      -2.289  16.712  23.383  0.00  0.00    +0.000 OA
BRANCH  23  25
ATOM     25  C   UNL     1      -3.634  14.519  24.223  0.00  0.00    +0.000 A 
ATOM     26  C   UNL     1      -3.763  13.233  24.752  0.00  0.00    +0.000 A 
ATOM     27  C   UNL     1      -4.967  12.531  24.614  0.00  0.00    +0.000 A 
ATOM     28  C   UNL     1      -6.063  13.117  23.967  0.00  0.00    +0.000 A 
ATOM     29  C   UNL     1      -7.341  12.366  23.749  0.00  0.00    +0.000 C 
ATOM     30  C   UNL     1      -5.954  14.428  23.499  0.00  0.00    +0.000 A 
ATOM     31  C   UNL     1      -4.752  15.118  23.628  0.00  0.00    +0.000 A 
ENDBRANCH  23  25
ENDBRANCH  21  23
ENDBRANCH  20  21
BRANCH  20  32
ATOM     32  C   UNL     1       0.991  15.135  22.498  0.00  0.00    +0.000 C 
BRANCH  32  34
ATOM     33  C   UNL     1       2.368  17.123  21.850  0.00  0.00    +0.000 C 
ATOM     34  C   UNL     1       1.143  16.651  22.628  0.00  0.00    +0.000 C 
ENDBRANCH  32  34
ENDBRANCH  20  32
ENDBRANCH   1  20
TORSDOF 11
ENDMDL
