MODEL 1
REMARK VINA RESULT:      -7.5      0.000      0.000
REMARK  Name = 
REMARK  16 active torsions:
REMARK  status: ('A' for Active; 'I' for Inactive)
REMARK    1  A    between atoms: C_1  and  C_2
REMARK    2  A    between atoms: C_2  and  N_3
REMARK    3  A    between atoms: N_3  and  C_4
REMARK    4  A    between atoms: C_4  and  C_5
REMARK    5  A    between atoms: C_6  and  O_8
REMARK    6  A    between atoms: O_8  and  C_9
REMARK    7  A    between atoms: C_12  and  C_13
REMARK    8  A    between atoms: C_13  and  C_14
REMARK    9  A    between atoms: C_13  and  C_16
REMARK   10  A    between atoms: C_13  and  C_18
REMARK   11  A    between atoms: C_14  and  C_15
REMARK   12  A    between atoms: C_16  and  C_17
REMARK   13  A    between atoms: C_21  and  N_22
REMARK   14  A    between atoms: N_22  and  C_23
REMARK   15  A    between atoms: C_24  and  C_25
REMARK   16  A    between atoms: C_30  and  C_31
REMARK                            x       y       z     vdW  Elec       q    Type
REMARK                         _______ _______ _______ _____ _____    ______ ____
ROOT
ATOM      1  C   UNL     1       0.301  10.058  20.729  0.00  0.00    +0.000 C 
ENDROOT
BRANCH   1   5
ATOM      2  C   UNL     1       2.707   6.864  18.905  0.00  0.00    +0.000 A 
ATOM      3  C   UNL     1       2.608   8.106  18.289  0.00  0.00    +0.000 A 
ATOM      4  C   UNL     1       1.862   9.120  18.881  0.00  0.00    +0.000 A 
ATOM      5  C   UNL     1       1.149   8.918  20.076  0.00  0.00    +0.000 A 
ATOM      6  C   UNL     1       1.219   7.630  20.655  0.00  0.00    +0.000 A 
ATOM      7  C   UNL     1       2.004   6.600  20.088  0.00  0.00    +0.000 A 
ATOM      8  C   UNL     1       2.075   5.253  20.746  0.00  0.00    +0.000 C 
BRANCH   2   9
ATOM      9  O   UNL     1       3.424   5.832  18.266  0.00  0.00    +0.000 OA
BRANCH   9  11
ATOM     10  N   UNL     1       5.585   5.972  17.427  0.00  0.00    +0.000 N 
ATOM     11  C   UNL     1       4.792   5.715  18.541  0.00  0.00    +0.000 C 
ATOM     12  O   UNL     1       5.255   5.436  19.648  0.00  0.00    +0.000 OA
BRANCH  10  14
ATOM     13  C   UNL     1       7.666   7.316  17.789  0.00  0.00    +0.000 C 
ATOM     14  C   UNL     1       7.038   5.945  17.585  0.00  0.00    +0.000 C 
ENDBRANCH  10  14
BRANCH  10  15
ATOM     15  C   UNL     1       5.022   6.292  16.112  0.00  0.00    +0.000 C 
ATOM     16  C   UNL     1       5.395   5.301  15.019  0.00  0.00    +0.000 C 
ENDBRANCH  10  15
ENDBRANCH   9  11
ENDBRANCH   2   9
ENDBRANCH   1   5
BRANCH   1  17
ATOM     17  C   UNL     1      -0.840  10.492  19.755  0.00  0.00    +0.000 A 
ATOM     18  C   UNL     1      -1.278   9.713  18.678  0.00  0.00    +0.000 A 
ATOM     19  C   UNL     1      -2.394  10.080  17.899  0.00  0.00    +0.000 A 
ATOM     20  C   UNL     1      -3.139  11.240  18.147  0.00  0.00    +0.000 A 
ATOM     21  C   UNL     1      -2.647  12.051  19.183  0.00  0.00    +0.000 A 
ATOM     22  C   UNL     1      -1.528  11.693  19.961  0.00  0.00    +0.000 A 
BRANCH  20  23
ATOM     23  N   UNL     1      -4.345  11.578  17.401  0.00  0.00    +0.000 N 
ATOM     24  C   UNL     1      -4.371  11.379  15.952  0.00  0.00    +0.000 C 
ATOM     25  C   UNL     1      -5.479  12.168  18.008  0.00  0.00    +0.000 C 
ATOM     26  C   UNL     1      -6.630  12.558  17.095  0.00  0.00    +0.000 C 
ATOM     27  O   UNL     1      -5.632  12.388  19.210  0.00  0.00    +0.000 OA
ENDBRANCH  20  23
ENDBRANCH   1  17
BRANCH   1  28
ATOM     28  C   UNL     1      -0.283   9.557  22.100  0.00  0.00    +0.000 C 
ATOM     29  C   UNL     1      -0.816  10.618  23.058  0.00  0.00    +0.000 C 
ENDBRANCH   1  28
BRANCH   1  30
ATOM     30  C   UNL     1       1.201  11.332  20.992  0.00  0.00    +0.000 C 
ATOM     31  C   UNL     1       1.455  12.274  19.822  0.00  0.00    +0.000 C 
ENDBRANCH   1  30
TORSDOF 9
ENDMDL
MODEL 2
REMARK VINA RESULT:      -7.4      3.331      5.775
REMARK  Name = 
REMARK  16 active torsions:
REMARK  status: ('A' for Active; 'I' for Inactive)
REMARK    1  A    between atoms: C_1  and  C_2
REMARK    2  A    between atoms: C_2  and  N_3
REMARK    3  A    between atoms: N_3  and  C_4
REMARK    4  A    between atoms: C_4  and  C_5
REMARK    5  A    between atoms: C_6  and  O_8
REMARK    6  A    between atoms: O_8  and  C_9
REMARK    7  A    between atoms: C_12  and  C_13
REMARK    8  A    between atoms: C_13  and  C_14
REMARK    9  A    between atoms: C_13  and  C_16
REMARK   10  A    between atoms: C_13  and  C_18
REMARK   11  A    between atoms: C_14  and  C_15
REMARK   12  A    between atoms: C_16  and  C_17
REMARK   13  A    between atoms: C_21  and  N_22
REMARK   14  A    between atoms: N_22  and  C_23
REMARK   15  A    between atoms: C_24  and  C_25
REMARK   16  A    between atoms: C_30  and  C_31
REMARK                            x       y       z     vdW  Elec       q    Type
REMARK                         _______ _______ _______ _____ _____    ______ ____
ROOT
ATOM      1  C   UNL     1      -0.109  11.189  19.592  0.00  0.00    +0.000 C 
ENDROOT
BRANCH   1   5
ATOM      2  C   UNL     1       2.160   7.425  19.671  0.00  0.00    +0.000 A 
ATOM      3  C   UNL     1       1.416   7.817  20.777  0.00  0.00    +0.000 A 
ATOM      4  C   UNL     1       0.684   9.000  20.738  0.00  0.00    +0.000 A 
ATOM      5  C   UNL     1       0.706   9.854  19.622  0.00  0.00    +0.000 A 
ATOM      6  C   UNL     1       1.515   9.461  18.531  0.00  0.00    +0.000 A 
ATOM      7  C   UNL     1       2.234   8.244  18.537  0.00  0.00    +0.000 A 
ATOM      8  C   UNL     1       3.060   7.848  17.348  0.00  0.00    +0.000 C 
BRANCH   2   9
ATOM      9  O   UNL     1       2.937   6.251  19.744  0.00  0.00    +0.000 OA
BRANCH   9  11
ATOM     10  N   UNL     1       3.111   4.344  18.428  0.00  0.00    +0.000 N 
ATOM     11  C   UNL     1       2.343   5.044  19.355  0.00  0.00    +0.000 C 
ATOM     12  O   UNL     1       1.272   4.626  19.795  0.00  0.00    +0.000 OA
BRANCH  10  14
ATOM     13  C   UNL     1       3.191   1.868  18.787  0.00  0.00    +0.000 C 
ATOM     14  C   UNL     1       2.640   3.035  17.980  0.00  0.00    +0.000 C 
ENDBRANCH  10  14
BRANCH  10  15
ATOM     15  C   UNL     1       4.380   4.857  17.904  0.00  0.00    +0.000 C 
ATOM     16  C   UNL     1       5.587   4.535  18.773  0.00  0.00    +0.000 C 
ENDBRANCH  10  15
ENDBRANCH   9  11
ENDBRANCH   2   9
ENDBRANCH   1   5
BRANCH   1  17
ATOM     17  C   UNL     1       0.868  12.405  19.646  0.00  0.00    +0.000 A 
ATOM     18  C   UNL     1       1.717  12.670  20.728  0.00  0.00    +0.000 A 
ATOM     19  C   UNL     1       2.676  13.704  20.685  0.00  0.00    +0.000 A 
ATOM     20  C   UNL     1       2.845  14.531  19.568  0.00  0.00    +0.000 A 
ATOM     21  C   UNL     1       1.940  14.303  18.518  0.00  0.00    +0.000 A 
ATOM     22  C   UNL     1       0.977  13.276  18.557  0.00  0.00    +0.000 A 
BRANCH  20  23
ATOM     23  N   UNL     1       3.892  15.542  19.485  0.00  0.00    +0.000 N 
ATOM     24  C   UNL     1       3.752  16.782  20.248  0.00  0.00    +0.000 C 
ATOM     25  C   UNL     1       5.015  15.412  18.634  0.00  0.00    +0.000 C 
ATOM     26  C   UNL     1       5.979  16.586  18.575  0.00  0.00    +0.000 C 
ATOM     27  O   UNL     1       5.297  14.434  17.941  0.00  0.00    +0.000 OA
ENDBRANCH  20  23
ENDBRANCH   1  17
BRANCH   1  28
ATOM     28  C   UNL     1      -0.997  11.230  18.295  0.00  0.00    +0.000 C 
ATOM     29  C   UNL     1      -2.014  10.107  18.114  0.00  0.00    +0.000 C 
ENDBRANCH   1  28
BRANCH   1  30
ATOM     30  C   UNL     1      -1.050  11.287  20.859  0.00  0.00    +0.000 C 
ATOM     31  C   UNL     1      -1.985  12.485  20.957  0.00  0.00    +0.000 C 
ENDBRANCH   1  30
TORSDOF 9
ENDMDL
MODEL 3
REMARK VINA RESULT:      -7.3      1.223      1.595
REMARK  Name = 
REMARK  16 active torsions:
REMARK  status: ('A' for Active; 'I' for Inactive)
REMARK    1  A    between atoms: C_1  and  C_2
REMARK    2  A    between atoms: C_2  and  N_3
REMARK    3  A    between atoms: N_3  and  C_4
REMARK    4  A    between atoms: C_4  and  C_5
REMARK    5  A    between atoms: C_6  and  O_8
REMARK    6  A    between atoms: O_8  and  C_9
REMARK    7  A    between atoms: C_12  and  C_13
REMARK    8  A    between atoms: C_13  and  C_14
REMARK    9  A    between atoms: C_13  and  C_16
REMARK   10  A    between atoms: C_13  and  C_18
REMARK   11  A    between atoms: C_14  and  C_15
REMARK   12  A    between atoms: C_16  and  C_17
REMARK   13  A    between atoms: C_21  and  N_22
REMARK   14  A    between atoms: N_22  and  C_23
REMARK   15  A    between atoms: C_24  and  C_25
REMARK   16  A    between atoms: C_30  and  C_31
REMARK                            x       y       z     vdW  Elec       q    Type
REMARK                         _______ _______ _______ _____ _____    ______ ____
ROOT
ATOM      1  C   UNL     1       0.670  10.640  20.325  0.00  0.00    +0.000 C 
ENDROOT
BRANCH   1   5
ATOM      2  C   UNL     1       2.542   7.211  18.312  0.00  0.00    +0.000 A 
ATOM      3  C   UNL     1       2.318   8.394  17.618  0.00  0.00    +0.000 A 
ATOM      4  C   UNL     1       1.744   9.483  18.266  0.00  0.00    +0.000 A 
ATOM      5  C   UNL     1       1.328   9.416  19.607  0.00  0.00    +0.000 A 
ATOM      6  C   UNL     1       1.514   8.184  20.276  0.00  0.00    +0.000 A 
ATOM      7  C   UNL     1       2.132   7.081  19.645  0.00  0.00    +0.000 A 
ATOM      8  C   UNL     1       2.337   5.798  20.397  0.00  0.00    +0.000 C 
BRANCH   2   9
ATOM      9  O   UNL     1       3.076   6.100  17.628  0.00  0.00    +0.000 OA
BRANCH   9  11
ATOM     10  N   UNL     1       4.934   4.752  17.268  0.00  0.00    +0.000 N 
ATOM     11  C   UNL     1       4.463   6.052  17.436  0.00  0.00    +0.000 C 
ATOM     12  O   UNL     1       5.192   7.043  17.395  0.00  0.00    +0.000 OA
BRANCH  10  14
ATOM     13  C   UNL     1       6.694   4.417  15.520  0.00  0.00    +0.000 C 
ATOM     14  C   UNL     1       6.357   4.557  16.998  0.00  0.00    +0.000 C 
ENDBRANCH  10  14
BRANCH  10  15
ATOM     15  C   UNL     1       4.058   3.580  17.329  0.00  0.00    +0.000 C 
ATOM     16  C   UNL     1       4.014   2.907  18.694  0.00  0.00    +0.000 C 
ENDBRANCH  10  15
ENDBRANCH   9  11
ENDBRANCH   2   9
ENDBRANCH   1   5
BRANCH   1  17
ATOM     17  C   UNL     1      -0.698  10.975  19.651  0.00  0.00    +0.000 A 
ATOM     18  C   UNL     1      -1.258  10.218  18.616  0.00  0.00    +0.000 A 
ATOM     19  C   UNL     1      -2.553  10.477  18.121  0.00  0.00    +0.000 A 
ATOM     20  C   UNL     1      -3.364  11.501  18.627  0.00  0.00    +0.000 A 
ATOM     21  C   UNL     1      -2.764  12.299  19.615  0.00  0.00    +0.000 A 
ATOM     22  C   UNL     1      -1.469  12.050  20.109  0.00  0.00    +0.000 A 
BRANCH  20  23
ATOM     23  N   UNL     1      -4.735  11.717  18.180  0.00  0.00    +0.000 N 
ATOM     24  C   UNL     1      -5.007  11.863  16.751  0.00  0.00    +0.000 C 
ATOM     25  C   UNL     1      -5.817  11.869  19.079  0.00  0.00    +0.000 C 
ATOM     26  C   UNL     1      -7.177  12.186  18.478  0.00  0.00    +0.000 C 
ATOM     27  O   UNL     1      -5.769  11.759  20.304  0.00  0.00    +0.000 OA
ENDBRANCH  20  23
ENDBRANCH   1  17
BRANCH   1  28
ATOM     28  C   UNL     1       0.487  10.314  21.853  0.00  0.00    +0.000 C 
ATOM     29  C   UNL     1      -0.609   9.320  22.224  0.00  0.00    +0.000 C 
ENDBRANCH   1  28
BRANCH   1  30
ATOM     30  C   UNL     1       1.588  11.920  20.182  0.00  0.00    +0.000 C 
ATOM     31  C   UNL     1       1.548  12.676  18.860  0.00  0.00    +0.000 C 
ENDBRANCH   1  30
TORSDOF 9
ENDMDL
MODEL 4
REMARK VINA RESULT:      -7.3      3.498      6.064
REMARK  Name = 
REMARK  16 active torsions:
REMARK  status: ('A' for Active; 'I' for Inactive)
REMARK    1  A    between atoms: C_1  and  C_2
REMARK    2  A    between atoms: C_2  and  N_3
REMARK    3  A    between atoms: N_3  and  C_4
REMARK    4  A    between atoms: C_4  and  C_5
REMARK    5  A    between atoms: C_6  and  O_8
REMARK    6  A    between atoms: O_8  and  C_9
REMARK    7  A    between atoms: C_12  and  C_13
REMARK    8  A    between atoms: C_13  and  C_14
REMARK    9  A    between atoms: C_13  and  C_16
REMARK   10  A    between atoms: C_13  and  C_18
REMARK   11  A    between atoms: C_14  and  C_15
REMARK   12  A    between atoms: C_16  and  C_17
REMARK   13  A    between atoms: C_21  and  N_22
REMARK   14  A    between atoms: N_22  and  C_23
REMARK   15  A    between atoms: C_24  and  C_25
REMARK   16  A    between atoms: C_30  and  C_31
REMARK                            x       y       z     vdW  Elec       q    Type
REMARK                         _______ _______ _______ _____ _____    ______ ____
ROOT
ATOM      1  C   UNL     1      -0.158  11.208  19.588  0.00  0.00    +0.000 C 
ENDROOT
BRANCH   1   5
ATOM      2  C   UNL     1       2.106   7.440  19.579  0.00  0.00    +0.000 A 
ATOM      3  C   UNL     1       1.285   7.761  20.653  0.00  0.00    +0.000 A 
ATOM      4  C   UNL     1       0.555   8.946  20.641  0.00  0.00    +0.000 A 
ATOM      5  C   UNL     1       0.655   9.871  19.588  0.00  0.00    +0.000 A 
ATOM      6  C   UNL     1       1.540   9.549  18.533  0.00  0.00    +0.000 A 
ATOM      7  C   UNL     1       2.259   8.333  18.510  0.00  0.00    +0.000 A 
ATOM      8  C   UNL     1       3.168   8.013  17.359  0.00  0.00    +0.000 C 
BRANCH   2   9
ATOM      9  O   UNL     1       2.879   6.262  19.630  0.00  0.00    +0.000 OA
BRANCH   9  11
ATOM     10  N   UNL     1       2.053   4.095  19.775  0.00  0.00    +0.000 N 
ATOM     11  C   UNL     1       2.414   5.141  18.930  0.00  0.00    +0.000 C 
ATOM     12  O   UNL     1       2.311   5.083  17.704  0.00  0.00    +0.000 OA
BRANCH  10  14
ATOM     13  C   UNL     1       2.533   1.962  18.557  0.00  0.00    +0.000 C 
ATOM     14  C   UNL     1       1.494   2.882  19.182  0.00  0.00    +0.000 C 
ENDBRANCH  10  14
BRANCH  10  15
ATOM     15  C   UNL     1       2.190   4.173  21.232  0.00  0.00    +0.000 C 
ATOM     16  C   UNL     1       1.892   2.867  21.954  0.00  0.00    +0.000 C 
ENDBRANCH  10  15
ENDBRANCH   9  11
ENDBRANCH   2   9
ENDBRANCH   1   5
BRANCH   1  17
ATOM     17  C   UNL     1       0.821  12.421  19.671  0.00  0.00    +0.000 A 
ATOM     18  C   UNL     1       1.767  12.586  20.690  0.00  0.00    +0.000 A 
ATOM     19  C   UNL     1       2.718  13.627  20.662  0.00  0.00    +0.000 A 
ATOM     20  C   UNL     1       2.783  14.561  19.620  0.00  0.00    +0.000 A 
ATOM     21  C   UNL     1       1.785  14.430  18.641  0.00  0.00    +0.000 A 
ATOM     22  C   UNL     1       0.828  13.396  18.667  0.00  0.00    +0.000 A 
BRANCH  20  23
ATOM     23  N   UNL     1       3.819  15.584  19.542  0.00  0.00    +0.000 N 
ATOM     24  C   UNL     1       3.644  16.838  20.274  0.00  0.00    +0.000 C 
ATOM     25  C   UNL     1       4.964  15.452  18.721  0.00  0.00    +0.000 C 
ATOM     26  C   UNL     1       5.914  16.638  18.659  0.00  0.00    +0.000 C 
ATOM     27  O   UNL     1       5.275  14.464  18.056  0.00  0.00    +0.000 OA
ENDBRANCH  20  23
ENDBRANCH   1  17
BRANCH   1  28
ATOM     28  C   UNL     1      -1.045  11.281  18.291  0.00  0.00    +0.000 C 
ATOM     29  C   UNL     1      -2.122  10.213  18.127  0.00  0.00    +0.000 C 
ENDBRANCH   1  28
BRANCH   1  30
ATOM     30  C   UNL     1      -1.100  11.278  20.856  0.00  0.00    +0.000 C 
ATOM     31  C   UNL     1      -1.919  12.545  21.061  0.00  0.00    +0.000 C 
ENDBRANCH   1  30
TORSDOF 9
ENDMDL
MODEL 5
REMARK VINA RESULT:      -7.3      3.350      5.558
REMARK  Name = 
REMARK  16 active torsions:
REMARK  status: ('A' for Active; 'I' for Inactive)
REMARK    1  A    between atoms: C_1  and  C_2
REMARK    2  A    between atoms: C_2  and  N_3
REMARK    3  A    between atoms: N_3  and  C_4
REMARK    4  A    between atoms: C_4  and  C_5
REMARK    5  A    between atoms: C_6  and  O_8
REMARK    6  A    between atoms: O_8  and  C_9
REMARK    7  A    between atoms: C_12  and  C_13
REMARK    8  A    between atoms: C_13  and  C_14
REMARK    9  A    between atoms: C_13  and  C_16
REMARK   10  A    between atoms: C_13  and  C_18
REMARK   11  A    between atoms: C_14  and  C_15
REMARK   12  A    between atoms: C_16  and  C_17
REMARK   13  A    between atoms: C_21  and  N_22
REMARK   14  A    between atoms: N_22  and  C_23
REMARK   15  A    between atoms: C_24  and  C_25
REMARK   16  A    between atoms: C_30  and  C_31
REMARK                            x       y       z     vdW  Elec       q    Type
REMARK                         _______ _______ _______ _____ _____    ______ ____
ROOT
ATOM      1  C   UNL     1      -0.064  11.034  19.436  0.00  0.00    +0.000 C 
ENDROOT
BRANCH   1   5
ATOM      2  C   UNL     1       2.316   7.344  19.646  0.00  0.00    +0.000 A 
ATOM      3  C   UNL     1       1.560   7.753  20.738  0.00  0.00    +0.000 A 
ATOM      4  C   UNL     1       0.793   8.912  20.658  0.00  0.00    +0.000 A 
ATOM      5  C   UNL     1       0.791   9.725  19.513  0.00  0.00    +0.000 A 
ATOM      6  C   UNL     1       1.611   9.319  18.435  0.00  0.00    +0.000 A 
ATOM      7  C   UNL     1       2.366   8.125  18.484  0.00  0.00    +0.000 A 
ATOM      8  C   UNL     1       3.204   7.712  17.309  0.00  0.00    +0.000 C 
BRANCH   2   9
ATOM      9  O   UNL     1       3.128   6.198  19.760  0.00  0.00    +0.000 OA
BRANCH   9  11
ATOM     10  N   UNL     1       2.443   4.046  19.212  0.00  0.00    +0.000 N 
ATOM     11  C   UNL     1       2.533   5.012  20.210  0.00  0.00    +0.000 C 
ATOM     12  O   UNL     1       2.148   4.826  21.365  0.00  0.00    +0.000 OA
BRANCH  10  14
ATOM     13  C   UNL     1       0.677   2.337  18.739  0.00  0.00    +0.000 C 
ATOM     14  C   UNL     1       1.897   2.736  19.558  0.00  0.00    +0.000 C 
ENDBRANCH  10  14
BRANCH  10  15
ATOM     15  C   UNL     1       2.895   4.284  17.838  0.00  0.00    +0.000 C 
ATOM     16  C   UNL     1       4.185   3.563  17.475  0.00  0.00    +0.000 C 
ENDBRANCH  10  15
ENDBRANCH   9  11
ENDBRANCH   2   9
ENDBRANCH   1   5
BRANCH   1  17
ATOM     17  C   UNL     1       0.875  12.281  19.471  0.00  0.00    +0.000 A 
ATOM     18  C   UNL     1       0.868  13.285  18.496  0.00  0.00    +0.000 A 
ATOM     19  C   UNL     1       1.639  14.457  18.629  0.00  0.00    +0.000 A 
ATOM     20  C   UNL     1       2.461  14.699  19.737  0.00  0.00    +0.000 A 
ATOM     21  C   UNL     1       2.516  13.653  20.674  0.00  0.00    +0.000 A 
ATOM     22  C   UNL     1       1.753  12.476  20.543  0.00  0.00    +0.000 A 
BRANCH  20  23
ATOM     23  N   UNL     1       3.191  15.947  19.922  0.00  0.00    +0.000 N 
ATOM     24  C   UNL     1       4.548  16.067  19.389  0.00  0.00    +0.000 C 
ATOM     25  C   UNL     1       2.674  17.033  20.667  0.00  0.00    +0.000 C 
ATOM     26  C   UNL     1       3.583  18.236  20.862  0.00  0.00    +0.000 C 
ATOM     27  O   UNL     1       1.551  17.106  21.167  0.00  0.00    +0.000 OA
ENDBRANCH  20  23
ENDBRANCH   1  17
BRANCH   1  28
ATOM     28  C   UNL     1      -0.935  11.014  18.127  0.00  0.00    +0.000 C 
ATOM     29  C   UNL     1      -2.158  10.102  18.120  0.00  0.00    +0.000 C 
ENDBRANCH   1  28
BRANCH   1  30
ATOM     30  C   UNL     1      -1.025  11.137  20.688  0.00  0.00    +0.000 C 
ATOM     31  C   UNL     1      -1.769  12.448  20.904  0.00  0.00    +0.000 C 
ENDBRANCH   1  30
TORSDOF 9
ENDMDL
MODEL 6
REMARK VINA RESULT:      -7.3      3.405      5.710
REMARK  Name = 
REMARK  16 active torsions:
REMARK  status: ('A' for Active; 'I' for Inactive)
REMARK    1  A    between atoms: C_1  and  C_2
REMARK    2  A    between atoms: C_2  and  N_3
REMARK    3  A    between atoms: N_3  and  C_4
REMARK    4  A    between atoms: C_4  and  C_5
REMARK    5  A    between atoms: C_6  and  O_8
REMARK    6  A    between atoms: O_8  and  C_9
REMARK    7  A    between atoms: C_12  and  C_13
REMARK    8  A    between atoms: C_13  and  C_14
REMARK    9  A    between atoms: C_13  and  C_16
REMARK   10  A    between atoms: C_13  and  C_18
REMARK   11  A    between atoms: C_14  and  C_15
REMARK   12  A    between atoms: C_16  and  C_17
REMARK   13  A    between atoms: C_21  and  N_22
REMARK   14  A    between atoms: N_22  and  C_23
REMARK   15  A    between atoms: C_24  and  C_25
REMARK   16  A    between atoms: C_30  and  C_31
REMARK                            x       y       z     vdW  Elec       q    Type
REMARK                         _______ _______ _______ _____ _____    ______ ____
ROOT
ATOM      1  C   UNL     1      -0.125  11.106  19.475  0.00  0.00    +0.000 C 
ENDROOT
BRANCH   1   5
ATOM      2  C   UNL     1       2.186   7.379  19.770  0.00  0.00    +0.000 A 
ATOM      3  C   UNL     1       1.444   7.830  20.854  0.00  0.00    +0.000 A 
ATOM      4  C   UNL     1       0.698   9.000  20.748  0.00  0.00    +0.000 A 
ATOM      5  C   UNL     1       0.705   9.784  19.582  0.00  0.00    +0.000 A 
ATOM      6  C   UNL     1       1.512   9.334  18.511  0.00  0.00    +0.000 A 
ATOM      7  C   UNL     1       2.245   8.128  18.587  0.00  0.00    +0.000 A 
ATOM      8  C   UNL     1       3.068   7.669  17.420  0.00  0.00    +0.000 C 
BRANCH   2   9
ATOM      9  O   UNL     1       2.977   6.220  19.909  0.00  0.00    +0.000 OA
BRANCH   9  11
ATOM     10  N   UNL     1       3.063   3.975  19.317  0.00  0.00    +0.000 N 
ATOM     11  C   UNL     1       2.326   4.980  19.938  0.00  0.00    +0.000 C 
ATOM     12  O   UNL     1       1.234   4.783  20.471  0.00  0.00    +0.000 OA
BRANCH  10  14
ATOM     13  C   UNL     1       3.436   1.591  18.654  0.00  0.00    +0.000 C 
ATOM     14  C   UNL     1       2.532   2.614  19.327  0.00  0.00    +0.000 C 
ENDBRANCH  10  14
BRANCH  10  15
ATOM     15  C   UNL     1       4.358   4.225  18.678  0.00  0.00    +0.000 C 
ATOM     16  C   UNL     1       4.278   4.429  17.171  0.00  0.00    +0.000 C 
ENDBRANCH  10  15
ENDBRANCH   9  11
ENDBRANCH   2   9
ENDBRANCH   1   5
BRANCH   1  17
ATOM     17  C   UNL     1       0.836  12.337  19.509  0.00  0.00    +0.000 A 
ATOM     18  C   UNL     1       0.868  13.324  18.517  0.00  0.00    +0.000 A 
ATOM     19  C   UNL     1       1.657  14.485  18.647  0.00  0.00    +0.000 A 
ATOM     20  C   UNL     1       2.458  14.731  19.770  0.00  0.00    +0.000 A 
ATOM     21  C   UNL     1       2.474  13.701  20.725  0.00  0.00    +0.000 A 
ATOM     22  C   UNL     1       1.692  12.536  20.598  0.00  0.00    +0.000 A 
BRANCH  20  23
ATOM     23  N   UNL     1       3.206  15.969  19.949  0.00  0.00    +0.000 N 
ATOM     24  C   UNL     1       2.481  17.235  20.058  0.00  0.00    +0.000 C 
ATOM     25  C   UNL     1       4.621  16.016  19.947  0.00  0.00    +0.000 C 
ATOM     26  C   UNL     1       5.270  17.387  20.045  0.00  0.00    +0.000 C 
ATOM     27  O   UNL     1       5.382  15.050  19.883  0.00  0.00    +0.000 OA
ENDBRANCH  20  23
ENDBRANCH   1  17
BRANCH   1  28
ATOM     28  C   UNL     1      -0.975  11.085  18.153  0.00  0.00    +0.000 C 
ATOM     29  C   UNL     1      -2.161  10.127  18.106  0.00  0.00    +0.000 C 
ENDBRANCH   1  28
BRANCH   1  30
ATOM     30  C   UNL     1      -1.103  11.242  20.710  0.00  0.00    +0.000 C 
ATOM     31  C   UNL     1      -1.835  12.565  20.893  0.00  0.00    +0.000 C 
ENDBRANCH   1  30
TORSDOF 9
ENDMDL
MODEL 7
REMARK VINA RESULT:      -7.2      3.371      5.636
REMARK  Name = 
REMARK  16 active torsions:
REMARK  status: ('A' for Active; 'I' for Inactive)
REMARK    1  A    between atoms: C_1  and  C_2
REMARK    2  A    between atoms: C_2  and  N_3
REMARK    3  A    between atoms: N_3  and  C_4
REMARK    4  A    between atoms: C_4  and  C_5
REMARK    5  A    between atoms: C_6  and  O_8
REMARK    6  A    between atoms: O_8  and  C_9
REMARK    7  A    between atoms: C_12  and  C_13
REMARK    8  A    between atoms: C_13  and  C_14
REMARK    9  A    between atoms: C_13  and  C_16
REMARK   10  A    between atoms: C_13  and  C_18
REMARK   11  A    between atoms: C_14  and  C_15
REMARK   12  A    between atoms: C_16  and  C_17
REMARK   13  A    between atoms: C_21  and  N_22
REMARK   14  A    between atoms: N_22  and  C_23
REMARK   15  A    between atoms: C_24  and  C_25
REMARK   16  A    between atoms: C_30  and  C_31
REMARK                            x       y       z     vdW  Elec       q    Type
REMARK                         _______ _______ _______ _____ _____    ______ ____
ROOT
ATOM      1  C   UNL     1       0.062  11.121  19.367  0.00  0.00    +0.000 C 
ENDROOT
BRANCH   1   5
ATOM      2  C   UNL     1       2.571   7.564  18.753  0.00  0.00    +0.000 A 
ATOM      3  C   UNL     1       2.483   8.538  17.765  0.00  0.00    +0.000 A 
ATOM      4  C   UNL     1       1.703   9.671  17.974  0.00  0.00    +0.000 A 
ATOM      5  C   UNL     1       0.948   9.850  19.146  0.00  0.00    +0.000 A 
ATOM      6  C   UNL     1       1.010   8.820  20.112  0.00  0.00    +0.000 A 
ATOM      7  C   UNL     1       1.827   7.681  19.935  0.00  0.00    +0.000 A 
ATOM      8  C   UNL     1       1.888   6.621  20.996  0.00  0.00    +0.000 C 
BRANCH   2   9
ATOM      9  O   UNL     1       3.323   6.398  18.507  0.00  0.00    +0.000 OA
BRANCH   9  11
ATOM     10  N   UNL     1       3.515   4.217  17.730  0.00  0.00    +0.000 N 
ATOM     11  C   UNL     1       2.658   5.287  17.973  0.00  0.00    +0.000 C 
ATOM     12  O   UNL     1       1.446   5.242  17.758  0.00  0.00    +0.000 OA
BRANCH  10  14
ATOM     13  C   UNL     1       2.788   1.888  18.289  0.00  0.00    +0.000 C 
ATOM     14  C   UNL     1       2.945   2.968  17.228  0.00  0.00    +0.000 C 
ENDBRANCH  10  14
BRANCH  10  15
ATOM     15  C   UNL     1       4.957   4.286  17.980  0.00  0.00    +0.000 C 
ATOM     16  C   UNL     1       5.797   4.472  16.725  0.00  0.00    +0.000 C 
ENDBRANCH  10  15
ENDBRANCH   9  11
ENDBRANCH   2   9
ENDBRANCH   1   5
BRANCH   1  17
ATOM     17  C   UNL     1       0.973  12.380  19.514  0.00  0.00    +0.000 A 
ATOM     18  C   UNL     1       1.820  12.602  20.606  0.00  0.00    +0.000 A 
ATOM     19  C   UNL     1       2.720  13.686  20.642  0.00  0.00    +0.000 A 
ATOM     20  C   UNL     1       2.831  14.610  19.595  0.00  0.00    +0.000 A 
ATOM     21  C   UNL     1       1.927  14.420  18.537  0.00  0.00    +0.000 A 
ATOM     22  C   UNL     1       1.020  13.343  18.499  0.00  0.00    +0.000 A 
BRANCH  20  23
ATOM     23  N   UNL     1       3.821  15.680  19.588  0.00  0.00    +0.000 N 
ATOM     24  C   UNL     1       3.637  16.831  20.471  0.00  0.00    +0.000 C 
ATOM     25  C   UNL     1       4.925  15.696  18.703  0.00  0.00    +0.000 C 
ATOM     26  C   UNL     1       5.824  16.921  18.736  0.00  0.00    +0.000 C 
ATOM     27  O   UNL     1       5.237  14.806  17.911  0.00  0.00    +0.000 OA
ENDBRANCH  20  23
ENDBRANCH   1  17
BRANCH   1  28
ATOM     28  C   UNL     1      -0.937  11.278  18.162  0.00  0.00    +0.000 C 
ATOM     29  C   UNL     1      -1.931  10.145  17.932  0.00  0.00    +0.000 C 
ENDBRANCH   1  28
BRANCH   1  30
ATOM     30  C   UNL     1      -0.769  10.985  20.706  0.00  0.00    +0.000 C 
ATOM     31  C   UNL     1      -1.731  12.111  21.060  0.00  0.00    +0.000 C 
ENDBRANCH   1  30
TORSDOF 9
ENDMDL
MODEL 8
REMARK VINA RESULT:      -7.2      1.082      1.701
REMARK  Name = 
REMARK  16 active torsions:
REMARK  status: ('A' for Active; 'I' for Inactive)
REMARK    1  A    between atoms: C_1  and  C_2
REMARK    2  A    between atoms: C_2  and  N_3
REMARK    3  A    between atoms: N_3  and  C_4
REMARK    4  A    between atoms: C_4  and  C_5
REMARK    5  A    between atoms: C_6  and  O_8
REMARK    6  A    between atoms: O_8  and  C_9
REMARK    7  A    between atoms: C_12  and  C_13
REMARK    8  A    between atoms: C_13  and  C_14
REMARK    9  A    between atoms: C_13  and  C_16
REMARK   10  A    between atoms: C_13  and  C_18
REMARK   11  A    between atoms: C_14  and  C_15
REMARK   12  A    between atoms: C_16  and  C_17
REMARK   13  A    between atoms: C_21  and  N_22
REMARK   14  A    between atoms: N_22  and  C_23
REMARK   15  A    between atoms: C_24  and  C_25
REMARK   16  A    between atoms: C_30  and  C_31
REMARK                            x       y       z     vdW  Elec       q    Type
REMARK                         _______ _______ _______ _____ _____    ______ ____
ROOT
ATOM      1  C   UNL     1       0.668  10.666  20.319  0.00  0.00    +0.000 C 
ENDROOT
BRANCH   1   5
ATOM      2  C   UNL     1       2.554   7.207  18.370  0.00  0.00    +0.000 A 
ATOM      3  C   UNL     1       2.356   8.388  17.663  0.00  0.00    +0.000 A 
ATOM      4  C   UNL     1       1.777   9.486  18.292  0.00  0.00    +0.000 A 
ATOM      5  C   UNL     1       1.331   9.431  19.624  0.00  0.00    +0.000 A 
ATOM      6  C   UNL     1       1.492   8.203  20.304  0.00  0.00    +0.000 A 
ATOM      7  C   UNL     1       2.114   7.090  19.695  0.00  0.00    +0.000 A 
ATOM      8  C   UNL     1       2.292   5.810  20.459  0.00  0.00    +0.000 C 
BRANCH   2   9
ATOM      9  O   UNL     1       3.094   6.088  17.705  0.00  0.00    +0.000 OA
BRANCH   9  11
ATOM     10  N   UNL     1       5.034   4.820  17.541  0.00  0.00    +0.000 N 
ATOM     11  C   UNL     1       4.468   6.086  17.429  0.00  0.00    +0.000 C 
ATOM     12  O   UNL     1       5.110   7.085  17.101  0.00  0.00    +0.000 OA
BRANCH  10  14
ATOM     13  C   UNL     1       7.392   5.134  18.320  0.00  0.00    +0.000 C 
ATOM     14  C   UNL     1       6.451   4.660  17.221  0.00  0.00    +0.000 C 
ENDBRANCH  10  14
BRANCH  10  15
ATOM     15  C   UNL     1       4.262   3.641  17.943  0.00  0.00    +0.000 C 
ATOM     16  C   UNL     1       4.534   3.175  19.366  0.00  0.00    +0.000 C 
ENDBRANCH  10  15
ENDBRANCH   9  11
ENDBRANCH   2   9
ENDBRANCH   1   5
BRANCH   1  17
ATOM     17  C   UNL     1      -0.771  10.881  19.753  0.00  0.00    +0.000 A 
ATOM     18  C   UNL     1      -1.600  11.946  20.125  0.00  0.00    +0.000 A 
ATOM     19  C   UNL     1      -2.840  12.178  19.497  0.00  0.00    +0.000 A 
ATOM     20  C   UNL     1      -3.327  11.367  18.464  0.00  0.00    +0.000 A 
ATOM     21  C   UNL     1      -2.522  10.260  18.149  0.00  0.00    +0.000 A 
ATOM     22  C   UNL     1      -1.284  10.019  18.777  0.00  0.00    +0.000 A 
BRANCH  20  23
ATOM     23  N   UNL     1      -4.567  11.654  17.752  0.00  0.00    +0.000 N 
ATOM     24  C   UNL     1      -4.577  11.616  16.290  0.00  0.00    +0.000 C 
ATOM     25  C   UNL     1      -5.755  12.046  18.412  0.00  0.00    +0.000 C 
ATOM     26  C   UNL     1      -6.946  12.409  17.540  0.00  0.00    +0.000 C 
ATOM     27  O   UNL     1      -5.925  12.112  19.630  0.00  0.00    +0.000 OA
ENDBRANCH  20  23
ENDBRANCH   1  17
BRANCH   1  28
ATOM     28  C   UNL     1       0.639  10.437  21.875  0.00  0.00    +0.000 C 
ATOM     29  C   UNL     1      -0.563   9.690  22.444  0.00  0.00    +0.000 C 
ENDBRANCH   1  28
BRANCH   1  30
ATOM     30  C   UNL     1       1.494  11.979  20.011  0.00  0.00    +0.000 C 
ATOM     31  C   UNL     1       1.238  12.682  18.684  0.00  0.00    +0.000 C 
ENDBRANCH   1  30
TORSDOF 9
ENDMDL
MODEL 9
REMARK VINA RESULT:      -7.2      3.284      5.478
REMARK  Name = 
REMARK  16 active torsions:
REMARK  status: ('A' for Active; 'I' for Inactive)
REMARK    1  A    between atoms: C_1  and  C_2
REMARK    2  A    between atoms: C_2  and  N_3
REMARK    3  A    between atoms: N_3  and  C_4
REMARK    4  A    between atoms: C_4  and  C_5
REMARK    5  A    between atoms: C_6  and  O_8
REMARK    6  A    between atoms: O_8  and  C_9
REMARK    7  A    between atoms: C_12  and  C_13
REMARK    8  A    between atoms: C_13  and  C_14
REMARK    9  A    between atoms: C_13  and  C_16
REMARK   10  A    between atoms: C_13  and  C_18
REMARK   11  A    between atoms: C_14  and  C_15
REMARK   12  A    between atoms: C_16  and  C_17
REMARK   13  A    between atoms: C_21  and  N_22
REMARK   14  A    between atoms: N_22  and  C_23
REMARK   15  A    between atoms: C_24  and  C_25
REMARK   16  A    between atoms: C_30  and  C_31
REMARK                            x       y       z     vdW  Elec       q    Type
REMARK                         _______ _______ _______ _____ _____    ______ ____
ROOT
ATOM      1  C   UNL     1       0.301  11.098  19.481  0.00  0.00    +0.000 C 
ENDROOT
BRANCH   1   5
ATOM      2  C   UNL     1       2.521   7.453  18.425  0.00  0.00    +0.000 A 
ATOM      3  C   UNL     1       2.418   8.499  17.516  0.00  0.00    +0.000 A 
ATOM      4  C   UNL     1       1.731   9.658  17.863  0.00  0.00    +0.000 A 
ATOM      5  C   UNL     1       1.084   9.796  19.103  0.00  0.00    +0.000 A 
ATOM      6  C   UNL     1       1.155   8.698  19.990  0.00  0.00    +0.000 A 
ATOM      7  C   UNL     1       1.881   7.528  19.669  0.00  0.00    +0.000 A 
ATOM      8  C   UNL     1       1.957   6.393  20.649  0.00  0.00    +0.000 C 
BRANCH   2   9
ATOM      9  O   UNL     1       3.175   6.266  18.040  0.00  0.00    +0.000 OA
BRANCH   9  11
ATOM     10  N   UNL     1       5.423   5.712  18.237  0.00  0.00    +0.000 N 
ATOM     11  C   UNL     1       4.457   6.372  17.483  0.00  0.00    +0.000 C 
ATOM     12  O   UNL     1       4.708   6.961  16.432  0.00  0.00    +0.000 OA
BRANCH  10  14
ATOM     13  C   UNL     1       7.851   5.862  18.826  0.00  0.00    +0.000 C 
ATOM     14  C   UNL     1       6.798   5.689  17.741  0.00  0.00    +0.000 C 
ENDBRANCH  10  14
BRANCH  10  15
ATOM     15  C   UNL     1       5.113   5.023  19.493  0.00  0.00    +0.000 C 
ATOM     16  C   UNL     1       4.732   3.559  19.321  0.00  0.00    +0.000 C 
ENDBRANCH  10  15
ENDBRANCH   9  11
ENDBRANCH   2   9
ENDBRANCH   1   5
BRANCH   1  17
ATOM     17  C   UNL     1       1.279  12.315  19.498  0.00  0.00    +0.000 A 
ATOM     18  C   UNL     1       1.451  13.187  18.416  0.00  0.00    +0.000 A 
ATOM     19  C   UNL     1       2.245  14.347  18.515  0.00  0.00    +0.000 A 
ATOM     20  C   UNL     1       2.913  14.708  19.692  0.00  0.00    +0.000 A 
ATOM     21  C   UNL     1       2.792  13.789  20.748  0.00  0.00    +0.000 A 
ATOM     22  C   UNL     1       2.005  12.624  20.654  0.00  0.00    +0.000 A 
BRANCH  20  23
ATOM     23  N   UNL     1       3.663  15.951  19.826  0.00  0.00    +0.000 N 
ATOM     24  C   UNL     1       2.944  17.193  20.105  0.00  0.00    +0.000 C 
ATOM     25  C   UNL     1       5.061  16.027  19.622  0.00  0.00    +0.000 C 
ATOM     26  C   UNL     1       5.699  17.404  19.697  0.00  0.00    +0.000 C 
ATOM     27  O   UNL     1       5.818  15.082  19.398  0.00  0.00    +0.000 OA
ENDBRANCH  20  23
ENDBRANCH   1  17
BRANCH   1  28
ATOM     28  C   UNL     1      -0.869  11.321  18.454  0.00  0.00    +0.000 C 
ATOM     29  C   UNL     1      -1.776  10.130  18.166  0.00  0.00    +0.000 C 
ENDBRANCH   1  28
BRANCH   1  30
ATOM     30  C   UNL     1      -0.310  10.968  20.934  0.00  0.00    +0.000 C 
ATOM     31  C   UNL     1      -1.403  11.951  21.332  0.00  0.00    +0.000 C 
ENDBRANCH   1  30
TORSDOF 9
ENDMDL
