MODEL 1
REMARK VINA RESULT:      -8.7      0.000      0.000
REMARK  Name = 
REMARK  6 active torsions:
REMARK  status: ('A' for Active; 'I' for Inactive)
REMARK    1  A    between atoms: C_1  and  C_2
REMARK    2  A    between atoms: C_5  and  C_6
REMARK    3  A    between atoms: C_7  and  N_8
REMARK    4  A    between atoms: C_9  and  C_11
REMARK    5  A    between atoms: C_17  and  C_18
REMARK    6  A    between atoms: C_20  and  C_21
REMARK                            x       y       z     vdW  Elec       q    Type
REMARK                         _______ _______ _______ _____ _____    ______ ____
ROOT
ATOM      1  C   UNL     1       1.113   8.700  20.530  0.00  0.00    +0.000 A 
ATOM      2  C   UNL     1       1.215   8.663  21.871  0.00  0.00    +0.000 A 
ATOM      3  C   UNL     1       0.415   9.599  22.671  0.00  0.00    +0.000 A 
ATOM      4  O   UNL     1       0.468   9.590  23.894  0.00  0.00    +0.000 OA
ATOM      5  C   UNL     1      -0.440  10.546  21.936  0.00  0.00    +0.000 A 
ATOM      6  C   UNL     1      -1.213  11.495  22.624  0.00  0.00    +0.000 A 
ATOM      7  C   UNL     1      -2.010  12.389  21.911  0.00  0.00    +0.000 A 
ATOM      8  C   UNL     1      -2.857  13.409  22.622  0.00  0.00    +0.000 C 
ATOM      9  C   UNL     1      -2.023  12.330  20.509  0.00  0.00    +0.000 A 
ATOM     10  C   UNL     1      -1.252  11.385  19.815  0.00  0.00    +0.000 A 
ATOM     11  C   UNL     1      -1.271  11.351  18.312  0.00  0.00    +0.000 C 
ATOM     12  C   UNL     1      -0.455  10.483  20.540  0.00  0.00    +0.000 A 
ATOM     13  O   UNL     1       0.288   9.570  19.832  0.00  0.00    +0.000 OA
ENDROOT
BRANCH   1  15
ATOM     14  N   UNL     1       2.321   6.606  20.438  0.00  0.00    +0.000 N 
ATOM     15  C   UNL     1       1.960   7.739  19.726  0.00  0.00    +0.000 C 
ATOM     16  O   UNL     1       2.207   7.947  18.542  0.00  0.00    +0.000 OA
ATOM     17  H   UNL     1       1.833   6.447  21.310  0.00  0.00    +0.000 HD
BRANCH  14  24
ATOM     18  C   UNL     1       6.394   4.732  18.343  0.00  0.00    +0.000 C 
ATOM     19  C   UNL     1       4.985   4.558  18.823  0.00  0.00    +0.000 A 
ATOM     20  C   UNL     1       4.357   3.311  18.763  0.00  0.00    +0.000 A 
ATOM     21  C   UNL     1       3.059   3.155  19.248  0.00  0.00    +0.000 A 
ATOM     22  C   UNL     1       2.364   4.238  19.816  0.00  0.00    +0.000 A 
ATOM     23  C   UNL     1       0.951   4.016  20.278  0.00  0.00    +0.000 C 
ATOM     24  C   UNL     1       2.980   5.503  19.851  0.00  0.00    +0.000 A 
ATOM     25  C   UNL     1       4.282   5.652  19.351  0.00  0.00    +0.000 A 
ENDBRANCH  14  24
ENDBRANCH   1  15
TORSDOF 2
ENDMDL
MODEL 2
REMARK VINA RESULT:      -8.3      1.215      1.232
REMARK  Name = 
REMARK  6 active torsions:
REMARK  status: ('A' for Active; 'I' for Inactive)
REMARK    1  A    between atoms: C_1  and  C_2
REMARK    2  A    between atoms: C_5  and  C_6
REMARK    3  A    between atoms: C_7  and  N_8
REMARK    4  A    between atoms: C_9  and  C_11
REMARK    5  A    between atoms: C_17  and  C_18
REMARK    6  A    between atoms: C_20  and  C_21
REMARK                            x       y       z     vdW  Elec       q    Type
REMARK                         _______ _______ _______ _____ _____    ______ ____
ROOT
ATOM      1  C   UNL     1       0.796   9.279  20.252  0.00  0.00    +0.000 A 
ATOM      2  C   UNL     1       1.052   9.012  21.545  0.00  0.00    +0.000 A 
ATOM      3  C   UNL     1       0.339   9.769  22.582  0.00  0.00    +0.000 A 
ATOM      4  O   UNL     1       0.531   9.549  23.771  0.00  0.00    +0.000 OA
ATOM      5  C   UNL     1      -0.604  10.804  22.125  0.00  0.00    +0.000 A 
ATOM      6  C   UNL     1      -1.302  11.596  23.051  0.00  0.00    +0.000 A 
ATOM      7  C   UNL     1      -2.184  12.577  22.599  0.00  0.00    +0.000 A 
ATOM      8  C   UNL     1      -2.954  13.431  23.569  0.00  0.00    +0.000 C 
ATOM      9  C   UNL     1      -2.356  12.763  21.219  0.00  0.00    +0.000 A 
ATOM     10  C   UNL     1      -1.660  11.976  20.288  0.00  0.00    +0.000 A 
ATOM     11  C   UNL     1      -1.850  12.204  18.815  0.00  0.00    +0.000 C 
ATOM     12  C   UNL     1      -0.777  10.986  20.750  0.00  0.00    +0.000 A 
ATOM     13  O   UNL     1      -0.111  10.232  19.814  0.00  0.00    +0.000 OA
ENDROOT
BRANCH   1  15
ATOM     14  N   UNL     1       2.120   7.332  19.694  0.00  0.00    +0.000 N 
ATOM     15  C   UNL     1       1.555   8.499  19.202  0.00  0.00    +0.000 C 
ATOM     16  O   UNL     1       1.572   8.860  18.029  0.00  0.00    +0.000 OA
ATOM     17  H   UNL     1       1.808   7.031  20.609  0.00  0.00    +0.000 HD
BRANCH  14  24
ATOM     18  C   UNL     1       5.361   6.295  16.101  0.00  0.00    +0.000 C 
ATOM     19  C   UNL     1       4.346   5.837  17.103  0.00  0.00    +0.000 A 
ATOM     20  C   UNL     1       4.074   4.477  17.277  0.00  0.00    +0.000 A 
ATOM     21  C   UNL     1       3.155   4.064  18.240  0.00  0.00    +0.000 A 
ATOM     22  C   UNL     1       2.496   4.997  19.061  0.00  0.00    +0.000 A 
ATOM     23  C   UNL     1       1.482   4.490  20.047  0.00  0.00    +0.000 C 
ATOM     24  C   UNL     1       2.744   6.369  18.870  0.00  0.00    +0.000 A 
ATOM     25  C   UNL     1       3.662   6.776  17.892  0.00  0.00    +0.000 A 
ENDBRANCH  14  24
ENDBRANCH   1  15
TORSDOF 2
ENDMDL
MODEL 3
REMARK VINA RESULT:      -8.1      1.561      2.736
REMARK  Name = 
REMARK  6 active torsions:
REMARK  status: ('A' for Active; 'I' for Inactive)
REMARK    1  A    between atoms: C_1  and  C_2
REMARK    2  A    between atoms: C_5  and  C_6
REMARK    3  A    between atoms: C_7  and  N_8
REMARK    4  A    between atoms: C_9  and  C_11
REMARK    5  A    between atoms: C_17  and  C_18
REMARK    6  A    between atoms: C_20  and  C_21
REMARK                            x       y       z     vdW  Elec       q    Type
REMARK                         _______ _______ _______ _____ _____    ______ ____
ROOT
ATOM      1  C   UNL     1       0.685   9.893  19.159  0.00  0.00    +0.000 A 
ATOM      2  C   UNL     1       0.028  10.779  18.389  0.00  0.00    +0.000 A 
ATOM      3  C   UNL     1      -0.936  11.690  19.020  0.00  0.00    +0.000 A 
ATOM      4  O   UNL     1      -1.546  12.520  18.358  0.00  0.00    +0.000 OA
ATOM      5  C   UNL     1      -1.138  11.550  20.472  0.00  0.00    +0.000 A 
ATOM      6  C   UNL     1      -2.065  12.361  21.147  0.00  0.00    +0.000 A 
ATOM      7  C   UNL     1      -2.249  12.208  22.520  0.00  0.00    +0.000 A 
ATOM      8  C   UNL     1      -3.228  13.069  23.270  0.00  0.00    +0.000 C 
ATOM      9  C   UNL     1      -1.505  11.238  23.209  0.00  0.00    +0.000 A 
ATOM     10  C   UNL     1      -0.577  10.424  22.540  0.00  0.00    +0.000 A 
ATOM     11  C   UNL     1       0.197   9.382  23.298  0.00  0.00    +0.000 C 
ATOM     12  C   UNL     1      -0.394  10.587  21.157  0.00  0.00    +0.000 A 
ATOM     13  O   UNL     1       0.522   9.775  20.531  0.00  0.00    +0.000 OA
ENDROOT
BRANCH   1  15
ATOM     14  N   UNL     1       2.004   7.868  19.278  0.00  0.00    +0.000 N 
ATOM     15  C   UNL     1       1.661   8.953  18.486  0.00  0.00    +0.000 C 
ATOM     16  O   UNL     1       2.019   9.132  17.326  0.00  0.00    +0.000 OA
ATOM     17  H   UNL     1       1.437   7.714  20.102  0.00  0.00    +0.000 HD
BRANCH  14  24
ATOM     18  C   UNL     1       5.457   6.162  16.171  0.00  0.00    +0.000 C 
ATOM     19  C   UNL     1       4.487   5.924  17.288  0.00  0.00    +0.000 A 
ATOM     20  C   UNL     1       4.399   4.675  17.908  0.00  0.00    +0.000 A 
ATOM     21  C   UNL     1       3.518   4.480  18.971  0.00  0.00    +0.000 A 
ATOM     22  C   UNL     1       2.715   5.532  19.448  0.00  0.00    +0.000 A 
ATOM     23  C   UNL     1       1.753   5.245  20.566  0.00  0.00    +0.000 C 
ATOM     24  C   UNL     1       2.777   6.784  18.808  0.00  0.00    +0.000 A 
ATOM     25  C   UNL     1       3.658   6.967  17.733  0.00  0.00    +0.000 A 
ENDBRANCH  14  24
ENDBRANCH   1  15
TORSDOF 2
ENDMDL
MODEL 4
REMARK VINA RESULT:      -8.0      1.031      2.390
REMARK  Name = 
REMARK  6 active torsions:
REMARK  status: ('A' for Active; 'I' for Inactive)
REMARK    1  A    between atoms: C_1  and  C_2
REMARK    2  A    between atoms: C_5  and  C_6
REMARK    3  A    between atoms: C_7  and  N_8
REMARK    4  A    between atoms: C_9  and  C_11
REMARK    5  A    between atoms: C_17  and  C_18
REMARK    6  A    between atoms: C_20  and  C_21
REMARK                            x       y       z     vdW  Elec       q    Type
REMARK                         _______ _______ _______ _____ _____    ______ ____
ROOT
ATOM      1  C   UNL     1       1.121   9.124  19.403  0.00  0.00    +0.000 A 
ATOM      2  C   UNL     1       0.568   9.901  18.455  0.00  0.00    +0.000 A 
ATOM      3  C   UNL     1      -0.387  10.942  18.857  0.00  0.00    +0.000 A 
ATOM      4  O   UNL     1      -0.904  11.679  18.028  0.00  0.00    +0.000 OA
ATOM      5  C   UNL     1      -0.696  11.047  20.293  0.00  0.00    +0.000 A 
ATOM      6  C   UNL     1      -1.623  11.994  20.758  0.00  0.00    +0.000 A 
ATOM      7  C   UNL     1      -1.909  12.074  22.121  0.00  0.00    +0.000 A 
ATOM      8  C   UNL     1      -2.889  13.086  22.648  0.00  0.00    +0.000 C 
ATOM      9  C   UNL     1      -1.268  11.197  23.009  0.00  0.00    +0.000 A 
ATOM     10  C   UNL     1      -0.342  10.247  22.551  0.00  0.00    +0.000 A 
ATOM     11  C   UNL     1       0.321   9.310  23.521  0.00  0.00    +0.000 C 
ATOM     12  C   UNL     1      -0.054  10.177  21.178  0.00  0.00    +0.000 A 
ATOM     13  O   UNL     1       0.857   9.236  20.760  0.00  0.00    +0.000 OA
ENDROOT
BRANCH   1  15
ATOM     14  N   UNL     1       2.293   7.074  19.931  0.00  0.00    +0.000 N 
ATOM     15  C   UNL     1       2.089   8.047  18.964  0.00  0.00    +0.000 C 
ATOM     16  O   UNL     1       2.555   8.034  17.829  0.00  0.00    +0.000 OA
ATOM     17  H   UNL     1       1.649   7.072  20.712  0.00  0.00    +0.000 HD
BRANCH  14  24
ATOM     18  C   UNL     1       6.535   4.946  18.527  0.00  0.00    +0.000 C 
ATOM     19  C   UNL     1       5.122   4.826  19.012  0.00  0.00    +0.000 A 
ATOM     20  C   UNL     1       4.568   3.576  19.300  0.00  0.00    +0.000 A 
ATOM     21  C   UNL     1       3.264   3.482  19.787  0.00  0.00    +0.000 A 
ATOM     22  C   UNL     1       2.490   4.635  20.010  0.00  0.00    +0.000 A 
ATOM     23  C   UNL     1       1.077   4.464  20.491  0.00  0.00    +0.000 C 
ATOM     24  C   UNL     1       3.033   5.894  19.694  0.00  0.00    +0.000 A 
ATOM     25  C   UNL     1       4.341   5.978  19.195  0.00  0.00    +0.000 A 
ENDBRANCH  14  24
ENDBRANCH   1  15
TORSDOF 2
ENDMDL
MODEL 5
REMARK VINA RESULT:      -7.9      3.368      5.531
REMARK  Name = 
REMARK  6 active torsions:
REMARK  status: ('A' for Active; 'I' for Inactive)
REMARK    1  A    between atoms: C_1  and  C_2
REMARK    2  A    between atoms: C_5  and  C_6
REMARK    3  A    between atoms: C_7  and  N_8
REMARK    4  A    between atoms: C_9  and  C_11
REMARK    5  A    between atoms: C_17  and  C_18
REMARK    6  A    between atoms: C_20  and  C_21
REMARK                            x       y       z     vdW  Elec       q    Type
REMARK                         _______ _______ _______ _____ _____    ______ ____
ROOT
ATOM      1  C   UNL     1       3.356   4.989  18.365  0.00  0.00    +0.000 A 
ATOM      2  C   UNL     1       3.080   4.281  19.474  0.00  0.00    +0.000 A 
ATOM      3  C   UNL     1       2.317   4.919  20.555  0.00  0.00    +0.000 A 
ATOM      4  O   UNL     1       2.033   4.306  21.575  0.00  0.00    +0.000 OA
ATOM      5  C   UNL     1       1.924   6.325  20.356  0.00  0.00    +0.000 A 
ATOM      6  C   UNL     1       1.221   7.019  21.353  0.00  0.00    +0.000 A 
ATOM      7  C   UNL     1       0.865   8.352  21.150  0.00  0.00    +0.000 A 
ATOM      8  C   UNL     1       0.102   9.117  22.197  0.00  0.00    +0.000 C 
ATOM      9  C   UNL     1       1.221   8.983  19.949  0.00  0.00    +0.000 A 
ATOM     10  C   UNL     1       1.925   8.294  18.948  0.00  0.00    +0.000 A 
ATOM     11  C   UNL     1       2.308   8.996  17.675  0.00  0.00    +0.000 C 
ATOM     12  C   UNL     1       2.276   6.950  19.157  0.00  0.00    +0.000 A 
ATOM     13  O   UNL     1       2.965   6.304  18.158  0.00  0.00    +0.000 OA
ENDROOT
BRANCH   1  15
ATOM     14  N   UNL     1       4.533   5.187  16.260  0.00  0.00    +0.000 N 
ATOM     15  C   UNL     1       4.158   4.317  17.273  0.00  0.00    +0.000 C 
ATOM     16  O   UNL     1       4.487   3.138  17.359  0.00  0.00    +0.000 OA
ATOM     17  H   UNL     1       4.416   6.174  16.448  0.00  0.00    +0.000 HD
BRANCH  14  24
ATOM     18  C   UNL     1       5.197   3.096  11.825  0.00  0.00    +0.000 C 
ATOM     19  C   UNL     1       5.757   3.802  13.022  0.00  0.00    +0.000 A 
ATOM     20  C   UNL     1       7.106   4.163  13.075  0.00  0.00    +0.000 A 
ATOM     21  C   UNL     1       7.603   4.853  14.180  0.00  0.00    +0.000 A 
ATOM     22  C   UNL     1       6.763   5.210  15.250  0.00  0.00    +0.000 A 
ATOM     23  C   UNL     1       7.370   5.912  16.432  0.00  0.00    +0.000 C 
ATOM     24  C   UNL     1       5.410   4.822  15.216  0.00  0.00    +0.000 A 
ATOM     25  C   UNL     1       4.922   4.119  14.105  0.00  0.00    +0.000 A 
ENDBRANCH  14  24
ENDBRANCH   1  15
TORSDOF 2
ENDMDL
MODEL 6
REMARK VINA RESULT:      -7.9      1.753      1.861
REMARK  Name = 
REMARK  6 active torsions:
REMARK  status: ('A' for Active; 'I' for Inactive)
REMARK    1  A    between atoms: C_1  and  C_2
REMARK    2  A    between atoms: C_5  and  C_6
REMARK    3  A    between atoms: C_7  and  N_8
REMARK    4  A    between atoms: C_9  and  C_11
REMARK    5  A    between atoms: C_17  and  C_18
REMARK    6  A    between atoms: C_20  and  C_21
REMARK                            x       y       z     vdW  Elec       q    Type
REMARK                         _______ _______ _______ _____ _____    ______ ____
ROOT
ATOM      1  C   UNL     1       1.400   8.934  19.547  0.00  0.00    +0.000 A 
ATOM      2  C   UNL     1       0.760   8.207  20.480  0.00  0.00    +0.000 A 
ATOM      3  C   UNL     1      -0.035   8.902  21.501  0.00  0.00    +0.000 A 
ATOM      4  O   UNL     1      -0.644   8.278  22.360  0.00  0.00    +0.000 OA
ATOM      5  C   UNL     1      -0.056  10.374  21.445  0.00  0.00    +0.000 A 
ATOM      6  C   UNL     1      -0.766  11.116  22.402  0.00  0.00    +0.000 A 
ATOM      7  C   UNL     1      -0.767  12.509  22.338  0.00  0.00    +0.000 A 
ATOM      8  C   UNL     1      -1.527  13.329  23.344  0.00  0.00    +0.000 C 
ATOM      9  C   UNL     1      -0.050  13.150  21.317  0.00  0.00    +0.000 A 
ATOM     10  C   UNL     1       0.663  12.414  20.357  0.00  0.00    +0.000 A 
ATOM     11  C   UNL     1       1.435  13.124  19.281  0.00  0.00    +0.000 C 
ATOM     12  C   UNL     1       0.655  11.011  20.424  0.00  0.00    +0.000 A 
ATOM     13  O   UNL     1       1.362  10.318  19.470  0.00  0.00    +0.000 OA
ENDROOT
BRANCH   1  15
ATOM     14  N   UNL     1       2.721   6.988  18.980  0.00  0.00    +0.000 N 
ATOM     15  C   UNL     1       2.227   8.198  18.516  0.00  0.00    +0.000 C 
ATOM     16  O   UNL     1       2.351   8.629  17.374  0.00  0.00    +0.000 OA
ATOM     17  H   UNL     1       2.326   6.641  19.845  0.00  0.00    +0.000 HD
BRANCH  14  24
ATOM     18  C   UNL     1       6.750   5.773  16.376  0.00  0.00    +0.000 C 
ATOM     19  C   UNL     1       5.375   5.438  16.868  0.00  0.00    +0.000 A 
ATOM     20  C   UNL     1       4.792   4.202  16.580  0.00  0.00    +0.000 A 
ATOM     21  C   UNL     1       3.527   3.890  17.077  0.00  0.00    +0.000 A 
ATOM     22  C   UNL     1       2.822   4.801  17.884  0.00  0.00    +0.000 A 
ATOM     23  C   UNL     1       1.443   4.424  18.349  0.00  0.00    +0.000 C 
ATOM     24  C   UNL     1       3.391   6.060  18.152  0.00  0.00    +0.000 A 
ATOM     25  C   UNL     1       4.659   6.368  17.639  0.00  0.00    +0.000 A 
ENDBRANCH  14  24
ENDBRANCH   1  15
TORSDOF 2
ENDMDL
MODEL 7
REMARK VINA RESULT:      -7.8      1.512      1.673
REMARK  Name = 
REMARK  6 active torsions:
REMARK  status: ('A' for Active; 'I' for Inactive)
REMARK    1  A    between atoms: C_1  and  C_2
REMARK    2  A    between atoms: C_5  and  C_6
REMARK    3  A    between atoms: C_7  and  N_8
REMARK    4  A    between atoms: C_9  and  C_11
REMARK    5  A    between atoms: C_17  and  C_18
REMARK    6  A    between atoms: C_20  and  C_21
REMARK                            x       y       z     vdW  Elec       q    Type
REMARK                         _______ _______ _______ _____ _____    ______ ____
ROOT
ATOM      1  C   UNL     1       1.353   8.076  20.494  0.00  0.00    +0.000 A 
ATOM      2  C   UNL     1       1.434   8.369  21.804  0.00  0.00    +0.000 A 
ATOM      3  C   UNL     1       0.653   9.497  22.329  0.00  0.00    +0.000 A 
ATOM      4  O   UNL     1       0.688   9.790  23.517  0.00  0.00    +0.000 OA
ATOM      5  C   UNL     1      -0.158  10.257  21.363  0.00  0.00    +0.000 A 
ATOM      6  C   UNL     1      -0.909  11.369  21.777  0.00  0.00    +0.000 A 
ATOM      7  C   UNL     1      -1.664  12.081  20.846  0.00  0.00    +0.000 A 
ATOM      8  C   UNL     1      -2.486  13.270  21.263  0.00  0.00    +0.000 C 
ATOM      9  C   UNL     1      -1.657  11.677  19.502  0.00  0.00    +0.000 A 
ATOM     10  C   UNL     1      -0.908  10.567  19.081  0.00  0.00    +0.000 A 
ATOM     11  C   UNL     1      -0.905  10.162  17.634  0.00  0.00    +0.000 C 
ATOM     12  C   UNL     1      -0.154   9.851  20.026  0.00  0.00    +0.000 A 
ATOM     13  O   UNL     1       0.569   8.769  19.582  0.00  0.00    +0.000 OA
ENDROOT
BRANCH   1  15
ATOM     14  N   UNL     1       2.490   7.041  18.626  0.00  0.00    +0.000 N 
ATOM     15  C   UNL     1       2.179   6.921  19.971  0.00  0.00    +0.000 C 
ATOM     16  O   UNL     1       2.578   6.034  20.720  0.00  0.00    +0.000 OA
ATOM     17  H   UNL     1       2.319   7.944  18.202  0.00  0.00    +0.000 HD
BRANCH  14  24
ATOM     18  C   UNL     1       7.034   6.126  16.892  0.00  0.00    +0.000 C 
ATOM     19  C   UNL     1       5.615   5.693  17.102  0.00  0.00    +0.000 A 
ATOM     20  C   UNL     1       5.190   4.419  16.715  0.00  0.00    +0.000 A 
ATOM     21  C   UNL     1       3.875   4.017  16.951  0.00  0.00    +0.000 A 
ATOM     22  C   UNL     1       2.961   4.872  17.592  0.00  0.00    +0.000 A 
ATOM     23  C   UNL     1       1.547   4.397  17.775  0.00  0.00    +0.000 C 
ATOM     24  C   UNL     1       3.375   6.166  17.957  0.00  0.00    +0.000 A 
ATOM     25  C   UNL     1       4.696   6.565  17.706  0.00  0.00    +0.000 A 
ENDBRANCH  14  24
ENDBRANCH   1  15
TORSDOF 2
ENDMDL
MODEL 8
REMARK VINA RESULT:      -7.7      1.668      2.799
REMARK  Name = 
REMARK  6 active torsions:
REMARK  status: ('A' for Active; 'I' for Inactive)
REMARK    1  A    between atoms: C_1  and  C_2
REMARK    2  A    between atoms: C_5  and  C_6
REMARK    3  A    between atoms: C_7  and  N_8
REMARK    4  A    between atoms: C_9  and  C_11
REMARK    5  A    between atoms: C_17  and  C_18
REMARK    6  A    between atoms: C_20  and  C_21
REMARK                            x       y       z     vdW  Elec       q    Type
REMARK                         _______ _______ _______ _____ _____    ______ ____
ROOT
ATOM      1  C   UNL     1       1.339   9.156  18.692  0.00  0.00    +0.000 A 
ATOM      2  C   UNL     1       0.474   9.846  17.929  0.00  0.00    +0.000 A 
ATOM      3  C   UNL     1      -0.539  10.685  18.584  0.00  0.00    +0.000 A 
ATOM      4  O   UNL     1      -1.338  11.340  17.927  0.00  0.00    +0.000 OA
ATOM      5  C   UNL     1      -0.552  10.691  20.057  0.00  0.00    +0.000 A 
ATOM      6  C   UNL     1      -1.507  11.440  20.761  0.00  0.00    +0.000 A 
ATOM      7  C   UNL     1      -1.509  11.427  22.156  0.00  0.00    +0.000 A 
ATOM      8  C   UNL     1      -2.515  12.229  22.936  0.00  0.00    +0.000 C 
ATOM      9  C   UNL     1      -0.555  10.656  22.836  0.00  0.00    +0.000 A 
ATOM     10  C   UNL     1       0.403   9.903  22.138  0.00  0.00    +0.000 A 
ATOM     11  C   UNL     1       1.406   9.074  22.890  0.00  0.00    +0.000 C 
ATOM     12  C   UNL     1       0.402   9.926  20.734  0.00  0.00    +0.000 A 
ATOM     13  O   UNL     1       1.352   9.178  20.079  0.00  0.00    +0.000 OA
ENDROOT
BRANCH   1  15
ATOM     14  N   UNL     1       2.623   7.105  18.676  0.00  0.00    +0.000 N 
ATOM     15  C   UNL     1       2.362   8.285  17.997  0.00  0.00    +0.000 C 
ATOM     16  O   UNL     1       2.825   8.596  16.903  0.00  0.00    +0.000 OA
ATOM     17  H   UNL     1       1.983   6.863  19.422  0.00  0.00    +0.000 HD
BRANCH  14  24
ATOM     18  C   UNL     1       7.125   5.414  17.507  0.00  0.00    +0.000 C 
ATOM     19  C   UNL     1       5.641   5.214  17.570  0.00  0.00    +0.000 A 
ATOM     20  C   UNL     1       5.064   4.001  17.185  0.00  0.00    +0.000 A 
ATOM     21  C   UNL     1       3.685   3.818  17.285  0.00  0.00    +0.000 A 
ATOM     22  C   UNL     1       2.853   4.836  17.785  0.00  0.00    +0.000 A 
ATOM     23  C   UNL     1       1.371   4.592  17.823  0.00  0.00    +0.000 C 
ATOM     24  C   UNL     1       3.425   6.070  18.146  0.00  0.00    +0.000 A 
ATOM     25  C   UNL     1       4.811   6.249  18.032  0.00  0.00    +0.000 A 
ENDBRANCH  14  24
ENDBRANCH   1  15
TORSDOF 2
ENDMDL
MODEL 9
REMARK VINA RESULT:      -7.7      1.782      2.132
REMARK  Name = 
REMARK  6 active torsions:
REMARK  status: ('A' for Active; 'I' for Inactive)
REMARK    1  A    between atoms: C_1  and  C_2
REMARK    2  A    between atoms: C_5  and  C_6
REMARK    3  A    between atoms: C_7  and  N_8
REMARK    4  A    between atoms: C_9  and  C_11
REMARK    5  A    between atoms: C_17  and  C_18
REMARK    6  A    between atoms: C_20  and  C_21
REMARK                            x       y       z     vdW  Elec       q    Type
REMARK                         _______ _______ _______ _____ _____    ______ ____
ROOT
ATOM      1  C   UNL     1       0.719   9.806  19.054  0.00  0.00    +0.000 A 
ATOM      2  C   UNL     1       1.058  10.435  20.193  0.00  0.00    +0.000 A 
ATOM      3  C   UNL     1       0.088  11.342  20.821  0.00  0.00    +0.000 A 
ATOM      4  O   UNL     1       0.351  11.924  21.865  0.00  0.00    +0.000 OA
ATOM      5  C   UNL     1      -1.201  11.522  20.133  0.00  0.00    +0.000 A 
ATOM      6  C   UNL     1      -2.172  12.396  20.648  0.00  0.00    +0.000 A 
ATOM      7  C   UNL     1      -3.384  12.560  19.978  0.00  0.00    +0.000 A 
ATOM      8  C   UNL     1      -4.445  13.481  20.514  0.00  0.00    +0.000 C 
ATOM      9  C   UNL     1      -3.613  11.851  18.790  0.00  0.00    +0.000 A 
ATOM     10  C   UNL     1      -2.646  10.976  18.268  0.00  0.00    +0.000 A 
ATOM     11  C   UNL     1      -2.909  10.238  16.986  0.00  0.00    +0.000 C 
ATOM     12  C   UNL     1      -1.430  10.812  18.951  0.00  0.00    +0.000 A 
ATOM     13  O   UNL     1      -0.504   9.949  18.415  0.00  0.00    +0.000 OA
ENDROOT
BRANCH   1  15
ATOM     14  N   UNL     1       2.061   7.799  19.208  0.00  0.00    +0.000 N 
ATOM     15  C   UNL     1       1.740   8.890  18.416  0.00  0.00    +0.000 C 
ATOM     16  O   UNL     1       2.152   9.092  17.277  0.00  0.00    +0.000 OA
ATOM     17  H   UNL     1       1.457   7.624  20.001  0.00  0.00    +0.000 HD
BRANCH  14  24
ATOM     18  C   UNL     1       5.524   6.133  16.090  0.00  0.00    +0.000 C 
ATOM     19  C   UNL     1       4.588   5.894  17.236  0.00  0.00    +0.000 A 
ATOM     20  C   UNL     1       4.570   4.666  17.902  0.00  0.00    +0.000 A 
ATOM     21  C   UNL     1       3.720   4.472  18.991  0.00  0.00    +0.000 A 
ATOM     22  C   UNL     1       2.880   5.504  19.447  0.00  0.00    +0.000 A 
ATOM     23  C   UNL     1       1.954   5.216  20.595  0.00  0.00    +0.000 C 
ATOM     24  C   UNL     1       2.873   6.733  18.761  0.00  0.00    +0.000 A 
ATOM     25  C   UNL     1       3.723   6.915  17.661  0.00  0.00    +0.000 A 
ENDBRANCH  14  24
ENDBRANCH   1  15
TORSDOF 2
ENDMDL
