MODEL 1
REMARK VINA RESULT:      -9.0      0.000      0.000
REMARK  Name = 
REMARK  7 active torsions:
REMARK  status: ('A' for Active; 'I' for Inactive)
REMARK    1  A    between atoms: C_1  and  C_2
REMARK    2  A    between atoms: C_3  and  C_4
REMARK    3  A    between atoms: C_4  and  C_5
REMARK    4  A    between atoms: C_18  and  C_19
REMARK    5  A    between atoms: C_22  and  C_23
REMARK    6  A    between atoms: C_23  and  C_24
REMARK    7  A    between atoms: C_23  and  C_25
REMARK                            x       y       z     vdW  Elec       q    Type
REMARK                         _______ _______ _______ _____ _____    ______ ____
ROOT
ATOM      1  C   UNL     1       6.273   7.284  16.704  0.00  0.00    +0.000 C 
ATOM      2  C   UNL     1       5.219   6.296  17.079  0.00  0.00    +0.000 C 
ATOM      3  C   UNL     1       5.255   4.951  16.936  0.00  0.00    +0.000 C 
ATOM      4  C   UNL     1       3.951   4.414  17.360  0.00  0.00    +0.000 A 
ATOM      5  C   UNL     1       3.500   3.099  17.368  0.00  0.00    +0.000 A 
ATOM      6  C   UNL     1       2.187   2.839  17.765  0.00  0.00    +0.000 A 
ATOM      7  C   UNL     1       1.338   3.887  18.133  0.00  0.00    +0.000 A 
ATOM      8  C   UNL     1       1.798   5.207  18.128  0.00  0.00    +0.000 A 
ATOM      9  C   UNL     1       3.110   5.465  17.758  0.00  0.00    +0.000 A 
ATOM     10  C   UNL     1       3.923   6.694  17.651  0.00  0.00    +0.000 C 
ATOM     11  C   UNL     1       3.615   7.946  18.041  0.00  0.00    +0.000 C 
ENDROOT
BRANCH  11  12
ATOM     12  C   UNL     1       2.345   8.328  18.659  0.00  0.00    +0.000 A 
ATOM     13  C   UNL     1       1.467   9.182  17.985  0.00  0.00    +0.000 A 
ATOM     14  C   UNL     1       0.380   9.742  18.662  0.00  0.00    +0.000 A 
ATOM     15  C   UNL     1       0.157   9.453  20.016  0.00  0.00    +0.000 A 
ATOM     16  C   UNL     1       0.994   8.523  20.654  0.00  0.00    +0.000 A 
ATOM     17  C   UNL     1       2.078   7.961  19.979  0.00  0.00    +0.000 A 
BRANCH  15  18
ATOM     18  C   UNL     1      -0.923  10.201  20.776  0.00  0.00    +0.000 C 
ATOM     19  C   UNL     1      -0.579  10.364  22.256  0.00  0.00    +0.000 C 
ATOM     20  C   UNL     1      -1.213  11.561  20.129  0.00  0.00    +0.000 C 
ENDBRANCH  15  18
ENDBRANCH  11  12
BRANCH   3  21
ATOM     21  C   UNL     1       6.360   4.076  16.446  0.00  0.00    +0.000 C 
BRANCH  21  22
ATOM     22  C   UNL     1       6.628   4.207  14.968  0.00  0.00    +0.000 A 
ATOM     23  N   UNL     1       7.431   5.092  14.475  0.00  0.00    +0.000 NA
ATOM     24  O   UNL     1       7.408   4.863  13.063  0.00  0.00    +0.000 OA
ATOM     25  C   UNL     1       6.555   3.808  12.861  0.00  0.00    +0.000 A 
ATOM     26  O   UNL     1       6.297   3.297  11.787  0.00  0.00    +0.000 OA
ATOM     27  N   UNL     1       6.066   3.428  14.052  0.00  0.00    +0.000 N 
ATOM     28  H   UNL     1       5.436   2.655  14.181  0.00  0.00    +0.000 HD
ENDBRANCH  21  22
ENDBRANCH   3  21
TORSDOF 4
ENDMDL
MODEL 2
REMARK VINA RESULT:      -8.9      0.785      1.166
REMARK  Name = 
REMARK  7 active torsions:
REMARK  status: ('A' for Active; 'I' for Inactive)
REMARK    1  A    between atoms: C_1  and  C_2
REMARK    2  A    between atoms: C_3  and  C_4
REMARK    3  A    between atoms: C_4  and  C_5
REMARK    4  A    between atoms: C_18  and  C_19
REMARK    5  A    between atoms: C_22  and  C_23
REMARK    6  A    between atoms: C_23  and  C_24
REMARK    7  A    between atoms: C_23  and  C_25
REMARK                            x       y       z     vdW  Elec       q    Type
REMARK                         _______ _______ _______ _____ _____    ______ ____
ROOT
ATOM      1  C   UNL     1       5.818   6.782  16.108  0.00  0.00    +0.000 C 
ATOM      2  C   UNL     1       4.844   5.838  16.731  0.00  0.00    +0.000 C 
ATOM      3  C   UNL     1       4.845   4.487  16.670  0.00  0.00    +0.000 C 
ATOM      4  C   UNL     1       3.637   4.000  17.358  0.00  0.00    +0.000 A 
ATOM      5  C   UNL     1       3.186   2.696  17.532  0.00  0.00    +0.000 A 
ATOM      6  C   UNL     1       1.966   2.485  18.177  0.00  0.00    +0.000 A 
ATOM      7  C   UNL     1       1.205   3.569  18.625  0.00  0.00    +0.000 A 
ATOM      8  C   UNL     1       1.665   4.878  18.453  0.00  0.00    +0.000 A 
ATOM      9  C   UNL     1       2.889   5.089  17.834  0.00  0.00    +0.000 A 
ATOM     10  C   UNL     1       3.677   6.294  17.502  0.00  0.00    +0.000 C 
ATOM     11  C   UNL     1       3.453   7.573  17.861  0.00  0.00    +0.000 C 
ENDROOT
BRANCH  11  12
ATOM     12  C   UNL     1       2.320   8.015  18.673  0.00  0.00    +0.000 A 
ATOM     13  C   UNL     1       1.476   9.028  18.207  0.00  0.00    +0.000 A 
ATOM     14  C   UNL     1       0.552   9.621  19.072  0.00  0.00    +0.000 A 
ATOM     15  C   UNL     1       0.457   9.206  20.409  0.00  0.00    +0.000 A 
ATOM     16  C   UNL     1       1.247   8.125  20.838  0.00  0.00    +0.000 A 
ATOM     17  C   UNL     1       2.168   7.532  19.974  0.00  0.00    +0.000 A 
BRANCH  15  18
ATOM     18  C   UNL     1      -0.429   9.973  21.374  0.00  0.00    +0.000 C 
ATOM     19  C   UNL     1      -0.100   9.658  22.832  0.00  0.00    +0.000 C 
ATOM     20  C   UNL     1      -0.354  11.482  21.110  0.00  0.00    +0.000 C 
ENDBRANCH  15  18
ENDBRANCH  11  12
BRANCH   3  21
ATOM     21  C   UNL     1       5.836   3.564  16.045  0.00  0.00    +0.000 C 
BRANCH  21  22
ATOM     22  C   UNL     1       6.448   4.100  14.776  0.00  0.00    +0.000 A 
ATOM     23  N   UNL     1       5.975   3.840  13.601  0.00  0.00    +0.000 NA
ATOM     24  O   UNL     1       6.829   4.546  12.697  0.00  0.00    +0.000 OA
ATOM     25  C   UNL     1       7.760   5.187  13.471  0.00  0.00    +0.000 A 
ATOM     26  O   UNL     1       8.644   5.917  13.064  0.00  0.00    +0.000 OA
ATOM     27  N   UNL     1       7.520   4.883  14.757  0.00  0.00    +0.000 N 
ATOM     28  H   UNL     1       8.049   5.249  15.530  0.00  0.00    +0.000 HD
ENDBRANCH  21  22
ENDBRANCH   3  21
TORSDOF 4
ENDMDL
MODEL 3
REMARK VINA RESULT:      -8.3      1.374      1.456
REMARK  Name = 
REMARK  7 active torsions:
REMARK  status: ('A' for Active; 'I' for Inactive)
REMARK    1  A    between atoms: C_1  and  C_2
REMARK    2  A    between atoms: C_3  and  C_4
REMARK    3  A    between atoms: C_4  and  C_5
REMARK    4  A    between atoms: C_18  and  C_19
REMARK    5  A    between atoms: C_22  and  C_23
REMARK    6  A    between atoms: C_23  and  C_24
REMARK    7  A    between atoms: C_23  and  C_25
REMARK                            x       y       z     vdW  Elec       q    Type
REMARK                         _______ _______ _______ _____ _____    ______ ____
ROOT
ATOM      1  C   UNL     1       5.015   6.997  16.209  0.00  0.00    +0.000 C 
ATOM      2  C   UNL     1       4.364   6.316  17.366  0.00  0.00    +0.000 C 
ATOM      3  C   UNL     1       4.666   5.106  17.893  0.00  0.00    +0.000 C 
ATOM      4  C   UNL     1       3.692   4.819  18.959  0.00  0.00    +0.000 A 
ATOM      5  C   UNL     1       3.575   3.694  19.767  0.00  0.00    +0.000 A 
ATOM      6  C   UNL     1       2.522   3.626  20.681  0.00  0.00    +0.000 A 
ATOM      7  C   UNL     1       1.594   4.667  20.770  0.00  0.00    +0.000 A 
ATOM      8  C   UNL     1       1.718   5.800  19.960  0.00  0.00    +0.000 A 
ATOM      9  C   UNL     1       2.778   5.880  19.068  0.00  0.00    +0.000 A 
ATOM     10  C   UNL     1       3.225   6.897  18.094  0.00  0.00    +0.000 C 
ATOM     11  C   UNL     1       2.760   8.147  17.907  0.00  0.00    +0.000 C 
ENDROOT
BRANCH  11  12
ATOM     12  C   UNL     1       1.662   8.741  18.669  0.00  0.00    +0.000 A 
ATOM     13  C   UNL     1       0.650   9.445  18.009  0.00  0.00    +0.000 A 
ATOM     14  C   UNL     1      -0.256  10.216  18.742  0.00  0.00    +0.000 A 
ATOM     15  C   UNL     1      -0.166  10.290  20.140  0.00  0.00    +0.000 A 
ATOM     16  C   UNL     1       0.798   9.505  20.795  0.00  0.00    +0.000 A 
ATOM     17  C   UNL     1       1.702   8.733  20.065  0.00  0.00    +0.000 A 
BRANCH  15  18
ATOM     18  C   UNL     1      -1.048  11.262  20.901  0.00  0.00    +0.000 C 
ATOM     19  C   UNL     1      -0.856  11.152  22.413  0.00  0.00    +0.000 C 
ATOM     20  C   UNL     1      -0.821  12.702  20.423  0.00  0.00    +0.000 C 
ENDBRANCH  15  18
ENDBRANCH  11  12
BRANCH   3  21
ATOM     21  C   UNL     1       5.759   4.158  17.530  0.00  0.00    +0.000 C 
BRANCH  21  22
ATOM     22  C   UNL     1       6.344   4.400  16.163  0.00  0.00    +0.000 A 
ATOM     23  N   UNL     1       7.411   5.105  15.969  0.00  0.00    +0.000 NA
ATOM     24  O   UNL     1       7.623   5.068  14.555  0.00  0.00    +0.000 OA
ATOM     25  C   UNL     1       6.614   4.300  14.036  0.00  0.00    +0.000 A 
ATOM     26  O   UNL     1       6.470   4.010  12.863  0.00  0.00    +0.000 OA
ATOM     27  N   UNL     1       5.819   3.911  15.046  0.00  0.00    +0.000 N 
ATOM     28  H   UNL     1       5.017   3.314  14.934  0.00  0.00    +0.000 HD
ENDBRANCH  21  22
ENDBRANCH   3  21
TORSDOF 4
ENDMDL
MODEL 4
REMARK VINA RESULT:      -8.2      6.932     10.512
REMARK  Name = 
REMARK  7 active torsions:
REMARK  status: ('A' for Active; 'I' for Inactive)
REMARK    1  A    between atoms: C_1  and  C_2
REMARK    2  A    between atoms: C_3  and  C_4
REMARK    3  A    between atoms: C_4  and  C_5
REMARK    4  A    between atoms: C_18  and  C_19
REMARK    5  A    between atoms: C_22  and  C_23
REMARK    6  A    between atoms: C_23  and  C_24
REMARK    7  A    between atoms: C_23  and  C_25
REMARK                            x       y       z     vdW  Elec       q    Type
REMARK                         _______ _______ _______ _____ _____    ______ ____
ROOT
ATOM      1  C   UNL     1      -0.773  11.886  22.353  0.00  0.00    +0.000 C 
ATOM      2  C   UNL     1      -1.170  11.592  20.945  0.00  0.00    +0.000 C 
ATOM      3  C   UNL     1      -2.159  12.169  20.225  0.00  0.00    +0.000 C 
ATOM      4  C   UNL     1      -2.231  11.485  18.923  0.00  0.00    +0.000 A 
ATOM      5  C   UNL     1      -3.101  11.702  17.860  0.00  0.00    +0.000 A 
ATOM      6  C   UNL     1      -3.011  10.878  16.736  0.00  0.00    +0.000 A 
ATOM      7  C   UNL     1      -2.072   9.844  16.690  0.00  0.00    +0.000 A 
ATOM      8  C   UNL     1      -1.195   9.633  17.759  0.00  0.00    +0.000 A 
ATOM      9  C   UNL     1      -1.266  10.467  18.865  0.00  0.00    +0.000 A 
ATOM     10  C   UNL     1      -0.516  10.551  20.136  0.00  0.00    +0.000 C 
ATOM     11  C   UNL     1       0.590   9.878  20.508  0.00  0.00    +0.000 C 
ENDROOT
BRANCH  11  12
ATOM     12  C   UNL     1       1.268   8.883  19.678  0.00  0.00    +0.000 A 
ATOM     13  C   UNL     1       1.542   7.612  20.192  0.00  0.00    +0.000 A 
ATOM     14  C   UNL     1       2.398   6.749  19.502  0.00  0.00    +0.000 A 
ATOM     15  C   UNL     1       2.986   7.144  18.292  0.00  0.00    +0.000 A 
ATOM     16  C   UNL     1       2.630   8.387  17.743  0.00  0.00    +0.000 A 
ATOM     17  C   UNL     1       1.773   9.249  18.430  0.00  0.00    +0.000 A 
BRANCH  15  18
ATOM     18  C   UNL     1       4.042   6.265  17.646  0.00  0.00    +0.000 C 
ATOM     19  C   UNL     1       5.214   7.079  17.100  0.00  0.00    +0.000 C 
ATOM     20  C   UNL     1       4.532   5.186  18.620  0.00  0.00    +0.000 C 
ENDBRANCH  15  18
ENDBRANCH  11  12
BRANCH   3  21
ATOM     21  C   UNL     1      -3.069  13.293  20.590  0.00  0.00    +0.000 C 
BRANCH  21  22
ATOM     22  C   UNL     1      -4.379  12.845  21.185  0.00  0.00    +0.000 A 
ATOM     23  N   UNL     1      -4.514  12.528  22.432  0.00  0.00    +0.000 NA
ATOM     24  O   UNL     1      -5.894  12.183  22.576  0.00  0.00    +0.000 OA
ATOM     25  C   UNL     1      -6.461  12.347  21.339  0.00  0.00    +0.000 A 
ATOM     26  O   UNL     1      -7.634  12.179  21.066  0.00  0.00    +0.000 OA
ATOM     27  N   UNL     1      -5.501  12.738  20.485  0.00  0.00    +0.000 N 
ATOM     28  H   UNL     1      -5.664  12.952  19.516  0.00  0.00    +0.000 HD
ENDBRANCH  21  22
ENDBRANCH   3  21
TORSDOF 4
ENDMDL
MODEL 5
REMARK VINA RESULT:      -8.0      0.914      1.188
REMARK  Name = 
REMARK  7 active torsions:
REMARK  status: ('A' for Active; 'I' for Inactive)
REMARK    1  A    between atoms: C_1  and  C_2
REMARK    2  A    between atoms: C_3  and  C_4
REMARK    3  A    between atoms: C_4  and  C_5
REMARK    4  A    between atoms: C_18  and  C_19
REMARK    5  A    between atoms: C_22  and  C_23
REMARK    6  A    between atoms: C_23  and  C_24
REMARK    7  A    between atoms: C_23  and  C_25
REMARK                            x       y       z     vdW  Elec       q    Type
REMARK                         _______ _______ _______ _____ _____    ______ ____
ROOT
ATOM      1  C   UNL     1       5.825   6.758  15.690  0.00  0.00    +0.000 C 
ATOM      2  C   UNL     1       4.907   5.826  16.408  0.00  0.00    +0.000 C 
ATOM      3  C   UNL     1       4.915   4.473  16.385  0.00  0.00    +0.000 C 
ATOM      4  C   UNL     1       3.764   3.998  17.170  0.00  0.00    +0.000 A 
ATOM      5  C   UNL     1       3.340   2.696  17.414  0.00  0.00    +0.000 A 
ATOM      6  C   UNL     1       2.170   2.495  18.149  0.00  0.00    +0.000 A 
ATOM      7  C   UNL     1       1.433   3.586  18.620  0.00  0.00    +0.000 A 
ATOM      8  C   UNL     1       1.867   4.893  18.378  0.00  0.00    +0.000 A 
ATOM      9  C   UNL     1       3.042   5.094  17.668  0.00  0.00    +0.000 A 
ATOM     10  C   UNL     1       3.793   6.295  17.247  0.00  0.00    +0.000 C 
ATOM     11  C   UNL     1       3.583   7.582  17.584  0.00  0.00    +0.000 C 
ENDROOT
BRANCH  11  12
ATOM     12  C   UNL     1       2.506   8.039  18.463  0.00  0.00    +0.000 A 
ATOM     13  C   UNL     1       1.671   9.087  18.062  0.00  0.00    +0.000 A 
ATOM     14  C   UNL     1       0.811   9.686  18.985  0.00  0.00    +0.000 A 
ATOM     15  C   UNL     1       0.771   9.245  20.316  0.00  0.00    +0.000 A 
ATOM     16  C   UNL     1       1.548   8.133  20.681  0.00  0.00    +0.000 A 
ATOM     17  C   UNL     1       2.407   7.532  19.759  0.00  0.00    +0.000 A 
BRANCH  15  18
ATOM     18  C   UNL     1      -0.041  10.016  21.340  0.00  0.00    +0.000 C 
ATOM     19  C   UNL     1      -1.134  10.863  20.690  0.00  0.00    +0.000 C 
ATOM     20  C   UNL     1      -0.633   9.075  22.397  0.00  0.00    +0.000 C 
ENDBRANCH  15  18
ENDBRANCH  11  12
BRANCH   3  21
ATOM     21  C   UNL     1       5.868   3.540  15.717  0.00  0.00    +0.000 C 
BRANCH  21  22
ATOM     22  C   UNL     1       5.869   3.647  14.213  0.00  0.00    +0.000 A 
ATOM     23  N   UNL     1       6.921   3.961  13.530  0.00  0.00    +0.000 NA
ATOM     24  O   UNL     1       6.494   3.934  12.165  0.00  0.00    +0.000 OA
ATOM     25  C   UNL     1       5.170   3.581  12.185  0.00  0.00    +0.000 A 
ATOM     26  O   UNL     1       4.461   3.422  11.209  0.00  0.00    +0.000 OA
ATOM     27  N   UNL     1       4.795   3.426  13.465  0.00  0.00    +0.000 N 
ATOM     28  H   UNL     1       3.873   3.142  13.751  0.00  0.00    +0.000 HD
ENDBRANCH  21  22
ENDBRANCH   3  21
TORSDOF 4
ENDMDL
MODEL 6
REMARK VINA RESULT:      -8.0      2.212      2.788
REMARK  Name = 
REMARK  7 active torsions:
REMARK  status: ('A' for Active; 'I' for Inactive)
REMARK    1  A    between atoms: C_1  and  C_2
REMARK    2  A    between atoms: C_3  and  C_4
REMARK    3  A    between atoms: C_4  and  C_5
REMARK    4  A    between atoms: C_18  and  C_19
REMARK    5  A    between atoms: C_22  and  C_23
REMARK    6  A    between atoms: C_23  and  C_24
REMARK    7  A    between atoms: C_23  and  C_25
REMARK                            x       y       z     vdW  Elec       q    Type
REMARK                         _______ _______ _______ _____ _____    ______ ____
ROOT
ATOM      1  C   UNL     1       4.580   7.230  16.176  0.00  0.00    +0.000 C 
ATOM      2  C   UNL     1       3.885   6.384  17.191  0.00  0.00    +0.000 C 
ATOM      3  C   UNL     1       4.066   5.066  17.435  0.00  0.00    +0.000 C 
ATOM      4  C   UNL     1       3.091   4.656  18.459  0.00  0.00    +0.000 A 
ATOM      5  C   UNL     1       2.871   3.400  19.015  0.00  0.00    +0.000 A 
ATOM      6  C   UNL     1       1.838   3.244  19.940  0.00  0.00    +0.000 A 
ATOM      7  C   UNL     1       1.030   4.330  20.290  0.00  0.00    +0.000 A 
ATOM      8  C   UNL     1       1.259   5.592  19.733  0.00  0.00    +0.000 A 
ATOM      9  C   UNL     1       2.301   5.755  18.832  0.00  0.00    +0.000 A 
ATOM     10  C   UNL     1       2.833   6.907  18.076  0.00  0.00    +0.000 C 
ATOM     11  C   UNL     1       2.502   8.209  18.179  0.00  0.00    +0.000 C 
ENDROOT
BRANCH  11  12
ATOM     12  C   UNL     1       1.492   8.732  19.099  0.00  0.00    +0.000 A 
ATOM     13  C   UNL     1       0.452   9.533  18.617  0.00  0.00    +0.000 A 
ATOM     14  C   UNL     1      -0.363  10.232  19.511  0.00  0.00    +0.000 A 
ATOM     15  C   UNL     1      -0.153  10.136  20.894  0.00  0.00    +0.000 A 
ATOM     16  C   UNL     1       0.836   9.256  21.367  0.00  0.00    +0.000 A 
ATOM     17  C   UNL     1       1.650   8.557  20.475  0.00  0.00    +0.000 A 
BRANCH  15  18
ATOM     18  C   UNL     1      -0.936  11.030  21.838  0.00  0.00    +0.000 C 
ATOM     19  C   UNL     1      -1.003  10.456  23.253  0.00  0.00    +0.000 C 
ATOM     20  C   UNL     1      -0.362  12.453  21.852  0.00  0.00    +0.000 C 
ENDBRANCH  15  18
ENDBRANCH  11  12
BRANCH   3  21
ATOM     21  C   UNL     1       5.041   4.112  16.831  0.00  0.00    +0.000 C 
BRANCH  21  22
ATOM     22  C   UNL     1       6.446   4.267  17.355  0.00  0.00    +0.000 A 
ATOM     23  N   UNL     1       7.495   4.048  16.632  0.00  0.00    +0.000 NA
ATOM     24  O   UNL     1       8.601   4.322  17.497  0.00  0.00    +0.000 OA
ATOM     25  C   UNL     1       8.062   4.700  18.699  0.00  0.00    +0.000 A 
ATOM     26  O   UNL     1       8.689   5.043  19.684  0.00  0.00    +0.000 OA
ATOM     27  N   UNL     1       6.724   4.641  18.598  0.00  0.00    +0.000 N 
ATOM     28  H   UNL     1       6.092   4.895  19.338  0.00  0.00    +0.000 HD
ENDBRANCH  21  22
ENDBRANCH   3  21
TORSDOF 4
ENDMDL
MODEL 7
REMARK VINA RESULT:      -8.0      7.330     11.003
REMARK  Name = 
REMARK  7 active torsions:
REMARK  status: ('A' for Active; 'I' for Inactive)
REMARK    1  A    between atoms: C_1  and  C_2
REMARK    2  A    between atoms: C_3  and  C_4
REMARK    3  A    between atoms: C_4  and  C_5
REMARK    4  A    between atoms: C_18  and  C_19
REMARK    5  A    between atoms: C_22  and  C_23
REMARK    6  A    between atoms: C_23  and  C_24
REMARK    7  A    between atoms: C_23  and  C_25
REMARK                            x       y       z     vdW  Elec       q    Type
REMARK                         _______ _______ _______ _____ _____    ______ ____
ROOT
ATOM      1  C   UNL     1      -1.652  12.955  22.287  0.00  0.00    +0.000 C 
ATOM      2  C   UNL     1      -1.989  12.365  20.959  0.00  0.00    +0.000 C 
ATOM      3  C   UNL     1      -3.085  12.598  20.202  0.00  0.00    +0.000 C 
ATOM      4  C   UNL     1      -3.021  11.718  19.024  0.00  0.00    +0.000 A 
ATOM      5  C   UNL     1      -3.927  11.575  17.978  0.00  0.00    +0.000 A 
ATOM      6  C   UNL     1      -3.672  10.622  16.991  0.00  0.00    +0.000 A 
ATOM      7  C   UNL     1      -2.532   9.816  17.062  0.00  0.00    +0.000 A 
ATOM      8  C   UNL     1      -1.621   9.967  18.112  0.00  0.00    +0.000 A 
ATOM      9  C   UNL     1      -1.860  10.931  19.081  0.00  0.00    +0.000 A 
ATOM     10  C   UNL     1      -1.134  11.371  20.290  0.00  0.00    +0.000 C 
ATOM     11  C   UNL     1       0.095  11.016  20.713  0.00  0.00    +0.000 C 
ENDROOT
BRANCH  11  12
ATOM     12  C   UNL     1       0.964  10.068  20.016  0.00  0.00    +0.000 A 
ATOM     13  C   UNL     1       1.434  10.361  18.732  0.00  0.00    +0.000 A 
ATOM     14  C   UNL     1       2.052   9.366  17.970  0.00  0.00    +0.000 A 
ATOM     15  C   UNL     1       2.212   8.070  18.483  0.00  0.00    +0.000 A 
ATOM     16  C   UNL     1       1.818   7.815  19.807  0.00  0.00    +0.000 A 
ATOM     17  C   UNL     1       1.202   8.808  20.569  0.00  0.00    +0.000 A 
BRANCH  15  18
ATOM     18  C   UNL     1       2.729   6.963  17.582  0.00  0.00    +0.000 C 
ATOM     19  C   UNL     1       4.235   7.071  17.343  0.00  0.00    +0.000 C 
ATOM     20  C   UNL     1       2.362   5.582  18.139  0.00  0.00    +0.000 C 
ENDBRANCH  15  18
ENDBRANCH  11  12
BRANCH   3  21
ATOM     21  C   UNL     1      -4.213  13.548  20.430  0.00  0.00    +0.000 C 
BRANCH  21  22
ATOM     22  C   UNL     1      -5.262  13.028  21.380  0.00  0.00    +0.000 A 
ATOM     23  N   UNL     1      -5.997  11.995  21.120  0.00  0.00    +0.000 NA
ATOM     24  O   UNL     1      -6.832  11.840  22.270  0.00  0.00    +0.000 OA
ATOM     25  C   UNL     1      -6.480  12.842  23.137  0.00  0.00    +0.000 A 
ATOM     26  O   UNL     1      -6.950  13.023  24.244  0.00  0.00    +0.000 OA
ATOM     27  N   UNL     1      -5.520  13.580  22.558  0.00  0.00    +0.000 N 
ATOM     28  H   UNL     1      -5.070  14.365  23.000  0.00  0.00    +0.000 HD
ENDBRANCH  21  22
ENDBRANCH   3  21
TORSDOF 4
ENDMDL
MODEL 8
REMARK VINA RESULT:      -7.9      6.979     10.519
REMARK  Name = 
REMARK  7 active torsions:
REMARK  status: ('A' for Active; 'I' for Inactive)
REMARK    1  A    between atoms: C_1  and  C_2
REMARK    2  A    between atoms: C_3  and  C_4
REMARK    3  A    between atoms: C_4  and  C_5
REMARK    4  A    between atoms: C_18  and  C_19
REMARK    5  A    between atoms: C_22  and  C_23
REMARK    6  A    between atoms: C_23  and  C_24
REMARK    7  A    between atoms: C_23  and  C_25
REMARK                            x       y       z     vdW  Elec       q    Type
REMARK                         _______ _______ _______ _____ _____    ______ ____
ROOT
ATOM      1  C   UNL     1      -1.192  12.330  22.383  0.00  0.00    +0.000 C 
ATOM      2  C   UNL     1      -1.490  11.897  20.986  0.00  0.00    +0.000 C 
ATOM      3  C   UNL     1      -2.517  12.290  20.197  0.00  0.00    +0.000 C 
ATOM      4  C   UNL     1      -2.446  11.523  18.943  0.00  0.00    +0.000 A 
ATOM      5  C   UNL     1      -3.293  11.554  17.841  0.00  0.00    +0.000 A 
ATOM      6  C   UNL     1      -3.051  10.680  16.779  0.00  0.00    +0.000 A 
ATOM      7  C   UNL     1      -1.983   9.780  16.832  0.00  0.00    +0.000 A 
ATOM      8  C   UNL     1      -1.130   9.757  17.940  0.00  0.00    +0.000 A 
ATOM      9  C   UNL     1      -1.354  10.641  18.985  0.00  0.00    +0.000 A 
ATOM     10  C   UNL     1      -0.674  10.905  20.269  0.00  0.00    +0.000 C 
ATOM     11  C   UNL     1       0.496  10.412  20.721  0.00  0.00    +0.000 C 
ENDROOT
BRANCH  11  12
ATOM     12  C   UNL     1       1.332   9.466  19.982  0.00  0.00    +0.000 A 
ATOM     13  C   UNL     1       1.763   9.774  18.688  0.00  0.00    +0.000 A 
ATOM     14  C   UNL     1       2.346   8.784  17.892  0.00  0.00    +0.000 A 
ATOM     15  C   UNL     1       2.508   7.479  18.380  0.00  0.00    +0.000 A 
ATOM     16  C   UNL     1       2.155   7.208  19.713  0.00  0.00    +0.000 A 
ATOM     17  C   UNL     1       1.575   8.196  20.509  0.00  0.00    +0.000 A 
BRANCH  15  18
ATOM     18  C   UNL     1       2.985   6.381  17.447  0.00  0.00    +0.000 C 
ATOM     19  C   UNL     1       4.482   6.479  17.158  0.00  0.00    +0.000 C 
ATOM     20  C   UNL     1       2.624   4.995  17.997  0.00  0.00    +0.000 C 
ENDBRANCH  15  18
ENDBRANCH  11  12
BRANCH   3  21
ATOM     21  C   UNL     1      -3.581  13.303  20.456  0.00  0.00    +0.000 C 
BRANCH  21  22
ATOM     22  C   UNL     1      -4.843  12.721  21.040  0.00  0.00    +0.000 A 
ATOM     23  N   UNL     1      -5.035  12.590  22.312  0.00  0.00    +0.000 NA
ATOM     24  O   UNL     1      -6.343  12.022  22.430  0.00  0.00    +0.000 OA
ATOM     25  C   UNL     1      -6.814  11.878  21.151  0.00  0.00    +0.000 A 
ATOM     26  O   UNL     1      -7.911  11.454  20.839  0.00  0.00    +0.000 OA
ATOM     27  N   UNL     1      -5.862  12.298  20.302  0.00  0.00    +0.000 N 
ATOM     28  H   UNL     1      -5.969  12.320  19.302  0.00  0.00    +0.000 HD
ENDBRANCH  21  22
ENDBRANCH   3  21
TORSDOF 4
ENDMDL
MODEL 9
REMARK VINA RESULT:      -7.9      7.053     10.694
REMARK  Name = 
REMARK  7 active torsions:
REMARK  status: ('A' for Active; 'I' for Inactive)
REMARK    1  A    between atoms: C_1  and  C_2
REMARK    2  A    between atoms: C_3  and  C_4
REMARK    3  A    between atoms: C_4  and  C_5
REMARK    4  A    between atoms: C_18  and  C_19
REMARK    5  A    between atoms: C_22  and  C_23
REMARK    6  A    between atoms: C_23  and  C_24
REMARK    7  A    between atoms: C_23  and  C_25
REMARK                            x       y       z     vdW  Elec       q    Type
REMARK                         _______ _______ _______ _____ _____    ______ ____
ROOT
ATOM      1  C   UNL     1      -0.542  12.524  22.175  0.00  0.00    +0.000 C 
ATOM      2  C   UNL     1      -1.103  12.044  20.878  0.00  0.00    +0.000 C 
ATOM      3  C   UNL     1      -2.185  12.516  20.217  0.00  0.00    +0.000 C 
ATOM      4  C   UNL     1      -2.403  11.666  19.035  0.00  0.00    +0.000 A 
ATOM      5  C   UNL     1      -3.401  11.736  18.070  0.00  0.00    +0.000 A 
ATOM      6  C   UNL     1      -3.434  10.771  17.061  0.00  0.00    +0.000 A 
ATOM      7  C   UNL     1      -2.485   9.745  17.033  0.00  0.00    +0.000 A 
ATOM      8  C   UNL     1      -1.479   9.681  18.002  0.00  0.00    +0.000 A 
ATOM      9  C   UNL     1      -1.431  10.653  18.991  0.00  0.00    +0.000 A 
ATOM     10  C   UNL     1      -0.532  10.909  20.136  0.00  0.00    +0.000 C 
ATOM     11  C   UNL     1       0.626  10.297  20.452  0.00  0.00    +0.000 C 
ENDROOT
BRANCH  11  12
ATOM     12  C   UNL     1       1.217   9.204  19.681  0.00  0.00    +0.000 A 
ATOM     13  C   UNL     1       1.455   7.967  20.287  0.00  0.00    +0.000 A 
ATOM     14  C   UNL     1       2.237   7.009  19.637  0.00  0.00    +0.000 A 
ATOM     15  C   UNL     1       2.787   7.273  18.374  0.00  0.00    +0.000 A 
ATOM     16  C   UNL     1       2.464   8.484  17.738  0.00  0.00    +0.000 A 
ATOM     17  C   UNL     1       1.681   9.440  18.385  0.00  0.00    +0.000 A 
BRANCH  15  18
ATOM     18  C   UNL     1       3.770   6.292  17.760  0.00  0.00    +0.000 C 
ATOM     19  C   UNL     1       4.734   6.973  16.790  0.00  0.00    +0.000 C 
ATOM     20  C   UNL     1       4.536   5.527  18.847  0.00  0.00    +0.000 C 
ENDBRANCH  15  18
ENDBRANCH  11  12
BRANCH   3  21
ATOM     21  C   UNL     1      -3.068  13.674  20.543  0.00  0.00    +0.000 C 
BRANCH  21  22
ATOM     22  C   UNL     1      -4.253  13.312  21.401  0.00  0.00    +0.000 A 
ATOM     23  N   UNL     1      -5.462  13.260  20.945  0.00  0.00    +0.000 NA
ATOM     24  O   UNL     1      -6.261  12.870  22.065  0.00  0.00    +0.000 OA
ATOM     25  C   UNL     1      -5.396  12.716  23.117  0.00  0.00    +0.000 A 
ATOM     26  O   UNL     1      -5.698  12.359  24.240  0.00  0.00    +0.000 OA
ATOM     27  N   UNL     1      -4.158  13.014  22.691  0.00  0.00    +0.000 N 
ATOM     28  H   UNL     1      -3.335  12.954  23.266  0.00  0.00    +0.000 HD
ENDBRANCH  21  22
ENDBRANCH   3  21
TORSDOF 4
ENDMDL
