MODEL 1
REMARK VINA RESULT:      -8.3      0.000      0.000
REMARK  Name = 
REMARK  6 active torsions:
REMARK  status: ('A' for Active; 'I' for Inactive)
REMARK    1  A    between atoms: C_1  and  C_2
REMARK    2  A    between atoms: C_2  and  C_4
REMARK    3  A    between atoms: C_8  and  N_9
REMARK    4  A    between atoms: C_10  and  C_12
REMARK    5  A    between atoms: N_16  and  S_17
REMARK    6  A    between atoms: S_17  and  C_20
REMARK                            x       y       z     vdW  Elec       q    Type
REMARK                         _______ _______ _______ _____ _____    ______ ____
ROOT
ATOM      1  C   UNL     1       1.824   4.228  19.464  0.00  0.00    +0.000 C 
ATOM      2  C   UNL     1       1.642   3.174  20.574  0.00  0.00    +0.000 C 
ATOM      3  C   UNL     1       1.787   1.855  19.840  0.00  0.00    +0.000 C 
ATOM      4  C   UNL     1       2.641   2.166  18.617  0.00  0.00    +0.000 C 
ATOM      5  N   UNL     1       2.967   3.638  18.696  0.00  0.00    +0.000 NA
ENDROOT
BRANCH   1   7
ATOM      6  N   UNL     1       2.043   6.761  19.532  0.00  0.00    +0.000 N 
ATOM      7  C   UNL     1       1.434   5.606  20.010  0.00  0.00    +0.000 C 
ATOM      8  O   UNL     1       0.443   5.659  20.751  0.00  0.00    +0.000 OA
ATOM      9  H   UNL     1       2.941   6.648  19.069  0.00  0.00    +0.000 HD
BRANCH   6  14
ATOM     10  C   UNL     1       0.687   9.655  21.527  0.00  0.00    +0.000 A 
ATOM     11  C   UNL     1       0.589  10.665  20.567  0.00  0.00    +0.000 A 
ATOM     12  C   UNL     1       1.032  10.422  19.277  0.00  0.00    +0.000 A 
ATOM     13  C   UNL     1       1.541   9.157  18.937  0.00  0.00    +0.000 A 
ATOM     14  C   UNL     1       1.629   8.106  19.869  0.00  0.00    +0.000 A 
ATOM     15  C   UNL     1       1.252   8.399  21.191  0.00  0.00    +0.000 A 
BRANCH  10  17
ATOM     16  C   UNL     1      -1.119  10.838  22.928  0.00  0.00    +0.000 C 
ATOM     17  C   UNL     1       0.097   9.952  22.871  0.00  0.00    +0.000 C 
ATOM     18  O   UNL     1       0.618   9.515  23.890  0.00  0.00    +0.000 OA
ENDBRANCH  10  17
ENDBRANCH   6  14
ENDBRANCH   1   7
BRANCH   5  19
ATOM     19  S   UNL     1       4.578   3.886  19.175  0.00  0.00    +0.000 S 
ATOM     20  O   UNL     1       4.613   5.056  20.031  0.00  0.00    +0.000 OA
ATOM     21  O   UNL     1       5.121   2.613  19.634  0.00  0.00    +0.000 OA
BRANCH  19  22
ATOM     22  C   UNL     1       5.378   4.279  17.644  0.00  0.00    +0.000 A 
ATOM     23  C   UNL     1       5.073   3.642  16.409  0.00  0.00    +0.000 A 
ATOM     24  C   UNL     1       5.733   3.959  15.187  0.00  0.00    +0.000 A 
ATOM     25  C   UNL     1       6.744   4.931  15.089  0.00  0.00    +0.000 A 
ATOM     26  C   UNL     1       7.011   5.660  16.271  0.00  0.00    +0.000 A 
ATOM     27  N   UNL     1       7.858   6.696  16.366  0.00  0.00    +0.000 NA
ATOM     28  S   UNL     1       7.738   7.263  17.919  0.00  0.00    +0.000 S 
ATOM     29  N   UNL     1       6.679   6.166  18.565  0.00  0.00    +0.000 NA
ATOM     30  C   UNL     1       6.315   5.334  17.571  0.00  0.00    +0.000 A 
ENDBRANCH  19  22
ENDBRANCH   5  19
TORSDOF 5
ENDMDL
MODEL 2
REMARK VINA RESULT:      -8.1      1.531      1.895
REMARK  Name = 
REMARK  6 active torsions:
REMARK  status: ('A' for Active; 'I' for Inactive)
REMARK    1  A    between atoms: C_1  and  C_2
REMARK    2  A    between atoms: C_2  and  C_4
REMARK    3  A    between atoms: C_8  and  N_9
REMARK    4  A    between atoms: C_10  and  C_12
REMARK    5  A    between atoms: N_16  and  S_17
REMARK    6  A    between atoms: S_17  and  C_20
REMARK                            x       y       z     vdW  Elec       q    Type
REMARK                         _______ _______ _______ _____ _____    ______ ____
ROOT
ATOM      1  C   UNL     1       1.973   4.720  18.697  0.00  0.00    +0.000 C 
ATOM      2  C   UNL     1       1.105   3.762  19.536  0.00  0.00    +0.000 C 
ATOM      3  C   UNL     1       1.005   2.521  18.671  0.00  0.00    +0.000 C 
ATOM      4  C   UNL     1       2.248   2.542  17.791  0.00  0.00    +0.000 C 
ATOM      5  N   UNL     1       3.021   3.778  18.185  0.00  0.00    +0.000 NA
ENDROOT
BRANCH   1   7
ATOM      6  N   UNL     1       1.804   7.252  18.533  0.00  0.00    +0.000 N 
ATOM      7  C   UNL     1       1.934   6.116  19.325  0.00  0.00    +0.000 C 
ATOM      8  O   UNL     1       1.843   6.178  20.559  0.00  0.00    +0.000 OA
ATOM      9  H   UNL     1       2.053   7.157  17.552  0.00  0.00    +0.000 HD
BRANCH   6  14
ATOM     10  C   UNL     1       0.843  10.039  20.879  0.00  0.00    +0.000 A 
ATOM     11  C   UNL     1       0.952  11.170  20.067  0.00  0.00    +0.000 A 
ATOM     12  C   UNL     1       1.407  11.030  18.765  0.00  0.00    +0.000 A 
ATOM     13  C   UNL     1       1.721   9.755  18.264  0.00  0.00    +0.000 A 
ATOM     14  C   UNL     1       1.598   8.590  19.043  0.00  0.00    +0.000 A 
ATOM     15  C   UNL     1       1.214   8.762  20.385  0.00  0.00    +0.000 A 
BRANCH  10  17
ATOM     16  C   UNL     1      -0.955  11.143  22.352  0.00  0.00    +0.000 C 
ATOM     17  C   UNL     1       0.250  10.248  22.238  0.00  0.00    +0.000 C 
ATOM     18  O   UNL     1       0.759   9.733  23.226  0.00  0.00    +0.000 OA
ENDBRANCH  10  17
ENDBRANCH   6  14
ENDBRANCH   1   7
BRANCH   5  19
ATOM     19  S   UNL     1       4.385   3.379  19.116  0.00  0.00    +0.000 S 
ATOM     20  O   UNL     1       4.101   3.730  20.495  0.00  0.00    +0.000 OA
ATOM     21  O   UNL     1       4.801   2.027  18.764  0.00  0.00    +0.000 OA
BRANCH  19  22
ATOM     22  C   UNL     1       5.615   4.490  18.490  0.00  0.00    +0.000 A 
ATOM     23  C   UNL     1       6.411   5.332  19.315  0.00  0.00    +0.000 A 
ATOM     24  C   UNL     1       7.388   6.229  18.797  0.00  0.00    +0.000 A 
ATOM     25  C   UNL     1       7.656   6.365  17.424  0.00  0.00    +0.000 A 
ATOM     26  C   UNL     1       6.959   5.476  16.572  0.00  0.00    +0.000 A 
ATOM     27  N   UNL     1       7.145   5.368  15.248  0.00  0.00    +0.000 NA
ATOM     28  S   UNL     1       6.172   4.129  14.734  0.00  0.00    +0.000 S 
ATOM     29  N   UNL     1       5.404   3.735  16.147  0.00  0.00    +0.000 NA
ATOM     30  C   UNL     1       5.923   4.518  17.112  0.00  0.00    +0.000 A 
ENDBRANCH  19  22
ENDBRANCH   5  19
TORSDOF 5
ENDMDL
MODEL 3
REMARK VINA RESULT:      -8.1      4.057      8.395
REMARK  Name = 
REMARK  6 active torsions:
REMARK  status: ('A' for Active; 'I' for Inactive)
REMARK    1  A    between atoms: C_1  and  C_2
REMARK    2  A    between atoms: C_2  and  C_4
REMARK    3  A    between atoms: C_8  and  N_9
REMARK    4  A    between atoms: C_10  and  C_12
REMARK    5  A    between atoms: N_16  and  S_17
REMARK    6  A    between atoms: S_17  and  C_20
REMARK                            x       y       z     vdW  Elec       q    Type
REMARK                         _______ _______ _______ _____ _____    ______ ____
ROOT
ATOM      1  C   UNL     1       1.334   8.262  20.896  0.00  0.00    +0.000 C 
ATOM      2  C   UNL     1      -0.046   8.053  21.549  0.00  0.00    +0.000 C 
ATOM      3  C   UNL     1      -0.229   9.293  22.402  0.00  0.00    +0.000 C 
ATOM      4  C   UNL     1       0.629  10.366  21.743  0.00  0.00    +0.000 C 
ATOM      5  N   UNL     1       1.261   9.715  20.535  0.00  0.00    +0.000 NA
ENDROOT
BRANCH   1   7
ATOM      6  N   UNL     1       2.534   6.984  19.054  0.00  0.00    +0.000 N 
ATOM      7  C   UNL     1       1.772   6.960  20.217  0.00  0.00    +0.000 C 
ATOM      8  O   UNL     1       1.574   5.906  20.837  0.00  0.00    +0.000 OA
ATOM      9  H   UNL     1       2.517   7.843  18.512  0.00  0.00    +0.000 HD
BRANCH   6  14
ATOM     10  C   UNL     1       5.133   4.691  17.574  0.00  0.00    +0.000 A 
ATOM     11  C   UNL     1       4.357   3.663  17.034  0.00  0.00    +0.000 A 
ATOM     12  C   UNL     1       2.983   3.683  17.213  0.00  0.00    +0.000 A 
ATOM     13  C   UNL     1       2.380   4.749  17.903  0.00  0.00    +0.000 A 
ATOM     14  C   UNL     1       3.125   5.816  18.437  0.00  0.00    +0.000 A 
ATOM     15  C   UNL     1       4.524   5.735  18.316  0.00  0.00    +0.000 A 
BRANCH  10  17
ATOM     16  C   UNL     1       7.011   4.861  15.824  0.00  0.00    +0.000 C 
ATOM     17  C   UNL     1       6.596   4.661  17.257  0.00  0.00    +0.000 C 
ATOM     18  O   UNL     1       7.420   4.441  18.137  0.00  0.00    +0.000 OA
ENDBRANCH  10  17
ENDBRANCH   6  14
ENDBRANCH   1   7
BRANCH   5  19
ATOM     19  S   UNL     1       0.518  10.234  19.098  0.00  0.00    +0.000 S 
ATOM     20  O   UNL     1       1.039   9.428  18.011  0.00  0.00    +0.000 OA
ATOM     21  O   UNL     1      -0.918  10.328  19.332  0.00  0.00    +0.000 OA
BRANCH  19  22
ATOM     22  C   UNL     1       1.133  11.886  18.925  0.00  0.00    +0.000 A 
ATOM     23  C   UNL     1       2.340  12.212  18.246  0.00  0.00    +0.000 A 
ATOM     24  C   UNL     1       2.828  13.544  18.124  0.00  0.00    +0.000 A 
ATOM     25  C   UNL     1       2.164  14.660  18.664  0.00  0.00    +0.000 A 
ATOM     26  C   UNL     1       0.909  14.396  19.261  0.00  0.00    +0.000 A 
ATOM     27  N   UNL     1       0.069  15.327  19.739  0.00  0.00    +0.000 NA
ATOM     28  S   UNL     1      -1.292  14.523  20.235  0.00  0.00    +0.000 S 
ATOM     29  N   UNL     1      -0.843  12.954  19.954  0.00  0.00    +0.000 NA
ATOM     30  C   UNL     1       0.380  12.987  19.392  0.00  0.00    +0.000 A 
ENDBRANCH  19  22
ENDBRANCH   5  19
TORSDOF 5
ENDMDL
MODEL 4
REMARK VINA RESULT:      -8.0      3.829      8.436
REMARK  Name = 
REMARK  6 active torsions:
REMARK  status: ('A' for Active; 'I' for Inactive)
REMARK    1  A    between atoms: C_1  and  C_2
REMARK    2  A    between atoms: C_2  and  C_4
REMARK    3  A    between atoms: C_8  and  N_9
REMARK    4  A    between atoms: C_10  and  C_12
REMARK    5  A    between atoms: N_16  and  S_17
REMARK    6  A    between atoms: S_17  and  C_20
REMARK                            x       y       z     vdW  Elec       q    Type
REMARK                         _______ _______ _______ _____ _____    ______ ____
ROOT
ATOM      1  C   UNL     1       1.236   8.634  20.820  0.00  0.00    +0.000 C 
ATOM      2  C   UNL     1      -0.065   8.322  21.585  0.00  0.00    +0.000 C 
ATOM      3  C   UNL     1      -0.299   9.570  22.414  0.00  0.00    +0.000 C 
ATOM      4  C   UNL     1       0.402  10.693  21.659  0.00  0.00    +0.000 C 
ATOM      5  N   UNL     1       0.999  10.060  20.425  0.00  0.00    +0.000 NA
ENDROOT
BRANCH   1   7
ATOM      6  N   UNL     1       2.323   7.396  18.883  0.00  0.00    +0.000 N 
ATOM      7  C   UNL     1       1.743   7.355  20.146  0.00  0.00    +0.000 C 
ATOM      8  O   UNL     1       1.778   6.328  20.839  0.00  0.00    +0.000 OA
ATOM      9  H   UNL     1       2.115   8.208  18.309  0.00  0.00    +0.000 HD
BRANCH   6  14
ATOM     10  C   UNL     1       4.812   5.431  16.847  0.00  0.00    +0.000 A 
ATOM     11  C   UNL     1       4.207   4.175  16.761  0.00  0.00    +0.000 A 
ATOM     12  C   UNL     1       3.014   3.947  17.428  0.00  0.00    +0.000 A 
ATOM     13  C   UNL     1       2.406   4.986  18.153  0.00  0.00    +0.000 A 
ATOM     14  C   UNL     1       2.970   6.272  18.240  0.00  0.00    +0.000 A 
ATOM     15  C   UNL     1       4.221   6.459  17.626  0.00  0.00    +0.000 A 
BRANCH  10  17
ATOM     16  C   UNL     1       6.227   4.776  14.801  0.00  0.00    +0.000 C 
ATOM     17  C   UNL     1       6.044   5.638  16.021  0.00  0.00    +0.000 C 
ATOM     18  O   UNL     1       6.889   6.459  16.358  0.00  0.00    +0.000 OA
ENDBRANCH  10  17
ENDBRANCH   6  14
ENDBRANCH   1   7
BRANCH   5  19
ATOM     19  S   UNL     1       0.105  10.457  19.036  0.00  0.00    +0.000 S 
ATOM     20  O   UNL     1       0.889  10.074  17.877  0.00  0.00    +0.000 OA
ATOM     21  O   UNL     1      -1.256   9.963  19.210  0.00  0.00    +0.000 OA
BRANCH  19  22
ATOM     22  C   UNL     1       0.038  12.226  19.116  0.00  0.00    +0.000 A 
ATOM     23  C   UNL     1      -1.110  12.954  19.537  0.00  0.00    +0.000 A 
ATOM     24  C   UNL     1      -1.154  14.376  19.585  0.00  0.00    +0.000 A 
ATOM     25  C   UNL     1      -0.068  15.192  19.222  0.00  0.00    +0.000 A 
ATOM     26  C   UNL     1       1.127  14.512  18.892  0.00  0.00    +0.000 A 
ATOM     27  N   UNL     1       2.302  15.099  18.621  0.00  0.00    +0.000 NA
ATOM     28  S   UNL     1       3.400  13.878  18.401  0.00  0.00    +0.000 S 
ATOM     29  N   UNL     1       2.419  12.552  18.546  0.00  0.00    +0.000 NA
ATOM     30  C   UNL     1       1.185  13.002  18.841  0.00  0.00    +0.000 A 
ENDBRANCH  19  22
ENDBRANCH   5  19
TORSDOF 5
ENDMDL
MODEL 5
REMARK VINA RESULT:      -7.9      3.878      8.321
REMARK  Name = 
REMARK  6 active torsions:
REMARK  status: ('A' for Active; 'I' for Inactive)
REMARK    1  A    between atoms: C_1  and  C_2
REMARK    2  A    between atoms: C_2  and  C_4
REMARK    3  A    between atoms: C_8  and  N_9
REMARK    4  A    between atoms: C_10  and  C_12
REMARK    5  A    between atoms: N_16  and  S_17
REMARK    6  A    between atoms: S_17  and  C_20
REMARK                            x       y       z     vdW  Elec       q    Type
REMARK                         _______ _______ _______ _____ _____    ______ ____
ROOT
ATOM      1  C   UNL     1       1.152   8.835  20.902  0.00  0.00    +0.000 C 
ATOM      2  C   UNL     1      -0.144   8.505  21.667  0.00  0.00    +0.000 C 
ATOM      3  C   UNL     1      -0.381   9.738  22.517  0.00  0.00    +0.000 C 
ATOM      4  C   UNL     1       0.310  10.876  21.777  0.00  0.00    +0.000 C 
ATOM      5  N   UNL     1       0.905  10.266  20.530  0.00  0.00    +0.000 NA
ENDROOT
BRANCH   1   7
ATOM      6  N   UNL     1       2.177   7.623  18.915  0.00  0.00    +0.000 N 
ATOM      7  C   UNL     1       1.662   7.569  20.206  0.00  0.00    +0.000 C 
ATOM      8  O   UNL     1       1.760   6.546  20.897  0.00  0.00    +0.000 OA
ATOM      9  H   UNL     1       1.917   8.428  18.351  0.00  0.00    +0.000 HD
BRANCH   6  14
ATOM     10  C   UNL     1       2.928   4.101  17.807  0.00  0.00    +0.000 A 
ATOM     11  C   UNL     1       4.148   4.247  17.143  0.00  0.00    +0.000 A 
ATOM     12  C   UNL     1       4.696   5.511  16.996  0.00  0.00    +0.000 A 
ATOM     13  C   UNL     1       4.040   6.628  17.544  0.00  0.00    +0.000 A 
ATOM     14  C   UNL     1       2.825   6.517  18.243  0.00  0.00    +0.000 A 
ATOM     15  C   UNL     1       2.246   5.238  18.309  0.00  0.00    +0.000 A 
BRANCH  10  17
ATOM     16  C   UNL     1       1.072   2.507  18.601  0.00  0.00    +0.000 C 
ATOM     17  C   UNL     1       2.446   2.699  18.019  0.00  0.00    +0.000 C 
ATOM     18  O   UNL     1       3.170   1.746  17.759  0.00  0.00    +0.000 OA
ENDBRANCH  10  17
ENDBRANCH   6  14
ENDBRANCH   1   7
BRANCH   5  19
ATOM     19  S   UNL     1       0.002  10.680  19.152  0.00  0.00    +0.000 S 
ATOM     20  O   UNL     1       0.747  10.247  17.985  0.00  0.00    +0.000 OA
ATOM     21  O   UNL     1      -1.374  10.247  19.358  0.00  0.00    +0.000 OA
BRANCH  19  22
ATOM     22  C   UNL     1       0.011  12.451  19.205  0.00  0.00    +0.000 A 
ATOM     23  C   UNL     1      -1.092  13.233  19.647  0.00  0.00    +0.000 A 
ATOM     24  C   UNL     1      -1.076  14.656  19.673  0.00  0.00    +0.000 A 
ATOM     25  C   UNL     1       0.032  15.420  19.266  0.00  0.00    +0.000 A 
ATOM     26  C   UNL     1       1.188  14.685  18.913  0.00  0.00    +0.000 A 
ATOM     27  N   UNL     1       2.378  15.218  18.600  0.00  0.00    +0.000 NA
ATOM     28  S   UNL     1       3.417  13.948  18.368  0.00  0.00    +0.000 S 
ATOM     29  N   UNL     1       2.387  12.668  18.562  0.00  0.00    +0.000 NA
ATOM     30  C   UNL     1       1.182  13.174  18.885  0.00  0.00    +0.000 A 
ENDBRANCH  19  22
ENDBRANCH   5  19
TORSDOF 5
ENDMDL
MODEL 6
REMARK VINA RESULT:      -7.9      4.321      8.404
REMARK  Name = 
REMARK  6 active torsions:
REMARK  status: ('A' for Active; 'I' for Inactive)
REMARK    1  A    between atoms: C_1  and  C_2
REMARK    2  A    between atoms: C_2  and  C_4
REMARK    3  A    between atoms: C_8  and  N_9
REMARK    4  A    between atoms: C_10  and  C_12
REMARK    5  A    between atoms: N_16  and  S_17
REMARK    6  A    between atoms: S_17  and  C_20
REMARK                            x       y       z     vdW  Elec       q    Type
REMARK                         _______ _______ _______ _____ _____    ______ ____
ROOT
ATOM      1  C   UNL     1       1.147   8.756  20.966  0.00  0.00    +0.000 C 
ATOM      2  C   UNL     1      -0.220   8.453  21.610  0.00  0.00    +0.000 C 
ATOM      3  C   UNL     1      -0.458   9.643  22.520  0.00  0.00    +0.000 C 
ATOM      4  C   UNL     1       0.348  10.783  21.911  0.00  0.00    +0.000 C 
ATOM      5  N   UNL     1       1.005  10.219  20.674  0.00  0.00    +0.000 NA
ENDROOT
BRANCH   1   7
ATOM      6  N   UNL     1       2.212   7.610  18.962  0.00  0.00    +0.000 N 
ATOM      7  C   UNL     1       1.642   7.509  20.227  0.00  0.00    +0.000 C 
ATOM      8  O   UNL     1       1.679   6.451  20.868  0.00  0.00    +0.000 OA
ATOM      9  H   UNL     1       2.002   8.450  18.430  0.00  0.00    +0.000 HD
BRANCH   6  14
ATOM     10  C   UNL     1       2.974   4.104  17.811  0.00  0.00    +0.000 A 
ATOM     11  C   UNL     1       4.163   4.271  17.098  0.00  0.00    +0.000 A 
ATOM     12  C   UNL     1       4.684   5.545  16.934  0.00  0.00    +0.000 A 
ATOM     13  C   UNL     1       4.033   6.649  17.512  0.00  0.00    +0.000 A 
ATOM     14  C   UNL     1       2.849   6.516  18.260  0.00  0.00    +0.000 A 
ATOM     15  C   UNL     1       2.294   5.228  18.345  0.00  0.00    +0.000 A 
BRANCH  10  17
ATOM     16  C   UNL     1       1.135   2.474  18.575  0.00  0.00    +0.000 C 
ATOM     17  C   UNL     1       2.523   2.693  18.037  0.00  0.00    +0.000 C 
ATOM     18  O   UNL     1       3.282   1.755  17.825  0.00  0.00    +0.000 OA
ENDBRANCH  10  17
ENDBRANCH   6  14
ENDBRANCH   1   7
BRANCH   5  19
ATOM     19  S   UNL     1       0.235  10.770  19.263  0.00  0.00    +0.000 S 
ATOM     20  O   UNL     1       0.603   9.881  18.178  0.00  0.00    +0.000 OA
ATOM     21  O   UNL     1      -1.167  11.021  19.575  0.00  0.00    +0.000 OA
BRANCH  19  22
ATOM     22  C   UNL     1       1.005  12.343  18.995  0.00  0.00    +0.000 A 
ATOM     23  C   UNL     1       2.236  12.511  18.302  0.00  0.00    +0.000 A 
ATOM     24  C   UNL     1       2.850  13.780  18.104  0.00  0.00    +0.000 A 
ATOM     25  C   UNL     1       2.297  14.984  18.575  0.00  0.00    +0.000 A 
ATOM     26  C   UNL     1       1.025  14.878  19.183  0.00  0.00    +0.000 A 
ATOM     27  N   UNL     1       0.279  15.911  19.603  0.00  0.00    +0.000 NA
ATOM     28  S   UNL     1      -1.152  15.272  20.140  0.00  0.00    +0.000 S 
ATOM     29  N   UNL     1      -0.857  13.654  19.953  0.00  0.00    +0.000 NA
ATOM     30  C   UNL     1       0.363  13.536  19.395  0.00  0.00    +0.000 A 
ENDBRANCH  19  22
ENDBRANCH   5  19
TORSDOF 5
ENDMDL
MODEL 7
REMARK VINA RESULT:      -7.8      4.136      8.224
REMARK  Name = 
REMARK  6 active torsions:
REMARK  status: ('A' for Active; 'I' for Inactive)
REMARK    1  A    between atoms: C_1  and  C_2
REMARK    2  A    between atoms: C_2  and  C_4
REMARK    3  A    between atoms: C_8  and  N_9
REMARK    4  A    between atoms: C_10  and  C_12
REMARK    5  A    between atoms: N_16  and  S_17
REMARK    6  A    between atoms: S_17  and  C_20
REMARK                            x       y       z     vdW  Elec       q    Type
REMARK                         _______ _______ _______ _____ _____    ______ ____
ROOT
ATOM      1  C   UNL     1       1.127   8.818  21.183  0.00  0.00    +0.000 C 
ATOM      2  C   UNL     1      -0.211   8.153  21.563  0.00  0.00    +0.000 C 
ATOM      3  C   UNL     1      -0.682   8.957  22.759  0.00  0.00    +0.000 C 
ATOM      4  C   UNL     1      -0.030  10.325  22.608  0.00  0.00    +0.000 C 
ATOM      5  N   UNL     1       0.776  10.268  21.332  0.00  0.00    +0.000 NA
ENDROOT
BRANCH   1   7
ATOM      6  N   UNL     1       2.139   6.609  20.435  0.00  0.00    +0.000 N 
ATOM      7  C   UNL     1       1.851   7.941  20.157  0.00  0.00    +0.000 C 
ATOM      8  O   UNL     1       2.005   8.410  19.022  0.00  0.00    +0.000 OA
ATOM      9  H   UNL     1       2.149   6.336  21.414  0.00  0.00    +0.000 HD
BRANCH   6  14
ATOM     10  C   UNL     1       4.618   4.797  18.250  0.00  0.00    +0.000 A 
ATOM     11  C   UNL     1       3.792   4.007  17.447  0.00  0.00    +0.000 A 
ATOM     12  C   UNL     1       2.423   4.014  17.665  0.00  0.00    +0.000 A 
ATOM     13  C   UNL     1       1.876   4.837  18.664  0.00  0.00    +0.000 A 
ATOM     14  C   UNL     1       2.672   5.667  19.474  0.00  0.00    +0.000 A 
ATOM     15  C   UNL     1       4.064   5.583  19.292  0.00  0.00    +0.000 A 
BRANCH  10  17
ATOM     16  C   UNL     1       7.025   5.468  18.862  0.00  0.00    +0.000 C 
ATOM     17  C   UNL     1       6.072   4.819  17.895  0.00  0.00    +0.000 C 
ATOM     18  O   UNL     1       6.460   4.356  16.829  0.00  0.00    +0.000 OA
ENDBRANCH  10  17
ENDBRANCH   6  14
ENDBRANCH   1   7
BRANCH   5  19
ATOM     19  S   UNL     1       0.010  11.126  20.081  0.00  0.00    +0.000 S 
ATOM     20  O   UNL     1      -0.248  10.198  18.998  0.00  0.00    +0.000 OA
ATOM     21  O   UNL     1      -1.072  11.913  20.661  0.00  0.00    +0.000 OA
BRANCH  19  22
ATOM     22  C   UNL     1       1.271  12.261  19.568  0.00  0.00    +0.000 A 
ATOM     23  C   UNL     1       1.934  12.188  18.312  0.00  0.00    +0.000 A 
ATOM     24  C   UNL     1       2.954  13.099  17.917  0.00  0.00    +0.000 A 
ATOM     25  C   UNL     1       3.400  14.155  18.732  0.00  0.00    +0.000 A 
ATOM     26  C   UNL     1       2.700  14.328  19.949  0.00  0.00    +0.000 A 
ATOM     27  N   UNL     1       2.894  15.332  20.817  0.00  0.00    +0.000 NA
ATOM     28  S   UNL     1       1.768  15.141  22.018  0.00  0.00    +0.000 S 
ATOM     29  N   UNL     1       1.048  13.729  21.542  0.00  0.00    +0.000 NA
ATOM     30  C   UNL     1       1.614  13.368  20.375  0.00  0.00    +0.000 A 
ENDBRANCH  19  22
ENDBRANCH   5  19
TORSDOF 5
ENDMDL
MODEL 8
REMARK VINA RESULT:      -7.8      1.224      1.358
REMARK  Name = 
REMARK  6 active torsions:
REMARK  status: ('A' for Active; 'I' for Inactive)
REMARK    1  A    between atoms: C_1  and  C_2
REMARK    2  A    between atoms: C_2  and  C_4
REMARK    3  A    between atoms: C_8  and  N_9
REMARK    4  A    between atoms: C_10  and  C_12
REMARK    5  A    between atoms: N_16  and  S_17
REMARK    6  A    between atoms: S_17  and  C_20
REMARK                            x       y       z     vdW  Elec       q    Type
REMARK                         _______ _______ _______ _____ _____    ______ ____
ROOT
ATOM      1  C   UNL     1       1.839   4.293  19.044  0.00  0.00    +0.000 C 
ATOM      2  C   UNL     1       1.483   4.032  20.521  0.00  0.00    +0.000 C 
ATOM      3  C   UNL     1       1.538   2.522  20.640  0.00  0.00    +0.000 C 
ATOM      4  C   UNL     1       2.493   2.065  19.544  0.00  0.00    +0.000 C 
ATOM      5  N   UNL     1       2.962   3.320  18.846  0.00  0.00    +0.000 NA
ENDROOT
BRANCH   1   7
ATOM      6  N   UNL     1       1.856   6.769  19.621  0.00  0.00    +0.000 N 
ATOM      7  C   UNL     1       1.558   5.762  18.710  0.00  0.00    +0.000 C 
ATOM      8  O   UNL     1       1.229   6.022  17.545  0.00  0.00    +0.000 OA
ATOM      9  H   UNL     1       1.956   6.494  20.594  0.00  0.00    +0.000 HD
BRANCH   6  14
ATOM     10  C   UNL     1       0.873  10.395  19.919  0.00  0.00    +0.000 A 
ATOM     11  C   UNL     1       1.375  10.943  18.736  0.00  0.00    +0.000 A 
ATOM     12  C   UNL     1       2.098  10.140  17.868  0.00  0.00    +0.000 A 
ATOM     13  C   UNL     1       2.290   8.779  18.166  0.00  0.00    +0.000 A 
ATOM     14  C   UNL     1       1.776   8.186  19.333  0.00  0.00    +0.000 A 
ATOM     15  C   UNL     1       1.117   9.035  20.239  0.00  0.00    +0.000 A 
BRANCH  10  17
ATOM     16  C   UNL     1      -1.336  11.678  20.225  0.00  0.00    +0.000 C 
ATOM     17  C   UNL     1       0.017  11.291  20.759  0.00  0.00    +0.000 C 
ATOM     18  O   UNL     1       0.429  11.723  21.829  0.00  0.00    +0.000 OA
ENDBRANCH  10  17
ENDBRANCH   6  14
ENDBRANCH   1   7
BRANCH   5  19
ATOM     19  S   UNL     1       4.557   3.708  19.285  0.00  0.00    +0.000 S 
ATOM     20  O   UNL     1       4.509   4.853  20.173  0.00  0.00    +0.000 OA
ATOM     21  O   UNL     1       5.232   2.480  19.690  0.00  0.00    +0.000 OA
BRANCH  19  22
ATOM     22  C   UNL     1       5.266   4.215  17.742  0.00  0.00    +0.000 A 
ATOM     23  C   UNL     1       4.841   3.720  16.478  0.00  0.00    +0.000 A 
ATOM     24  C   UNL     1       5.428   4.127  15.247  0.00  0.00    +0.000 A 
ATOM     25  C   UNL     1       6.481   5.056  15.166  0.00  0.00    +0.000 A 
ATOM     26  C   UNL     1       6.870   5.650  16.390  0.00  0.00    +0.000 A 
ATOM     27  N   UNL     1       7.776   6.631  16.520  0.00  0.00    +0.000 NA
ATOM     28  S   UNL     1       7.796   7.043  18.125  0.00  0.00    +0.000 S 
ATOM     29  N   UNL     1       6.729   5.938  18.740  0.00  0.00    +0.000 NA
ATOM     30  C   UNL     1       6.251   5.227  17.702  0.00  0.00    +0.000 A 
ENDBRANCH  19  22
ENDBRANCH   5  19
TORSDOF 5
ENDMDL
MODEL 9
REMARK VINA RESULT:      -7.8      3.932      8.534
REMARK  Name = 
REMARK  6 active torsions:
REMARK  status: ('A' for Active; 'I' for Inactive)
REMARK    1  A    between atoms: C_1  and  C_2
REMARK    2  A    between atoms: C_2  and  C_4
REMARK    3  A    between atoms: C_8  and  N_9
REMARK    4  A    between atoms: C_10  and  C_12
REMARK    5  A    between atoms: N_16  and  S_17
REMARK    6  A    between atoms: S_17  and  C_20
REMARK                            x       y       z     vdW  Elec       q    Type
REMARK                         _______ _______ _______ _____ _____    ______ ____
ROOT
ATOM      1  C   UNL     1       1.109   9.057  21.043  0.00  0.00    +0.000 C 
ATOM      2  C   UNL     1      -0.194   8.620  21.739  0.00  0.00    +0.000 C 
ATOM      3  C   UNL     1      -0.543   9.803  22.621  0.00  0.00    +0.000 C 
ATOM      4  C   UNL     1       0.106  11.008  21.953  0.00  0.00    +0.000 C 
ATOM      5  N   UNL     1       0.789  10.484  20.712  0.00  0.00    +0.000 NA
ENDROOT
BRANCH   1   7
ATOM      6  N   UNL     1       1.730   6.595  20.919  0.00  0.00    +0.000 N 
ATOM      7  C   UNL     1       1.725   7.852  20.325  0.00  0.00    +0.000 C 
ATOM      8  O   UNL     1       2.051   8.007  19.141  0.00  0.00    +0.000 OA
ATOM      9  H   UNL     1       1.613   6.563  21.928  0.00  0.00    +0.000 HD
BRANCH   6  14
ATOM     10  C   UNL     1       3.827   4.181  18.925  0.00  0.00    +0.000 A 
ATOM     11  C   UNL     1       2.956   3.105  18.740  0.00  0.00    +0.000 A 
ATOM     12  C   UNL     1       1.701   3.137  19.326  0.00  0.00    +0.000 A 
ATOM     13  C   UNL     1       1.303   4.262  20.070  0.00  0.00    +0.000 A 
ATOM     14  C   UNL     1       2.142   5.376  20.256  0.00  0.00    +0.000 A 
ATOM     15  C   UNL     1       3.440   5.288  19.722  0.00  0.00    +0.000 A 
BRANCH  10  17
ATOM     16  C   UNL     1       5.076   3.938  16.689  0.00  0.00    +0.000 C 
ATOM     17  C   UNL     1       5.126   4.125  18.181  0.00  0.00    +0.000 C 
ATOM     18  O   UNL     1       6.191   4.192  18.782  0.00  0.00    +0.000 OA
ENDBRANCH  10  17
ENDBRANCH   6  14
ENDBRANCH   1   7
BRANCH   5  19
ATOM     19  S   UNL     1      -0.080  10.894  19.311  0.00  0.00    +0.000 S 
ATOM     20  O   UNL     1       0.678  10.431  18.165  0.00  0.00    +0.000 OA
ATOM     21  O   UNL     1      -1.468  10.488  19.497  0.00  0.00    +0.000 OA
BRANCH  19  22
ATOM     22  C   UNL     1      -0.040  12.665  19.340  0.00  0.00    +0.000 A 
ATOM     23  C   UNL     1      -1.126  13.472  19.781  0.00  0.00    +0.000 A 
ATOM     24  C   UNL     1      -1.085  14.895  19.787  0.00  0.00    +0.000 A 
ATOM     25  C   UNL     1       0.032  15.634  19.360  0.00  0.00    +0.000 A 
ATOM     26  C   UNL     1       1.172  14.874  19.008  0.00  0.00    +0.000 A 
ATOM     27  N   UNL     1       2.369  15.382  18.677  0.00  0.00    +0.000 NA
ATOM     28  S   UNL     1       3.384  14.092  18.453  0.00  0.00    +0.000 S 
ATOM     29  N   UNL     1       2.333  12.832  18.674  0.00  0.00    +0.000 NA
ATOM     30  C   UNL     1       1.140  13.364  19.000  0.00  0.00    +0.000 A 
ENDBRANCH  19  22
ENDBRANCH   5  19
TORSDOF 5
ENDMDL
