MODEL 1
REMARK VINA RESULT:      -7.3      0.000      0.000
REMARK  Name = 
REMARK  13 active torsions:
REMARK  status: ('A' for Active; 'I' for Inactive)
REMARK    1  A    between atoms: C_1  and  O_2
REMARK    2  A    between atoms: O_2  and  C_3
REMARK    3  A    between atoms: C_6  and  C_7
REMARK    4  A    between atoms: C_8  and  C_9
REMARK    5  A    between atoms: C_11  and  O_12
REMARK    6  A    between atoms: O_12  and  C_13
REMARK    7  A    between atoms: C_14  and  O_15
REMARK    8  A    between atoms: O_15  and  C_16
REMARK    9  A    between atoms: C_17  and  O_18
REMARK   10  A    between atoms: O_18  and  C_19
REMARK   11  A    between atoms: C_22  and  N_23
REMARK   12  A    between atoms: N_26  and  C_27
REMARK   13  A    between atoms: C_33  and  C_34
REMARK                            x       y       z     vdW  Elec       q    Type
REMARK                         _______ _______ _______ _____ _____    ______ ____
ROOT
ATOM      1  C   UNL     1       1.009   9.593  21.727  0.00  0.00    +0.000 A 
ATOM      2  C   UNL     1       1.365   8.289  21.332  0.00  0.00    +0.000 A 
ATOM      3  C   UNL     1       1.657   8.006  19.995  0.00  0.00    +0.000 A 
ATOM      4  C   UNL     1       1.587   9.017  19.043  0.00  0.00    +0.000 A 
ATOM      5  C   UNL     1       1.217  10.316  19.419  0.00  0.00    +0.000 A 
ATOM      6  C   UNL     1       0.961  10.618  20.767  0.00  0.00    +0.000 A 
ENDROOT
BRANCH   6   7
ATOM      7  N   UNL     1       0.743  11.977  21.165  0.00  0.00    +0.000 N 
ATOM      8  C   UNL     1      -0.502  12.597  21.070  0.00  0.00    +0.000 C 
ATOM      9  O   UNL     1      -1.532  11.991  20.792  0.00  0.00    +0.000 OA
ATOM     10  N   UNL     1      -0.430  13.965  21.332  0.00  0.00    +0.000 N 
ATOM     11  H   UNL     1       1.336  12.296  21.922  0.00  0.00    +0.000 HD
ATOM     12  H   UNL     1       0.448  14.399  21.092  0.00  0.00    +0.000 HD
BRANCH  10  13
ATOM     13  C   UNL     1      -1.550  14.821  21.581  0.00  0.00    +0.000 A 
ATOM     14  C   UNL     1      -2.133  15.534  20.518  0.00  0.00    +0.000 A 
ATOM     15  C   UNL     1      -3.251  16.348  20.703  0.00  0.00    +0.000 A 
ATOM     16  C   UNL     1      -3.820  16.460  21.962  0.00  0.00    +0.000 A 
ATOM     17  C   UNL     1      -3.271  15.759  23.037  0.00  0.00    +0.000 A 
ATOM     18 CL   UNL     1      -4.071  15.975  24.559  0.00  0.00    +0.000 Cl
ATOM     19  C   UNL     1      -2.134  14.927  22.872  0.00  0.00    +0.000 A 
ATOM     20  C   UNL     1      -1.546  14.200  24.057  0.00  0.00    +0.000 C 
ENDBRANCH  10  13
ENDBRANCH   6   7
BRANCH   1  22
ATOM     21  C   UNL     1      -0.689   9.703  23.351  0.00  0.00    +0.000 C 
ATOM     22  O   UNL     1       0.688   9.894  23.031  0.00  0.00    +0.000 OA
ENDBRANCH   1  22
BRANCH   4  23
ATOM     23  C   UNL     1       2.044   8.731  17.686  0.00  0.00    +0.000 C 
ATOM     24  C   UNL     1       2.696   7.645  17.257  0.00  0.00    +0.000 C 
BRANCH  24  25
ATOM     25  C   UNL     1       3.048   6.435  18.010  0.00  0.00    +0.000 A 
ATOM     26  C   UNL     1       2.214   5.329  17.965  0.00  0.00    +0.000 A 
ATOM     27  C   UNL     1       2.663   4.090  18.416  0.00  0.00    +0.000 A 
ATOM     28  C   UNL     1       3.962   3.957  18.975  0.00  0.00    +0.000 A 
ATOM     29  C   UNL     1       4.772   5.111  19.092  0.00  0.00    +0.000 A 
ATOM     30  C   UNL     1       4.299   6.338  18.622  0.00  0.00    +0.000 A 
BRANCH  27  31
ATOM     31  O   UNL     1       1.905   2.951  18.314  0.00  0.00    +0.000 OA
ATOM     32  C   UNL     1       0.777   2.881  19.189  0.00  0.00    +0.000 C 
ENDBRANCH  27  31
BRANCH  28  33
ATOM     33  O   UNL     1       4.320   2.697  19.399  0.00  0.00    +0.000 OA
ATOM     34  C   UNL     1       4.055   2.377  20.761  0.00  0.00    +0.000 C 
ENDBRANCH  28  33
BRANCH  29  35
ATOM     35  O   UNL     1       6.008   4.976  19.683  0.00  0.00    +0.000 OA
ATOM     36  C   UNL     1       7.105   5.679  19.111  0.00  0.00    +0.000 C 
ENDBRANCH  29  35
ENDBRANCH  24  25
ENDBRANCH   4  23
TORSDOF 8
ENDMDL
MODEL 2
REMARK VINA RESULT:      -7.2      1.159      1.186
REMARK  Name = 
REMARK  13 active torsions:
REMARK  status: ('A' for Active; 'I' for Inactive)
REMARK    1  A    between atoms: C_1  and  O_2
REMARK    2  A    between atoms: O_2  and  C_3
REMARK    3  A    between atoms: C_6  and  C_7
REMARK    4  A    between atoms: C_8  and  C_9
REMARK    5  A    between atoms: C_11  and  O_12
REMARK    6  A    between atoms: O_12  and  C_13
REMARK    7  A    between atoms: C_14  and  O_15
REMARK    8  A    between atoms: O_15  and  C_16
REMARK    9  A    between atoms: C_17  and  O_18
REMARK   10  A    between atoms: O_18  and  C_19
REMARK   11  A    between atoms: C_22  and  N_23
REMARK   12  A    between atoms: N_26  and  C_27
REMARK   13  A    between atoms: C_33  and  C_34
REMARK                            x       y       z     vdW  Elec       q    Type
REMARK                         _______ _______ _______ _____ _____    ______ ____
ROOT
ATOM      1  C   UNL     1       0.034   9.255  21.276  0.00  0.00    +0.000 A 
ATOM      2  C   UNL     1       1.065   8.299  21.195  0.00  0.00    +0.000 A 
ATOM      3  C   UNL     1       1.785   8.129  20.010  0.00  0.00    +0.000 A 
ATOM      4  C   UNL     1       1.477   8.903  18.897  0.00  0.00    +0.000 A 
ATOM      5  C   UNL     1       0.442   9.846  18.957  0.00  0.00    +0.000 A 
ATOM      6  C   UNL     1      -0.260  10.052  20.158  0.00  0.00    +0.000 A 
ENDROOT
BRANCH   6   7
ATOM      7  N   UNL     1      -1.203  11.126  20.258  0.00  0.00    +0.000 N 
ATOM      8  C   UNL     1      -0.925  12.309  20.941  0.00  0.00    +0.000 C 
ATOM      9  O   UNL     1       0.190  12.588  21.368  0.00  0.00    +0.000 OA
ATOM     10  N   UNL     1      -2.052  13.122  21.067  0.00  0.00    +0.000 N 
ATOM     11  H   UNL     1      -1.832  11.212  19.468  0.00  0.00    +0.000 HD
ATOM     12  H   UNL     1      -2.931  12.628  21.107  0.00  0.00    +0.000 HD
BRANCH  10  13
ATOM     13  C   UNL     1      -2.042  14.496  21.466  0.00  0.00    +0.000 A 
ATOM     14  C   UNL     1      -1.684  15.489  20.538  0.00  0.00    +0.000 A 
ATOM     15  C   UNL     1      -1.699  16.845  20.866  0.00  0.00    +0.000 A 
ATOM     16  C   UNL     1      -2.086  17.240  22.137  0.00  0.00    +0.000 A 
ATOM     17  C   UNL     1      -2.457  16.281  23.080  0.00  0.00    +0.000 A 
ATOM     18 CL   UNL     1      -2.925  16.896  24.631  0.00  0.00    +0.000 Cl
ATOM     19  C   UNL     1      -2.447  14.897  22.768  0.00  0.00    +0.000 A 
ATOM     20  C   UNL     1      -2.829  13.879  23.815  0.00  0.00    +0.000 C 
ENDBRANCH  10  13
ENDBRANCH   6   7
BRANCH   1  22
ATOM     21  C   UNL     1       0.069   9.573  23.607  0.00  0.00    +0.000 C 
ATOM     22  O   UNL     1      -0.710   9.424  22.421  0.00  0.00    +0.000 OA
ENDBRANCH   1  22
BRANCH   4  23
ATOM     23  C   UNL     1       2.341   8.814  17.723  0.00  0.00    +0.000 C 
ATOM     24  C   UNL     1       3.143   7.801  17.376  0.00  0.00    +0.000 C 
BRANCH  24  25
ATOM     25  C   UNL     1       3.302   6.497  18.031  0.00  0.00    +0.000 A 
ATOM     26  C   UNL     1       2.197   5.684  18.225  0.00  0.00    +0.000 A 
ATOM     27  C   UNL     1       2.360   4.343  18.564  0.00  0.00    +0.000 A 
ATOM     28  C   UNL     1       3.659   3.807  18.765  0.00  0.00    +0.000 A 
ATOM     29  C   UNL     1       4.775   4.667  18.645  0.00  0.00    +0.000 A 
ATOM     30  C   UNL     1       4.582   6.006  18.295  0.00  0.00    +0.000 A 
BRANCH  27  31
ATOM     31  O   UNL     1       1.300   3.480  18.683  0.00  0.00    +0.000 OA
ATOM     32  C   UNL     1       0.668   3.454  19.965  0.00  0.00    +0.000 C 
ENDBRANCH  27  31
BRANCH  28  33
ATOM     33  O   UNL     1       3.725   2.473  19.101  0.00  0.00    +0.000 OA
ATOM     34  C   UNL     1       3.743   1.539  18.026  0.00  0.00    +0.000 C 
ENDBRANCH  28  33
BRANCH  29  35
ATOM     35  O   UNL     1       6.024   4.145  18.895  0.00  0.00    +0.000 OA
ATOM     36  C   UNL     1       7.126   4.663  18.158  0.00  0.00    +0.000 C 
ENDBRANCH  29  35
ENDBRANCH  24  25
ENDBRANCH   4  23
TORSDOF 8
ENDMDL
MODEL 3
REMARK VINA RESULT:      -7.2      2.919      3.057
REMARK  Name = 
REMARK  13 active torsions:
REMARK  status: ('A' for Active; 'I' for Inactive)
REMARK    1  A    between atoms: C_1  and  O_2
REMARK    2  A    between atoms: O_2  and  C_3
REMARK    3  A    between atoms: C_6  and  C_7
REMARK    4  A    between atoms: C_8  and  C_9
REMARK    5  A    between atoms: C_11  and  O_12
REMARK    6  A    between atoms: O_12  and  C_13
REMARK    7  A    between atoms: C_14  and  O_15
REMARK    8  A    between atoms: O_15  and  C_16
REMARK    9  A    between atoms: C_17  and  O_18
REMARK   10  A    between atoms: O_18  and  C_19
REMARK   11  A    between atoms: C_22  and  N_23
REMARK   12  A    between atoms: N_26  and  C_27
REMARK   13  A    between atoms: C_33  and  C_34
REMARK                            x       y       z     vdW  Elec       q    Type
REMARK                         _______ _______ _______ _____ _____    ______ ____
ROOT
ATOM      1  C   UNL     1       0.244   9.679  20.765  0.00  0.00    +0.000 A 
ATOM      2  C   UNL     1       1.310   8.761  20.836  0.00  0.00    +0.000 A 
ATOM      3  C   UNL     1       2.014   8.400  19.684  0.00  0.00    +0.000 A 
ATOM      4  C   UNL     1       1.656   8.944  18.456  0.00  0.00    +0.000 A 
ATOM      5  C   UNL     1       0.586   9.846  18.368  0.00  0.00    +0.000 A 
ATOM      6  C   UNL     1      -0.102  10.246  19.527  0.00  0.00    +0.000 A 
ENDROOT
BRANCH   6   7
ATOM      7  N   UNL     1      -1.083  11.286  19.452  0.00  0.00    +0.000 N 
ATOM      8  C   UNL     1      -2.396  11.053  19.043  0.00  0.00    +0.000 C 
ATOM      9  O   UNL     1      -2.853   9.928  18.871  0.00  0.00    +0.000 OA
ATOM     10  N   UNL     1      -3.110  12.238  18.866  0.00  0.00    +0.000 N 
ATOM     11  H   UNL     1      -0.958  12.034  20.123  0.00  0.00    +0.000 HD
ATOM     12  H   UNL     1      -2.554  13.033  18.589  0.00  0.00    +0.000 HD
BRANCH  10  13
ATOM     13  C   UNL     1      -4.530  12.335  18.719  0.00  0.00    +0.000 A 
ATOM     14  C   UNL     1      -5.120  12.101  17.465  0.00  0.00    +0.000 A 
ATOM     15  C   UNL     1      -6.503  12.143  17.282  0.00  0.00    +0.000 A 
ATOM     16  C   UNL     1      -7.331  12.412  18.359  0.00  0.00    +0.000 A 
ATOM     17  C   UNL     1      -6.779  12.642  19.620  0.00  0.00    +0.000 A 
ATOM     18 CL   UNL     1      -7.915  12.964  20.889  0.00  0.00    +0.000 Cl
ATOM     19  C   UNL     1      -5.376  12.605  19.829  0.00  0.00    +0.000 A 
ATOM     20  C   UNL     1      -4.804  12.881  21.199  0.00  0.00    +0.000 C 
ENDBRANCH  10  13
ENDBRANCH   6   7
BRANCH   1  22
ATOM     21  C   UNL     1      -0.226   9.221  23.024  0.00  0.00    +0.000 C 
ATOM     22  O   UNL     1      -0.486  10.030  21.878  0.00  0.00    +0.000 OA
ENDBRANCH   1  22
BRANCH   4  23
ATOM     23  C   UNL     1       2.501   8.671  17.297  0.00  0.00    +0.000 C 
ATOM     24  C   UNL     1       3.274   7.600  17.088  0.00  0.00    +0.000 C 
BRANCH  24  25
ATOM     25  C   UNL     1       3.412   6.396  17.917  0.00  0.00    +0.000 A 
ATOM     26  C   UNL     1       2.300   5.616  18.189  0.00  0.00    +0.000 A 
ATOM     27  C   UNL     1       2.450   4.333  18.710  0.00  0.00    +0.000 A 
ATOM     28  C   UNL     1       3.742   3.830  19.018  0.00  0.00    +0.000 A 
ATOM     29  C   UNL     1       4.863   4.668  18.813  0.00  0.00    +0.000 A 
ATOM     30  C   UNL     1       4.683   5.946  18.279  0.00  0.00    +0.000 A 
BRANCH  27  31
ATOM     31  O   UNL     1       1.385   3.494  18.917  0.00  0.00    +0.000 OA
ATOM     32  C   UNL     1       0.720   3.638  20.174  0.00  0.00    +0.000 C 
ENDBRANCH  27  31
BRANCH  28  33
ATOM     33  O   UNL     1       3.795   2.555  19.533  0.00  0.00    +0.000 OA
ATOM     34  C   UNL     1       3.824   1.483  18.596  0.00  0.00    +0.000 C 
ENDBRANCH  28  33
BRANCH  29  35
ATOM     35  O   UNL     1       6.104   4.186  19.165  0.00  0.00    +0.000 OA
ATOM     36  C   UNL     1       7.234   4.649  18.435  0.00  0.00    +0.000 C 
ENDBRANCH  29  35
ENDBRANCH  24  25
ENDBRANCH   4  23
TORSDOF 8
ENDMDL
MODEL 4
REMARK VINA RESULT:      -7.2      6.443      9.908
REMARK  Name = 
REMARK  13 active torsions:
REMARK  status: ('A' for Active; 'I' for Inactive)
REMARK    1  A    between atoms: C_1  and  O_2
REMARK    2  A    between atoms: O_2  and  C_3
REMARK    3  A    between atoms: C_6  and  C_7
REMARK    4  A    between atoms: C_8  and  C_9
REMARK    5  A    between atoms: C_11  and  O_12
REMARK    6  A    between atoms: O_12  and  C_13
REMARK    7  A    between atoms: C_14  and  O_15
REMARK    8  A    between atoms: O_15  and  C_16
REMARK    9  A    between atoms: C_17  and  O_18
REMARK   10  A    between atoms: O_18  and  C_19
REMARK   11  A    between atoms: C_22  and  N_23
REMARK   12  A    between atoms: N_26  and  C_27
REMARK   13  A    between atoms: C_33  and  C_34
REMARK                            x       y       z     vdW  Elec       q    Type
REMARK                         _______ _______ _______ _____ _____    ______ ____
ROOT
ATOM      1  C   UNL     1       1.878  15.422  18.663  0.00  0.00    +0.000 A 
ATOM      2  C   UNL     1       0.712  15.247  19.432  0.00  0.00    +0.000 A 
ATOM      3  C   UNL     1       0.327  13.974  19.859  0.00  0.00    +0.000 A 
ATOM      4  C   UNL     1       1.095  12.867  19.515  0.00  0.00    +0.000 A 
ATOM      5  C   UNL     1       2.249  13.024  18.735  0.00  0.00    +0.000 A 
ATOM      6  C   UNL     1       2.666  14.305  18.335  0.00  0.00    +0.000 A 
ENDROOT
BRANCH   6   7
ATOM      7  N   UNL     1       3.928  14.473  17.679  0.00  0.00    +0.000 N 
ATOM      8  C   UNL     1       5.105  14.752  18.373  0.00  0.00    +0.000 C 
ATOM      9  O   UNL     1       5.184  14.718  19.596  0.00  0.00    +0.000 OA
ATOM     10  N   UNL     1       6.161  15.061  17.515  0.00  0.00    +0.000 N 
ATOM     11  H   UNL     1       4.037  13.935  16.828  0.00  0.00    +0.000 HD
ATOM     12  H   UNL     1       5.890  15.493  16.645  0.00  0.00    +0.000 HD
BRANCH  10  13
ATOM     13  C   UNL     1       7.541  15.125  17.890  0.00  0.00    +0.000 A 
ATOM     14  C   UNL     1       8.075  16.328  18.382  0.00  0.00    +0.000 A 
ATOM     15  C   UNL     1       9.403  16.428  18.799  0.00  0.00    +0.000 A 
ATOM     16  C   UNL     1      10.228  15.316  18.741  0.00  0.00    +0.000 A 
ATOM     17  C   UNL     1       9.727  14.104  18.266  0.00  0.00    +0.000 A 
ATOM     18 CL   UNL     1      10.850  12.784  18.245  0.00  0.00    +0.000 Cl
ATOM     19  C   UNL     1       8.381  13.979  17.835  0.00  0.00    +0.000 A 
ATOM     20  C   UNL     1       7.871  12.662  17.303  0.00  0.00    +0.000 C 
ENDBRANCH  10  13
ENDBRANCH   6   7
BRANCH   1  22
ATOM     21  C   UNL     1       1.182  17.549  17.939  0.00  0.00    +0.000 C 
ATOM     22  O   UNL     1       2.266  16.660  18.204  0.00  0.00    +0.000 OA
ENDBRANCH   1  22
BRANCH   4  23
ATOM     23  C   UNL     1       0.757  11.573  20.100  0.00  0.00    +0.000 C 
ATOM     24  C   UNL     1      -0.417  10.933  20.041  0.00  0.00    +0.000 C 
BRANCH  24  25
ATOM     25  C   UNL     1      -1.632  11.320  19.314  0.00  0.00    +0.000 A 
ATOM     26  C   UNL     1      -1.924  10.727  18.096  0.00  0.00    +0.000 A 
ATOM     27  C   UNL     1      -3.196  10.852  17.540  0.00  0.00    +0.000 A 
ATOM     28  C   UNL     1      -4.190  11.631  18.189  0.00  0.00    +0.000 A 
ATOM     29  C   UNL     1      -3.852  12.300  19.389  0.00  0.00    +0.000 A 
ATOM     30  C   UNL     1      -2.573  12.149  19.929  0.00  0.00    +0.000 A 
BRANCH  27  31
ATOM     31  O   UNL     1      -3.557  10.213  16.380  0.00  0.00    +0.000 OA
ATOM     32  C   UNL     1      -2.813  10.580  15.217  0.00  0.00    +0.000 C 
ENDBRANCH  27  31
BRANCH  28  33
ATOM     33  O   UNL     1      -5.415  11.702  17.565  0.00  0.00    +0.000 OA
ATOM     34  C   UNL     1      -6.508  11.063  18.219  0.00  0.00    +0.000 C 
ENDBRANCH  28  33
BRANCH  29  35
ATOM     35  O   UNL     1      -4.810  13.094  19.978  0.00  0.00    +0.000 OA
ATOM     36  C   UNL     1      -4.784  13.236  21.394  0.00  0.00    +0.000 C 
ENDBRANCH  29  35
ENDBRANCH  24  25
ENDBRANCH   4  23
TORSDOF 8
ENDMDL
MODEL 5
REMARK VINA RESULT:      -7.1      4.038     10.991
REMARK  Name = 
REMARK  13 active torsions:
REMARK  status: ('A' for Active; 'I' for Inactive)
REMARK    1  A    between atoms: C_1  and  O_2
REMARK    2  A    between atoms: O_2  and  C_3
REMARK    3  A    between atoms: C_6  and  C_7
REMARK    4  A    between atoms: C_8  and  C_9
REMARK    5  A    between atoms: C_11  and  O_12
REMARK    6  A    between atoms: O_12  and  C_13
REMARK    7  A    between atoms: C_14  and  O_15
REMARK    8  A    between atoms: O_15  and  C_16
REMARK    9  A    between atoms: C_17  and  O_18
REMARK   10  A    between atoms: O_18  and  C_19
REMARK   11  A    between atoms: C_22  and  N_23
REMARK   12  A    between atoms: N_26  and  C_27
REMARK   13  A    between atoms: C_33  and  C_34
REMARK                            x       y       z     vdW  Elec       q    Type
REMARK                         _______ _______ _______ _____ _____    ______ ____
ROOT
ATOM      1  C   UNL     1       1.436  11.770  19.351  0.00  0.00    +0.000 A 
ATOM      2  C   UNL     1       1.225  12.742  20.348  0.00  0.00    +0.000 A 
ATOM      3  C   UNL     1       0.368  12.485  21.421  0.00  0.00    +0.000 A 
ATOM      4  C   UNL     1      -0.290  11.263  21.503  0.00  0.00    +0.000 A 
ATOM      5  C   UNL     1      -0.104  10.292  20.509  0.00  0.00    +0.000 A 
ATOM      6  C   UNL     1       0.788  10.527  19.448  0.00  0.00    +0.000 A 
ENDROOT
BRANCH   6   7
ATOM      7  N   UNL     1       1.095   9.473  18.528  0.00  0.00    +0.000 N 
ATOM      8  C   UNL     1       1.855   8.360  18.886  0.00  0.00    +0.000 C 
ATOM      9  O   UNL     1       2.181   8.118  20.044  0.00  0.00    +0.000 OA
ATOM     10  N   UNL     1       2.183   7.569  17.785  0.00  0.00    +0.000 N 
ATOM     11  H   UNL     1       0.392   9.314  17.816  0.00  0.00    +0.000 HD
ATOM     12  H   UNL     1       2.272   8.069  16.913  0.00  0.00    +0.000 HD
BRANCH  10  13
ATOM     13  C   UNL     1       2.709   6.240  17.846  0.00  0.00    +0.000 A 
ATOM     14  C   UNL     1       1.866   5.172  18.198  0.00  0.00    +0.000 A 
ATOM     15  C   UNL     1       2.322   3.853  18.231  0.00  0.00    +0.000 A 
ATOM     16  C   UNL     1       3.638   3.572  17.901  0.00  0.00    +0.000 A 
ATOM     17  C   UNL     1       4.500   4.609  17.539  0.00  0.00    +0.000 A 
ATOM     18 CL   UNL     1       6.119   4.134  17.143  0.00  0.00    +0.000 Cl
ATOM     19  C   UNL     1       4.059   5.956  17.500  0.00  0.00    +0.000 A 
ATOM     20  C   UNL     1       5.018   7.061  17.128  0.00  0.00    +0.000 C 
ENDBRANCH  10  13
ENDBRANCH   6   7
BRANCH   1  22
ATOM     21  C   UNL     1       2.826  13.311  18.245  0.00  0.00    +0.000 C 
ATOM     22  O   UNL     1       2.251  12.006  18.268  0.00  0.00    +0.000 OA
ENDBRANCH   1  22
BRANCH   4  23
ATOM     23  C   UNL     1      -1.057  10.962  22.709  0.00  0.00    +0.000 C 
ATOM     24  C   UNL     1      -2.086  11.652  23.213  0.00  0.00    +0.000 C 
BRANCH  24  25
ATOM     25  C   UNL     1      -2.759  12.829  22.652  0.00  0.00    +0.000 A 
ATOM     26  C   UNL     1      -3.586  12.690  21.549  0.00  0.00    +0.000 A 
ATOM     27  C   UNL     1      -4.455  13.717  21.187  0.00  0.00    +0.000 A 
ATOM     28  C   UNL     1      -4.467  14.937  21.912  0.00  0.00    +0.000 A 
ATOM     29  C   UNL     1      -3.558  15.098  22.984  0.00  0.00    +0.000 A 
ATOM     30  C   UNL     1      -2.705  14.048  23.332  0.00  0.00    +0.000 A 
BRANCH  27  31
ATOM     31  O   UNL     1      -5.352  13.592  20.155  0.00  0.00    +0.000 OA
ATOM     32  C   UNL     1      -5.159  12.459  19.305  0.00  0.00    +0.000 C 
ENDBRANCH  27  31
BRANCH  28  33
ATOM     33  O   UNL     1      -5.355  15.897  21.481  0.00  0.00    +0.000 OA
ATOM     34  C   UNL     1      -4.843  16.904  20.613  0.00  0.00    +0.000 C 
ENDBRANCH  28  33
BRANCH  29  35
ATOM     35  O   UNL     1      -3.545  16.306  23.645  0.00  0.00    +0.000 OA
ATOM     36  C   UNL     1      -4.362  16.447  24.801  0.00  0.00    +0.000 C 
ENDBRANCH  29  35
ENDBRANCH  24  25
ENDBRANCH   4  23
TORSDOF 8
ENDMDL
MODEL 6
REMARK VINA RESULT:      -7.1      4.044     10.412
REMARK  Name = 
REMARK  13 active torsions:
REMARK  status: ('A' for Active; 'I' for Inactive)
REMARK    1  A    between atoms: C_1  and  O_2
REMARK    2  A    between atoms: O_2  and  C_3
REMARK    3  A    between atoms: C_6  and  C_7
REMARK    4  A    between atoms: C_8  and  C_9
REMARK    5  A    between atoms: C_11  and  O_12
REMARK    6  A    between atoms: O_12  and  C_13
REMARK    7  A    between atoms: C_14  and  O_15
REMARK    8  A    between atoms: O_15  and  C_16
REMARK    9  A    between atoms: C_17  and  O_18
REMARK   10  A    between atoms: O_18  and  C_19
REMARK   11  A    between atoms: C_22  and  N_23
REMARK   12  A    between atoms: N_26  and  C_27
REMARK   13  A    between atoms: C_33  and  C_34
REMARK                            x       y       z     vdW  Elec       q    Type
REMARK                         _______ _______ _______ _____ _____    ______ ____
ROOT
ATOM      1  C   UNL     1       1.119  12.077  18.712  0.00  0.00    +0.000 A 
ATOM      2  C   UNL     1       0.340  13.228  18.485  0.00  0.00    +0.000 A 
ATOM      3  C   UNL     1      -1.047  13.130  18.345  0.00  0.00    +0.000 A 
ATOM      4  C   UNL     1      -1.664  11.886  18.419  0.00  0.00    +0.000 A 
ATOM      5  C   UNL     1      -0.898  10.730  18.627  0.00  0.00    +0.000 A 
ATOM      6  C   UNL     1       0.492  10.824  18.810  0.00  0.00    +0.000 A 
ENDROOT
BRANCH   6   7
ATOM      7  N   UNL     1       1.243   9.662  19.181  0.00  0.00    +0.000 N 
ATOM      8  C   UNL     1       1.768   8.775  18.243  0.00  0.00    +0.000 C 
ATOM      9  O   UNL     1       1.768   8.999  17.037  0.00  0.00    +0.000 OA
ATOM     10  N   UNL     1       2.291   7.626  18.839  0.00  0.00    +0.000 N 
ATOM     11  H   UNL     1       1.772   9.757  20.040  0.00  0.00    +0.000 HD
ATOM     12  H   UNL     1       1.844   7.353  19.701  0.00  0.00    +0.000 HD
BRANCH  10  13
ATOM     13  C   UNL     1       3.131   6.666  18.191  0.00  0.00    +0.000 A 
ATOM     14  C   UNL     1       4.218   7.102  17.413  0.00  0.00    +0.000 A 
ATOM     15  C   UNL     1       5.090   6.204  16.796  0.00  0.00    +0.000 A 
ATOM     16  C   UNL     1       4.899   4.841  16.955  0.00  0.00    +0.000 A 
ATOM     17  C   UNL     1       3.836   4.374  17.729  0.00  0.00    +0.000 A 
ATOM     18 CL   UNL     1       3.702   2.651  17.858  0.00  0.00    +0.000 Cl
ATOM     19  C   UNL     1       2.935   5.269  18.363  0.00  0.00    +0.000 A 
ATOM     20  C   UNL     1       1.779   4.736  19.175  0.00  0.00    +0.000 C 
ENDBRANCH  10  13
ENDBRANCH   6   7
BRANCH   1  22
ATOM     21  C   UNL     1       3.056  13.368  18.372  0.00  0.00    +0.000 C 
ATOM     22  O   UNL     1       2.490  12.140  18.825  0.00  0.00    +0.000 OA
ENDBRANCH   1  22
BRANCH   4  23
ATOM     23  C   UNL     1      -3.123  11.829  18.422  0.00  0.00    +0.000 C 
ATOM     24  C   UNL     1      -3.949  12.162  19.420  0.00  0.00    +0.000 C 
BRANCH  24  25
ATOM     25  C   UNL     1      -3.617  12.742  20.726  0.00  0.00    +0.000 A 
ATOM     26  C   UNL     1      -2.748  12.075  21.575  0.00  0.00    +0.000 A 
ATOM     27  C   UNL     1      -2.191  12.733  22.670  0.00  0.00    +0.000 A 
ATOM     28  C   UNL     1      -2.547  14.076  22.958  0.00  0.00    +0.000 A 
ATOM     29  C   UNL     1      -3.499  14.719  22.132  0.00  0.00    +0.000 A 
ATOM     30  C   UNL     1      -4.033  14.039  21.035  0.00  0.00    +0.000 A 
BRANCH  27  31
ATOM     31  O   UNL     1      -1.263  12.140  23.489  0.00  0.00    +0.000 OA
ATOM     32  C   UNL     1      -0.887  10.808  23.133  0.00  0.00    +0.000 C 
ENDBRANCH  27  31
BRANCH  28  33
ATOM     33  O   UNL     1      -1.951  14.644  24.062  0.00  0.00    +0.000 OA
ATOM     34  C   UNL     1      -0.832  15.493  23.823  0.00  0.00    +0.000 C 
ENDBRANCH  28  33
BRANCH  29  35
ATOM     35  O   UNL     1      -3.873  16.004  22.454  0.00  0.00    +0.000 OA
ATOM     36  C   UNL     1      -4.799  16.666  21.601  0.00  0.00    +0.000 C 
ENDBRANCH  29  35
ENDBRANCH  24  25
ENDBRANCH   4  23
TORSDOF 8
ENDMDL
MODEL 7
REMARK VINA RESULT:      -7.1      4.413     10.513
REMARK  Name = 
REMARK  13 active torsions:
REMARK  status: ('A' for Active; 'I' for Inactive)
REMARK    1  A    between atoms: C_1  and  O_2
REMARK    2  A    between atoms: O_2  and  C_3
REMARK    3  A    between atoms: C_6  and  C_7
REMARK    4  A    between atoms: C_8  and  C_9
REMARK    5  A    between atoms: C_11  and  O_12
REMARK    6  A    between atoms: O_12  and  C_13
REMARK    7  A    between atoms: C_14  and  O_15
REMARK    8  A    between atoms: O_15  and  C_16
REMARK    9  A    between atoms: C_17  and  O_18
REMARK   10  A    between atoms: O_18  and  C_19
REMARK   11  A    between atoms: C_22  and  N_23
REMARK   12  A    between atoms: N_26  and  C_27
REMARK   13  A    between atoms: C_33  and  C_34
REMARK                            x       y       z     vdW  Elec       q    Type
REMARK                         _______ _______ _______ _____ _____    ______ ____
ROOT
ATOM      1  C   UNL     1      -0.968  13.524  22.913  0.00  0.00    +0.000 A 
ATOM      2  C   UNL     1      -1.776  14.583  23.369  0.00  0.00    +0.000 A 
ATOM      3  C   UNL     1      -3.110  14.360  23.717  0.00  0.00    +0.000 A 
ATOM      4  C   UNL     1      -3.650  13.083  23.605  0.00  0.00    +0.000 A 
ATOM      5  C   UNL     1      -2.862  12.022  23.136  0.00  0.00    +0.000 A 
ATOM      6  C   UNL     1      -1.508  12.230  22.822  0.00  0.00    +0.000 A 
ENDROOT
BRANCH   6   7
ATOM      7  N   UNL     1      -0.671  11.113  22.500  0.00  0.00    +0.000 N 
ATOM      8  C   UNL     1      -0.316  10.792  21.190  0.00  0.00    +0.000 C 
ATOM      9  O   UNL     1      -0.557  11.522  20.235  0.00  0.00    +0.000 OA
ATOM     10  N   UNL     1       0.340   9.564  21.108  0.00  0.00    +0.000 N 
ATOM     11  H   UNL     1       0.013  10.878  23.210  0.00  0.00    +0.000 HD
ATOM     12  H   UNL     1       0.077   8.892  21.814  0.00  0.00    +0.000 HD
BRANCH  10  13
ATOM     13  C   UNL     1       1.062   9.085  19.969  0.00  0.00    +0.000 A 
ATOM     14  C   UNL     1       1.226   9.915  18.847  0.00  0.00    +0.000 A 
ATOM     15  C   UNL     1       1.957   9.508  17.730  0.00  0.00    +0.000 A 
ATOM     16  C   UNL     1       2.553   8.258  17.716  0.00  0.00    +0.000 A 
ATOM     17  C   UNL     1       2.417   7.412  18.818  0.00  0.00    +0.000 A 
ATOM     18 CL   UNL     1       3.210   5.876  18.686  0.00  0.00    +0.000 Cl
ATOM     19  C   UNL     1       1.678   7.803  19.963  0.00  0.00    +0.000 A 
ATOM     20  C   UNL     1       1.527   6.859  21.131  0.00  0.00    +0.000 C 
ENDBRANCH  10  13
ENDBRANCH   6   7
BRANCH   1  22
ATOM     21  C   UNL     1       0.621  15.038  22.066  0.00  0.00    +0.000 C 
ATOM     22  O   UNL     1       0.341  13.720  22.535  0.00  0.00    +0.000 OA
ENDBRANCH   1  22
BRANCH   4  23
ATOM     23  C   UNL     1      -4.996  12.846  24.118  0.00  0.00    +0.000 C 
ATOM     24  C   UNL     1      -6.143  12.846  23.429  0.00  0.00    +0.000 C 
BRANCH  24  25
ATOM     25  C   UNL     1      -6.339  13.000  21.983  0.00  0.00    +0.000 A 
ATOM     26  C   UNL     1      -6.497  11.878  21.185  0.00  0.00    +0.000 A 
ATOM     27  C   UNL     1      -6.975  12.003  19.882  0.00  0.00    +0.000 A 
ATOM     28  C   UNL     1      -7.256  13.284  19.340  0.00  0.00    +0.000 A 
ATOM     29  C   UNL     1      -7.010  14.427  20.136  0.00  0.00    +0.000 A 
ATOM     30  C   UNL     1      -6.540  14.272  21.443  0.00  0.00    +0.000 A 
BRANCH  27  31
ATOM     31  O   UNL     1      -7.228  10.915  19.085  0.00  0.00    +0.000 OA
ATOM     32  C   UNL     1      -6.972   9.641  19.680  0.00  0.00    +0.000 C 
ENDBRANCH  27  31
BRANCH  28  33
ATOM     33  O   UNL     1      -7.720  13.312  18.044  0.00  0.00    +0.000 OA
ATOM     34  C   UNL     1      -6.768  13.604  17.026  0.00  0.00    +0.000 C 
ENDBRANCH  28  33
BRANCH  29  35
ATOM     35  O   UNL     1      -7.237  15.665  19.579  0.00  0.00    +0.000 OA
ATOM     36  C   UNL     1      -6.149  16.579  19.510  0.00  0.00    +0.000 C 
ENDBRANCH  29  35
ENDBRANCH  24  25
ENDBRANCH   4  23
TORSDOF 8
ENDMDL
MODEL 8
REMARK VINA RESULT:      -7.1      4.129     10.688
REMARK  Name = 
REMARK  13 active torsions:
REMARK  status: ('A' for Active; 'I' for Inactive)
REMARK    1  A    between atoms: C_1  and  O_2
REMARK    2  A    between atoms: O_2  and  C_3
REMARK    3  A    between atoms: C_6  and  C_7
REMARK    4  A    between atoms: C_8  and  C_9
REMARK    5  A    between atoms: C_11  and  O_12
REMARK    6  A    between atoms: O_12  and  C_13
REMARK    7  A    between atoms: C_14  and  O_15
REMARK    8  A    between atoms: O_15  and  C_16
REMARK    9  A    between atoms: C_17  and  O_18
REMARK   10  A    between atoms: O_18  and  C_19
REMARK   11  A    between atoms: C_22  and  N_23
REMARK   12  A    between atoms: N_26  and  C_27
REMARK   13  A    between atoms: C_33  and  C_34
REMARK                            x       y       z     vdW  Elec       q    Type
REMARK                         _______ _______ _______ _____ _____    ______ ____
ROOT
ATOM      1  C   UNL     1      -0.654  10.967  18.526  0.00  0.00    +0.000 A 
ATOM      2  C   UNL     1      -1.148  12.232  18.149  0.00  0.00    +0.000 A 
ATOM      3  C   UNL     1      -0.371  13.379  18.330  0.00  0.00    +0.000 A 
ATOM      4  C   UNL     1       0.896  13.276  18.894  0.00  0.00    +0.000 A 
ATOM      5  C   UNL     1       1.392  12.026  19.290  0.00  0.00    +0.000 A 
ATOM      6  C   UNL     1       0.635  10.862  19.074  0.00  0.00    +0.000 A 
ENDROOT
BRANCH   6   7
ATOM      7  N   UNL     1       1.213   9.577  19.331  0.00  0.00    +0.000 N 
ATOM      8  C   UNL     1       1.841   8.823  18.340  0.00  0.00    +0.000 C 
ATOM      9  O   UNL     1       2.088   9.263  17.222  0.00  0.00    +0.000 OA
ATOM     10  N   UNL     1       2.153   7.535  18.776  0.00  0.00    +0.000 N 
ATOM     11  H   UNL     1       1.573   9.455  20.270  0.00  0.00    +0.000 HD
ATOM     12  H   UNL     1       1.531   7.160  19.476  0.00  0.00    +0.000 HD
BRANCH  10  13
ATOM     13  C   UNL     1       3.029   6.623  18.106  0.00  0.00    +0.000 A 
ATOM     14  C   UNL     1       4.134   7.115  17.390  0.00  0.00    +0.000 A 
ATOM     15  C   UNL     1       5.039   6.264  16.756  0.00  0.00    +0.000 A 
ATOM     16  C   UNL     1       4.863   4.892  16.834  0.00  0.00    +0.000 A 
ATOM     17  C   UNL     1       3.781   4.369  17.544  0.00  0.00    +0.000 A 
ATOM     18 CL   UNL     1       3.669   2.640  17.574  0.00  0.00    +0.000 Cl
ATOM     19  C   UNL     1       2.848   5.216  18.195  0.00  0.00    +0.000 A 
ATOM     20  C   UNL     1       1.673   4.625  18.936  0.00  0.00    +0.000 C 
ENDBRANCH  10  13
ENDBRANCH   6   7
BRANCH   1  22
ATOM     21  C   UNL     1      -2.665  10.029  17.744  0.00  0.00    +0.000 C 
ATOM     22  O   UNL     1      -1.408   9.824  18.387  0.00  0.00    +0.000 OA
ENDBRANCH   1  22
BRANCH   4  23
ATOM     23  C   UNL     1       1.743  14.464  18.930  0.00  0.00    +0.000 C 
ATOM     24  C   UNL     1       1.669  15.493  19.782  0.00  0.00    +0.000 C 
BRANCH  24  25
ATOM     25  C   UNL     1       0.781  15.657  20.940  0.00  0.00    +0.000 A 
ATOM     26  C   UNL     1       0.047  16.823  21.085  0.00  0.00    +0.000 A 
ATOM     27  C   UNL     1      -1.008  16.882  21.993  0.00  0.00    +0.000 A 
ATOM     28  C   UNL     1      -1.309  15.766  22.817  0.00  0.00    +0.000 A 
ATOM     29  C   UNL     1      -0.498  14.611  22.719  0.00  0.00    +0.000 A 
ATOM     30  C   UNL     1       0.547  14.576  21.792  0.00  0.00    +0.000 A 
BRANCH  27  31
ATOM     31  O   UNL     1      -1.816  17.985  22.111  0.00  0.00    +0.000 OA
ATOM     32  C   UNL     1      -2.649  18.262  20.983  0.00  0.00    +0.000 C 
ENDBRANCH  27  31
BRANCH  28  33
ATOM     33  O   UNL     1      -2.365  15.915  23.688  0.00  0.00    +0.000 OA
ATOM     34  C   UNL     1      -3.610  15.348  23.293  0.00  0.00    +0.000 C 
ENDBRANCH  28  33
BRANCH  29  35
ATOM     35  O   UNL     1      -0.769  13.556  23.562  0.00  0.00    +0.000 OA
ATOM     36  C   UNL     1      -1.209  12.333  22.984  0.00  0.00    +0.000 C 
ENDBRANCH  29  35
ENDBRANCH  24  25
ENDBRANCH   4  23
TORSDOF 8
ENDMDL
MODEL 9
REMARK VINA RESULT:      -7.1      1.795      2.249
REMARK  Name = 
REMARK  13 active torsions:
REMARK  status: ('A' for Active; 'I' for Inactive)
REMARK    1  A    between atoms: C_1  and  O_2
REMARK    2  A    between atoms: O_2  and  C_3
REMARK    3  A    between atoms: C_6  and  C_7
REMARK    4  A    between atoms: C_8  and  C_9
REMARK    5  A    between atoms: C_11  and  O_12
REMARK    6  A    between atoms: O_12  and  C_13
REMARK    7  A    between atoms: C_14  and  O_15
REMARK    8  A    between atoms: O_15  and  C_16
REMARK    9  A    between atoms: C_17  and  O_18
REMARK   10  A    between atoms: O_18  and  C_19
REMARK   11  A    between atoms: C_22  and  N_23
REMARK   12  A    between atoms: N_26  and  C_27
REMARK   13  A    between atoms: C_33  and  C_34
REMARK                            x       y       z     vdW  Elec       q    Type
REMARK                         _______ _______ _______ _____ _____    ______ ____
ROOT
ATOM      1  C   UNL     1       1.044   9.539  21.727  0.00  0.00    +0.000 A 
ATOM      2  C   UNL     1       1.478   8.254  21.349  0.00  0.00    +0.000 A 
ATOM      3  C   UNL     1       1.804   7.976  20.019  0.00  0.00    +0.000 A 
ATOM      4  C   UNL     1       1.691   8.973  19.056  0.00  0.00    +0.000 A 
ATOM      5  C   UNL     1       1.243  10.253  19.415  0.00  0.00    +0.000 A 
ATOM      6  C   UNL     1       0.952  10.552  20.757  0.00  0.00    +0.000 A 
ENDROOT
BRANCH   6   7
ATOM      7  N   UNL     1       0.653  11.899  21.140  0.00  0.00    +0.000 N 
ATOM      8  C   UNL     1       0.082  12.820  20.263  0.00  0.00    +0.000 C 
ATOM      9  O   UNL     1      -0.351  12.512  19.158  0.00  0.00    +0.000 OA
ATOM     10  N   UNL     1       0.061  14.110  20.794  0.00  0.00    +0.000 N 
ATOM     11  H   UNL     1       0.416  12.019  22.117  0.00  0.00    +0.000 HD
ATOM     12  H   UNL     1       0.808  14.318  21.439  0.00  0.00    +0.000 HD
BRANCH  10  13
ATOM     13  C   UNL     1      -0.691  15.210  20.270  0.00  0.00    +0.000 A 
ATOM     14  C   UNL     1      -1.942  15.527  20.826  0.00  0.00    +0.000 A 
ATOM     15  C   UNL     1      -2.693  16.614  20.378  0.00  0.00    +0.000 A 
ATOM     16  C   UNL     1      -2.200  17.419  19.364  0.00  0.00    +0.000 A 
ATOM     17  C   UNL     1      -0.957  17.138  18.796  0.00  0.00    +0.000 A 
ATOM     18 CL   UNL     1      -0.444  18.217  17.540  0.00  0.00    +0.000 Cl
ATOM     19  C   UNL     1      -0.177  16.037  19.234  0.00  0.00    +0.000 A 
ATOM     20  C   UNL     1       1.154  15.741  18.586  0.00  0.00    +0.000 C 
ENDBRANCH  10  13
ENDBRANCH   6   7
BRANCH   1  22
ATOM     21  C   UNL     1      -0.660   9.502  23.348  0.00  0.00    +0.000 C 
ATOM     22  O   UNL     1       0.689   9.833  23.024  0.00  0.00    +0.000 OA
ENDBRANCH   1  22
BRANCH   4  23
ATOM     23  C   UNL     1       2.181   8.702  17.708  0.00  0.00    +0.000 C 
ATOM     24  C   UNL     1       2.832   7.615  17.281  0.00  0.00    +0.000 C 
BRANCH  24  25
ATOM     25  C   UNL     1       3.149   6.389  18.025  0.00  0.00    +0.000 A 
ATOM     26  C   UNL     1       2.175   5.420  18.203  0.00  0.00    +0.000 A 
ATOM     27  C   UNL     1       2.523   4.142  18.634  0.00  0.00    +0.000 A 
ATOM     28  C   UNL     1       3.874   3.834  18.946  0.00  0.00    +0.000 A 
ATOM     29  C   UNL     1       4.846   4.856  18.840  0.00  0.00    +0.000 A 
ATOM     30  C   UNL     1       4.469   6.125  18.395  0.00  0.00    +0.000 A 
BRANCH  27  31
ATOM     31  O   UNL     1       1.606   3.127  18.744  0.00  0.00    +0.000 OA
ATOM     32  C   UNL     1       0.735   3.203  19.874  0.00  0.00    +0.000 C 
ENDBRANCH  27  31
BRANCH  28  33
ATOM     33  O   UNL     1       4.125   2.548  19.369  0.00  0.00    +0.000 OA
ATOM     34  C   UNL     1       4.194   2.335  20.776  0.00  0.00    +0.000 C 
ENDBRANCH  28  33
BRANCH  29  35
ATOM     35  O   UNL     1       6.141   4.556  19.196  0.00  0.00    +0.000 OA
ATOM     36  C   UNL     1       7.084   5.620  19.252  0.00  0.00    +0.000 C 
ENDBRANCH  29  35
ENDBRANCH  24  25
ENDBRANCH   4  23
TORSDOF 8
ENDMDL
