MODEL 1
REMARK VINA RESULT:      -8.8      0.000      0.000
REMARK  Name = 
REMARK  7 active torsions:
REMARK  status: ('A' for Active; 'I' for Inactive)
REMARK    1  A    between atoms: C_1  and  C_2
REMARK    2  A    between atoms: C_10  and  C_11
REMARK    3  A    between atoms: C_11  and  C_12
REMARK    4  A    between atoms: C_12  and  N_13
REMARK    5  A    between atoms: C_14  and  C_16
REMARK    6  A    between atoms: C_19  and  C_20
REMARK    7  A    between atoms: N_22  and  O_23
REMARK                            x       y       z     vdW  Elec       q    Type
REMARK                         _______ _______ _______ _____ _____    ______ ____
ROOT
ATOM      1  N   UNL     1       3.645   5.784  17.991  0.00  0.00    +0.000 N 
ATOM      2  C   UNL     1       3.066   6.216  19.167  0.00  0.00    +0.000 C 
ATOM      3  O   UNL     1       3.177   5.626  20.240  0.00  0.00    +0.000 OA
ATOM      4  H   UNL     1       3.700   6.421  17.201  0.00  0.00    +0.000 HD
ENDROOT
BRANCH   2   5
ATOM      5  C   UNL     1       2.294   7.486  19.108  0.00  0.00    +0.000 A 
ATOM      6  C   UNL     1       2.146   8.191  17.911  0.00  0.00    +0.000 A 
ATOM      7  C   UNL     1       1.397   9.371  17.885  0.00  0.00    +0.000 A 
ATOM      8  C   UNL     1       0.776   9.857  19.049  0.00  0.00    +0.000 A 
ATOM      9  C   UNL     1       0.925   9.143  20.246  0.00  0.00    +0.000 A 
ATOM     10  C   UNL     1       1.673   7.959  20.273  0.00  0.00    +0.000 A 
BRANCH   8  11
ATOM     11  C   UNL     1      -0.009  11.122  18.939  0.00  0.00    +0.000 C 
ATOM     12  O   UNL     1      -0.063  11.916  19.876  0.00  0.00    +0.000 OA
ATOM     13  N   UNL     1      -0.659  11.377  17.754  0.00  0.00    +0.000 N 
ATOM     14  H   UNL     1      -0.544  10.872  16.885  0.00  0.00    +0.000 HD
BRANCH  13  15
ATOM     15  O   UNL     1      -1.333  12.617  17.670  0.00  0.00    +0.000 OA
ATOM     16  H   UNL     1      -2.168  12.367  17.216  0.00  0.00    +0.000 HD
ENDBRANCH  13  15
ENDBRANCH   8  11
ENDBRANCH   2   5
BRANCH   1  17
ATOM     17  C   UNL     1       4.447   4.573  17.986  0.00  0.00    +0.000 C 
BRANCH  17  18
ATOM     18  C   UNL     1       4.598   3.928  16.606  0.00  0.00    +0.000 C 
BRANCH  18  28
ATOM     19  C   UNL     1       7.019   5.934  17.635  0.00  0.00    +0.000 C 
ATOM     20  C   UNL     1       6.761   5.335  16.298  0.00  0.00    +0.000 A 
ATOM     21  N   UNL     1       7.611   5.591  15.251  0.00  0.00    +0.000 N 
ATOM     22  C   UNL     1       7.190   4.953  14.111  0.00  0.00    +0.000 A 
ATOM     23  C   UNL     1       7.755   4.939  12.831  0.00  0.00    +0.000 A 
ATOM     24  C   UNL     1       7.099   4.201  11.844  0.00  0.00    +0.000 A 
ATOM     25  C   UNL     1       5.927   3.510  12.131  0.00  0.00    +0.000 A 
ATOM     26  C   UNL     1       5.377   3.533  13.420  0.00  0.00    +0.000 A 
ATOM     27  C   UNL     1       6.022   4.266  14.437  0.00  0.00    +0.000 A 
ATOM     28  C   UNL     1       5.755   4.497  15.831  0.00  0.00    +0.000 A 
ATOM     29  H   UNL     1       8.435   6.172  15.301  0.00  0.00    +0.000 HD
ENDBRANCH  18  28
ENDBRANCH  17  18
ENDBRANCH   1  17
TORSDOF 6
ENDMDL
MODEL 2
REMARK VINA RESULT:      -8.7      0.351      1.027
REMARK  Name = 
REMARK  7 active torsions:
REMARK  status: ('A' for Active; 'I' for Inactive)
REMARK    1  A    between atoms: C_1  and  C_2
REMARK    2  A    between atoms: C_10  and  C_11
REMARK    3  A    between atoms: C_11  and  C_12
REMARK    4  A    between atoms: C_12  and  N_13
REMARK    5  A    between atoms: C_14  and  C_16
REMARK    6  A    between atoms: C_19  and  C_20
REMARK    7  A    between atoms: N_22  and  O_23
REMARK                            x       y       z     vdW  Elec       q    Type
REMARK                         _______ _______ _______ _____ _____    ______ ____
ROOT
ATOM      1  N   UNL     1       3.881   5.847  18.296  0.00  0.00    +0.000 N 
ATOM      2  C   UNL     1       2.961   6.164  19.275  0.00  0.00    +0.000 C 
ATOM      3  O   UNL     1       2.713   5.442  20.238  0.00  0.00    +0.000 OA
ATOM      4  H   UNL     1       4.198   6.572  17.658  0.00  0.00    +0.000 HD
ENDROOT
BRANCH   2   5
ATOM      5  C   UNL     1       2.269   7.474  19.146  0.00  0.00    +0.000 A 
ATOM      6  C   UNL     1       1.607   8.056  20.230  0.00  0.00    +0.000 A 
ATOM      7  C   UNL     1       0.984   9.299  20.081  0.00  0.00    +0.000 A 
ATOM      8  C   UNL     1       1.021   9.981  18.853  0.00  0.00    +0.000 A 
ATOM      9  C   UNL     1       1.691   9.395  17.770  0.00  0.00    +0.000 A 
ATOM     10  C   UNL     1       2.318   8.151  17.919  0.00  0.00    +0.000 A 
BRANCH   8  11
ATOM     11  C   UNL     1       0.334  11.305  18.774  0.00  0.00    +0.000 C 
ATOM     12  O   UNL     1       0.617  12.211  19.557  0.00  0.00    +0.000 OA
ATOM     13  N   UNL     1      -0.613  11.483  17.793  0.00  0.00    +0.000 N 
ATOM     14  H   UNL     1      -0.794  10.864  17.015  0.00  0.00    +0.000 HD
BRANCH  13  15
ATOM     15  O   UNL     1      -1.188  12.772  17.713  0.00  0.00    +0.000 OA
ATOM     16  H   UNL     1      -2.076  12.578  17.342  0.00  0.00    +0.000 HD
ENDBRANCH  13  15
ENDBRANCH   8  11
ENDBRANCH   2   5
BRANCH   1  17
ATOM     17  C   UNL     1       4.624   4.602  18.384  0.00  0.00    +0.000 C 
BRANCH  17  18
ATOM     18  C   UNL     1       4.787   3.876  17.046  0.00  0.00    +0.000 C 
BRANCH  18  28
ATOM     19  C   UNL     1       7.176   6.005  17.884  0.00  0.00    +0.000 C 
ATOM     20  C   UNL     1       6.850   5.382  16.573  0.00  0.00    +0.000 A 
ATOM     21  N   UNL     1       7.608   5.670  15.465  0.00  0.00    +0.000 N 
ATOM     22  C   UNL     1       7.137   5.003  14.363  0.00  0.00    +0.000 A 
ATOM     23  C   UNL     1       7.608   5.005  13.045  0.00  0.00    +0.000 A 
ATOM     24  C   UNL     1       6.918   4.227  12.113  0.00  0.00    +0.000 A 
ATOM     25  C   UNL     1       5.805   3.482  12.488  0.00  0.00    +0.000 A 
ATOM     26  C   UNL     1       5.350   3.491  13.814  0.00  0.00    +0.000 A 
ATOM     27  C   UNL     1       6.031   4.263  14.777  0.00  0.00    +0.000 A 
ATOM     28  C   UNL     1       5.855   4.493  16.185  0.00  0.00    +0.000 A 
ATOM     29  H   UNL     1       8.405   6.291  15.451  0.00  0.00    +0.000 HD
ENDBRANCH  18  28
ENDBRANCH  17  18
ENDBRANCH   1  17
TORSDOF 6
ENDMDL
MODEL 3
REMARK VINA RESULT:      -8.6      3.106      9.662
REMARK  Name = 
REMARK  7 active torsions:
REMARK  status: ('A' for Active; 'I' for Inactive)
REMARK    1  A    between atoms: C_1  and  C_2
REMARK    2  A    between atoms: C_10  and  C_11
REMARK    3  A    between atoms: C_11  and  C_12
REMARK    4  A    between atoms: C_12  and  N_13
REMARK    5  A    between atoms: C_14  and  C_16
REMARK    6  A    between atoms: C_19  and  C_20
REMARK    7  A    between atoms: N_22  and  O_23
REMARK                            x       y       z     vdW  Elec       q    Type
REMARK                         _______ _______ _______ _____ _____    ______ ____
ROOT
ATOM      1  N   UNL     1       2.202   7.464  20.208  0.00  0.00    +0.000 N 
ATOM      2  C   UNL     1       2.486   6.136  19.957  0.00  0.00    +0.000 C 
ATOM      3  O   UNL     1       1.857   5.199  20.445  0.00  0.00    +0.000 OA
ATOM      4  H   UNL     1       2.607   8.180  19.612  0.00  0.00    +0.000 HD
ENDROOT
BRANCH   2   5
ATOM      5  C   UNL     1       3.602   5.856  19.016  0.00  0.00    +0.000 A 
ATOM      6  C   UNL     1       3.650   6.445  17.750  0.00  0.00    +0.000 A 
ATOM      7  C   UNL     1       4.725   6.177  16.896  0.00  0.00    +0.000 A 
ATOM      8  C   UNL     1       5.770   5.328  17.298  0.00  0.00    +0.000 A 
ATOM      9  C   UNL     1       5.719   4.744  18.571  0.00  0.00    +0.000 A 
ATOM     10  C   UNL     1       4.644   5.013  19.428  0.00  0.00    +0.000 A 
BRANCH   8  11
ATOM     11  C   UNL     1       6.884   5.095  16.331  0.00  0.00    +0.000 C 
ATOM     12  O   UNL     1       7.856   4.408  16.641  0.00  0.00    +0.000 OA
ATOM     13  N   UNL     1       6.782   5.659  15.081  0.00  0.00    +0.000 N 
ATOM     14  H   UNL     1       5.960   6.096  14.684  0.00  0.00    +0.000 HD
BRANCH  13  15
ATOM     15  O   UNL     1       7.824   5.355  14.176  0.00  0.00    +0.000 OA
ATOM     16  H   UNL     1       7.351   5.338  13.315  0.00  0.00    +0.000 HD
ENDBRANCH  13  15
ENDBRANCH   8  11
ENDBRANCH   2   5
BRANCH   1  17
ATOM     17  C   UNL     1       1.096   7.809  21.086  0.00  0.00    +0.000 C 
BRANCH  17  18
ATOM     18  C   UNL     1       1.234   9.179  21.755  0.00  0.00    +0.000 C 
BRANCH  18  28
ATOM     19  C   UNL     1       1.330  10.349  18.663  0.00  0.00    +0.000 C 
ATOM     20  C   UNL     1       0.432  10.688  19.799  0.00  0.00    +0.000 A 
ATOM     21  N   UNL     1      -0.557  11.627  19.641  0.00  0.00    +0.000 N 
ATOM     22  C   UNL     1      -1.261  11.797  20.806  0.00  0.00    +0.000 A 
ATOM     23  C   UNL     1      -2.342  12.642  21.084  0.00  0.00    +0.000 A 
ATOM     24  C   UNL     1      -2.865  12.615  22.379  0.00  0.00    +0.000 A 
ATOM     25  C   UNL     1      -2.326  11.777  23.349  0.00  0.00    +0.000 A 
ATOM     26  C   UNL     1      -1.246  10.935  23.050  0.00  0.00    +0.000 A 
ATOM     27  C   UNL     1      -0.701  10.939  21.750  0.00  0.00    +0.000 A 
ATOM     28  C   UNL     1       0.368  10.223  21.107  0.00  0.00    +0.000 A 
ATOM     29  H   UNL     1      -0.746  12.134  18.788  0.00  0.00    +0.000 HD
ENDBRANCH  18  28
ENDBRANCH  17  18
ENDBRANCH   1  17
TORSDOF 6
ENDMDL
MODEL 4
REMARK VINA RESULT:      -8.6      2.908      9.387
REMARK  Name = 
REMARK  7 active torsions:
REMARK  status: ('A' for Active; 'I' for Inactive)
REMARK    1  A    between atoms: C_1  and  C_2
REMARK    2  A    between atoms: C_10  and  C_11
REMARK    3  A    between atoms: C_11  and  C_12
REMARK    4  A    between atoms: C_12  and  N_13
REMARK    5  A    between atoms: C_14  and  C_16
REMARK    6  A    between atoms: C_19  and  C_20
REMARK    7  A    between atoms: N_22  and  O_23
REMARK                            x       y       z     vdW  Elec       q    Type
REMARK                         _______ _______ _______ _____ _____    ______ ____
ROOT
ATOM      1  N   UNL     1       2.417   6.774  19.535  0.00  0.00    +0.000 N 
ATOM      2  C   UNL     1       2.433   5.547  18.902  0.00  0.00    +0.000 C 
ATOM      3  O   UNL     1       1.634   4.644  19.141  0.00  0.00    +0.000 OA
ATOM      4  H   UNL     1       2.953   7.542  19.143  0.00  0.00    +0.000 HD
ENDROOT
BRANCH   2   5
ATOM      5  C   UNL     1       3.469   5.347  17.855  0.00  0.00    +0.000 A 
ATOM      6  C   UNL     1       3.772   4.073  17.366  0.00  0.00    +0.000 A 
ATOM      7  C   UNL     1       4.737   3.921  16.366  0.00  0.00    +0.000 A 
ATOM      8  C   UNL     1       5.405   5.037  15.833  0.00  0.00    +0.000 A 
ATOM      9  C   UNL     1       5.095   6.313  16.324  0.00  0.00    +0.000 A 
ATOM     10  C   UNL     1       4.125   6.467  17.324  0.00  0.00    +0.000 A 
BRANCH   8  11
ATOM     11  C   UNL     1       6.421   4.793  14.765  0.00  0.00    +0.000 C 
ATOM     12  O   UNL     1       6.290   3.864  13.970  0.00  0.00    +0.000 OA
ATOM     13  N   UNL     1       7.497   5.645  14.692  0.00  0.00    +0.000 N 
ATOM     14  H   UNL     1       7.606   6.519  15.190  0.00  0.00    +0.000 HD
BRANCH  13  15
ATOM     15  O   UNL     1       8.397   5.418  13.626  0.00  0.00    +0.000 OA
ATOM     16  H   UNL     1       9.249   5.725  14.006  0.00  0.00    +0.000 HD
ENDBRANCH  13  15
ENDBRANCH   8  11
ENDBRANCH   2   5
BRANCH   1  17
ATOM     17  C   UNL     1       1.404   7.051  20.539  0.00  0.00    +0.000 C 
BRANCH  17  18
ATOM     18  C   UNL     1       1.603   8.377  21.278  0.00  0.00    +0.000 C 
BRANCH  18  28
ATOM     19  C   UNL     1       1.498   9.507  18.172  0.00  0.00    +0.000 C 
ATOM     20  C   UNL     1       0.747   9.933  19.383  0.00  0.00    +0.000 A 
ATOM     21  N   UNL     1      -0.168  10.954  19.304  0.00  0.00    +0.000 N 
ATOM     22  C   UNL     1      -0.739  11.194  20.528  0.00  0.00    +0.000 A 
ATOM     23  C   UNL     1      -1.711  12.132  20.895  0.00  0.00    +0.000 A 
ATOM     24  C   UNL     1      -2.107  12.161  22.234  0.00  0.00    +0.000 A 
ATOM     25  C   UNL     1      -1.550  11.288  23.162  0.00  0.00    +0.000 A 
ATOM     26  C   UNL     1      -0.579  10.354  22.775  0.00  0.00    +0.000 A 
ATOM     27  C   UNL     1      -0.166  10.299  21.428  0.00  0.00    +0.000 A 
ATOM     28  C   UNL     1       0.771   9.487  20.699  0.00  0.00    +0.000 A 
ATOM     29  H   UNL     1      -0.395  11.467  18.465  0.00  0.00    +0.000 HD
ENDBRANCH  18  28
ENDBRANCH  17  18
ENDBRANCH   1  17
TORSDOF 6
ENDMDL
MODEL 5
REMARK VINA RESULT:      -8.6      3.148      5.491
REMARK  Name = 
REMARK  7 active torsions:
REMARK  status: ('A' for Active; 'I' for Inactive)
REMARK    1  A    between atoms: C_1  and  C_2
REMARK    2  A    between atoms: C_10  and  C_11
REMARK    3  A    between atoms: C_11  and  C_12
REMARK    4  A    between atoms: C_12  and  N_13
REMARK    5  A    between atoms: C_14  and  C_16
REMARK    6  A    between atoms: C_19  and  C_20
REMARK    7  A    between atoms: N_22  and  O_23
REMARK                            x       y       z     vdW  Elec       q    Type
REMARK                         _______ _______ _______ _____ _____    ______ ____
ROOT
ATOM      1  N   UNL     1       0.993   8.882  17.706  0.00  0.00    +0.000 N 
ATOM      2  C   UNL     1       0.535   9.995  18.383  0.00  0.00    +0.000 C 
ATOM      3  O   UNL     1       1.243  10.700  19.098  0.00  0.00    +0.000 OA
ATOM      4  H   UNL     1       0.422   8.478  16.969  0.00  0.00    +0.000 HD
ENDROOT
BRANCH   2   5
ATOM      5  C   UNL     1      -0.896  10.354  18.192  0.00  0.00    +0.000 A 
ATOM      6  C   UNL     1      -1.698   9.675  17.270  0.00  0.00    +0.000 A 
ATOM      7  C   UNL     1      -3.045  10.023  17.130  0.00  0.00    +0.000 A 
ATOM      8  C   UNL     1      -3.612  11.042  17.913  0.00  0.00    +0.000 A 
ATOM      9  C   UNL     1      -2.804  11.716  18.839  0.00  0.00    +0.000 A 
ATOM     10  C   UNL     1      -1.454  11.368  18.983  0.00  0.00    +0.000 A 
BRANCH   8  11
ATOM     11  C   UNL     1      -5.058  11.352  17.706  0.00  0.00    +0.000 C 
ATOM     12  O   UNL     1      -5.933  10.665  18.230  0.00  0.00    +0.000 OA
ATOM     13  N   UNL     1      -5.380  12.436  16.922  0.00  0.00    +0.000 N 
ATOM     14  H   UNL     1      -4.741  13.145  16.587  0.00  0.00    +0.000 HD
BRANCH  13  15
ATOM     15  O   UNL     1      -6.757  12.733  16.809  0.00  0.00    +0.000 OA
ATOM     16  H   UNL     1      -6.747  13.704  16.659  0.00  0.00    +0.000 HD
ENDBRANCH  13  15
ENDBRANCH   8  11
ENDBRANCH   2   5
BRANCH   1  17
ATOM     17  C   UNL     1       2.390   8.500  17.815  0.00  0.00    +0.000 C 
BRANCH  17  18
ATOM     18  C   UNL     1       2.667   7.442  18.886  0.00  0.00    +0.000 C 
BRANCH  18  28
ATOM     19  C   UNL     1       4.863   6.629  16.550  0.00  0.00    +0.000 C 
ATOM     20  C   UNL     1       3.907   5.785  17.315  0.00  0.00    +0.000 A 
ATOM     21  N   UNL     1       3.850   4.432  17.093  0.00  0.00    +0.000 N 
ATOM     22  C   UNL     1       2.901   3.844  17.891  0.00  0.00    +0.000 A 
ATOM     23  C   UNL     1       2.520   2.501  17.990  0.00  0.00    +0.000 A 
ATOM     24  C   UNL     1       1.504   2.184  18.894  0.00  0.00    +0.000 A 
ATOM     25  C   UNL     1       0.898   3.172  19.662  0.00  0.00    +0.000 A 
ATOM     26  C   UNL     1       1.295   4.512  19.551  0.00  0.00    +0.000 A 
ATOM     27  C   UNL     1       2.322   4.859  18.650  0.00  0.00    +0.000 A 
ATOM     28  C   UNL     1       2.970   6.093  18.294  0.00  0.00    +0.000 A 
ATOM     29  H   UNL     1       4.422   3.927  16.431  0.00  0.00    +0.000 HD
ENDBRANCH  18  28
ENDBRANCH  17  18
ENDBRANCH   1  17
TORSDOF 6
ENDMDL
MODEL 6
REMARK VINA RESULT:      -8.6      1.848      2.153
REMARK  Name = 
REMARK  7 active torsions:
REMARK  status: ('A' for Active; 'I' for Inactive)
REMARK    1  A    between atoms: C_1  and  C_2
REMARK    2  A    between atoms: C_10  and  C_11
REMARK    3  A    between atoms: C_11  and  C_12
REMARK    4  A    between atoms: C_12  and  N_13
REMARK    5  A    between atoms: C_14  and  C_16
REMARK    6  A    between atoms: C_19  and  C_20
REMARK    7  A    between atoms: N_22  and  O_23
REMARK                            x       y       z     vdW  Elec       q    Type
REMARK                         _______ _______ _______ _____ _____    ______ ____
ROOT
ATOM      1  N   UNL     1       2.947   5.080  17.826  0.00  0.00    +0.000 N 
ATOM      2  C   UNL     1       3.142   6.443  17.732  0.00  0.00    +0.000 C 
ATOM      3  O   UNL     1       3.814   6.978  16.853  0.00  0.00    +0.000 OA
ATOM      4  H   UNL     1       2.213   4.723  18.431  0.00  0.00    +0.000 HD
ENDROOT
BRANCH   2   5
ATOM      5  C   UNL     1       2.463   7.289  18.749  0.00  0.00    +0.000 A 
ATOM      6  C   UNL     1       2.015   8.576  18.442  0.00  0.00    +0.000 A 
ATOM      7  C   UNL     1       1.361   9.338  19.415  0.00  0.00    +0.000 A 
ATOM      8  C   UNL     1       1.135   8.822  20.703  0.00  0.00    +0.000 A 
ATOM      9  C   UNL     1       1.583   7.528  21.004  0.00  0.00    +0.000 A 
ATOM     10  C   UNL     1       2.236   6.763  20.029  0.00  0.00    +0.000 A 
BRANCH   8  11
ATOM     11  C   UNL     1       0.427   9.696  21.685  0.00  0.00    +0.000 C 
ATOM     12  O   UNL     1       0.652  10.904  21.732  0.00  0.00    +0.000 OA
ATOM     13  N   UNL     1      -0.490   9.110  22.525  0.00  0.00    +0.000 N 
ATOM     14  H   UNL     1      -0.856   8.170  22.454  0.00  0.00    +0.000 HD
BRANCH  13  15
ATOM     15  O   UNL     1      -1.186   9.985  23.391  0.00  0.00    +0.000 OA
ATOM     16  H   UNL     1      -0.476  10.604  23.671  0.00  0.00    +0.000 HD
ENDBRANCH  13  15
ENDBRANCH   8  11
ENDBRANCH   2   5
BRANCH   1  17
ATOM     17  C   UNL     1       3.547   4.198  16.839  0.00  0.00    +0.000 C 
BRANCH  17  18
ATOM     18  C   UNL     1       4.994   3.806  17.150  0.00  0.00    +0.000 C 
BRANCH  18  28
ATOM     19  C   UNL     1       7.192   6.164  17.888  0.00  0.00    +0.000 C 
ATOM     20  C   UNL     1       6.898   5.485  16.598  0.00  0.00    +0.000 A 
ATOM     21  N   UNL     1       7.602   5.816  15.467  0.00  0.00    +0.000 N 
ATOM     22  C   UNL     1       7.171   5.083  14.390  0.00  0.00    +0.000 A 
ATOM     23  C   UNL     1       7.611   5.099  13.061  0.00  0.00    +0.000 A 
ATOM     24  C   UNL     1       6.976   4.240  12.161  0.00  0.00    +0.000 A 
ATOM     25  C   UNL     1       5.945   3.405  12.578  0.00  0.00    +0.000 A 
ATOM     26  C   UNL     1       5.520   3.401  13.913  0.00  0.00    +0.000 A 
ATOM     27  C   UNL     1       6.147   4.255  14.844  0.00  0.00    +0.000 A 
ATOM     28  C   UNL     1       5.981   4.499  16.251  0.00  0.00    +0.000 A 
ATOM     29  H   UNL     1       8.337   6.507  15.421  0.00  0.00    +0.000 HD
ENDBRANCH  18  28
ENDBRANCH  17  18
ENDBRANCH   1  17
TORSDOF 6
ENDMDL
MODEL 7
REMARK VINA RESULT:      -8.6      2.616      4.570
REMARK  Name = 
REMARK  7 active torsions:
REMARK  status: ('A' for Active; 'I' for Inactive)
REMARK    1  A    between atoms: C_1  and  C_2
REMARK    2  A    between atoms: C_10  and  C_11
REMARK    3  A    between atoms: C_11  and  C_12
REMARK    4  A    between atoms: C_12  and  N_13
REMARK    5  A    between atoms: C_14  and  C_16
REMARK    6  A    between atoms: C_19  and  C_20
REMARK    7  A    between atoms: N_22  and  O_23
REMARK                            x       y       z     vdW  Elec       q    Type
REMARK                         _______ _______ _______ _____ _____    ______ ____
ROOT
ATOM      1  N   UNL     1       1.160   8.617  17.885  0.00  0.00    +0.000 N 
ATOM      2  C   UNL     1       0.911   9.936  18.204  0.00  0.00    +0.000 C 
ATOM      3  O   UNL     1       1.791  10.756  18.456  0.00  0.00    +0.000 OA
ATOM      4  H   UNL     1       0.419   8.055  17.476  0.00  0.00    +0.000 HD
ENDROOT
BRANCH   2   5
ATOM      5  C   UNL     1      -0.512  10.368  18.204  0.00  0.00    +0.000 A 
ATOM      6  C   UNL     1      -0.964  11.382  19.053  0.00  0.00    +0.000 A 
ATOM      7  C   UNL     1      -2.304  11.778  19.013  0.00  0.00    +0.000 A 
ATOM      8  C   UNL     1      -3.208  11.178  18.120  0.00  0.00    +0.000 A 
ATOM      9  C   UNL     1      -2.748  10.165  17.268  0.00  0.00    +0.000 A 
ATOM     10  C   UNL     1      -1.405   9.768  17.304  0.00  0.00    +0.000 A 
BRANCH   8  11
ATOM     11  C   UNL     1      -4.622  11.660  18.136  0.00  0.00    +0.000 C 
ATOM     12  O   UNL     1      -5.077  12.250  19.115  0.00  0.00    +0.000 OA
ATOM     13  N   UNL     1      -5.393  11.433  17.020  0.00  0.00    +0.000 N 
ATOM     14  H   UNL     1      -5.066  11.107  16.121  0.00  0.00    +0.000 HD
BRANCH  13  15
ATOM     15  O   UNL     1      -6.702  11.966  17.053  0.00  0.00    +0.000 OA
ATOM     16  H   UNL     1      -6.761  12.310  17.971  0.00  0.00    +0.000 HD
ENDBRANCH  13  15
ENDBRANCH   8  11
ENDBRANCH   2   5
BRANCH   1  17
ATOM     17  C   UNL     1       2.531   8.138  17.825  0.00  0.00    +0.000 C 
BRANCH  17  18
ATOM     18  C   UNL     1       2.813   6.935  18.729  0.00  0.00    +0.000 C 
BRANCH  18  28
ATOM     19  C   UNL     1       1.388   4.046  17.980  0.00  0.00    +0.000 C 
ATOM     20  C   UNL     1       2.745   4.566  17.664  0.00  0.00    +0.000 A 
ATOM     21  N   UNL     1       3.629   3.800  16.945  0.00  0.00    +0.000 N 
ATOM     22  C   UNL     1       4.820   4.458  16.773  0.00  0.00    +0.000 A 
ATOM     23  C   UNL     1       5.981   4.050  16.105  0.00  0.00    +0.000 A 
ATOM     24  C   UNL     1       7.063   4.932  16.095  0.00  0.00    +0.000 A 
ATOM     25  C   UNL     1       6.982   6.168  16.729  0.00  0.00    +0.000 A 
ATOM     26  C   UNL     1       5.810   6.560  17.390  0.00  0.00    +0.000 A 
ATOM     27  C   UNL     1       4.700   5.691  17.411  0.00  0.00    +0.000 A 
ATOM     28  C   UNL     1       3.377   5.767  17.967  0.00  0.00    +0.000 A 
ATOM     29  H   UNL     1       3.439   2.874  16.589  0.00  0.00    +0.000 HD
ENDBRANCH  18  28
ENDBRANCH  17  18
ENDBRANCH   1  17
TORSDOF 6
ENDMDL
MODEL 8
REMARK VINA RESULT:      -8.5      2.069      2.917
REMARK  Name = 
REMARK  7 active torsions:
REMARK  status: ('A' for Active; 'I' for Inactive)
REMARK    1  A    between atoms: C_1  and  C_2
REMARK    2  A    between atoms: C_10  and  C_11
REMARK    3  A    between atoms: C_11  and  C_12
REMARK    4  A    between atoms: C_12  and  N_13
REMARK    5  A    between atoms: C_14  and  C_16
REMARK    6  A    between atoms: C_19  and  C_20
REMARK    7  A    between atoms: N_22  and  O_23
REMARK                            x       y       z     vdW  Elec       q    Type
REMARK                         _______ _______ _______ _____ _____    ______ ____
ROOT
ATOM      1  N   UNL     1       1.492   4.808  18.248  0.00  0.00    +0.000 N 
ATOM      2  C   UNL     1       1.858   5.575  19.336  0.00  0.00    +0.000 C 
ATOM      3  O   UNL     1       2.214   5.106  20.414  0.00  0.00    +0.000 OA
ATOM      4  H   UNL     1       1.424   5.244  17.332  0.00  0.00    +0.000 HD
ENDROOT
BRANCH   2   5
ATOM      5  C   UNL     1       1.839   7.050  19.152  0.00  0.00    +0.000 A 
ATOM      6  C   UNL     1       2.241   7.638  17.950  0.00  0.00    +0.000 A 
ATOM      7  C   UNL     1       2.192   9.028  17.802  0.00  0.00    +0.000 A 
ATOM      8  C   UNL     1       1.730   9.848  18.845  0.00  0.00    +0.000 A 
ATOM      9  C   UNL     1       1.323   9.253  20.048  0.00  0.00    +0.000 A 
ATOM     10  C   UNL     1       1.370   7.860  20.197  0.00  0.00    +0.000 A 
BRANCH   8  11
ATOM     11  C   UNL     1       1.704  11.322  18.609  0.00  0.00    +0.000 C 
ATOM     12  O   UNL     1       1.045  12.067  19.333  0.00  0.00    +0.000 OA
ATOM     13  N   UNL     1       2.449  11.821  17.566  0.00  0.00    +0.000 N 
ATOM     14  H   UNL     1       3.139  11.317  17.026  0.00  0.00    +0.000 HD
BRANCH  13  15
ATOM     15  O   UNL     1       2.449  13.228  17.422  0.00  0.00    +0.000 OA
ATOM     16  H   UNL     1       3.042  13.355  16.649  0.00  0.00    +0.000 HD
ENDBRANCH  13  15
ENDBRANCH   8  11
ENDBRANCH   2   5
BRANCH   1  17
ATOM     17  C   UNL     1       1.529   3.359  18.345  0.00  0.00    +0.000 C 
BRANCH  17  18
ATOM     18  C   UNL     1       2.658   2.707  17.543  0.00  0.00    +0.000 C 
BRANCH  18  28
ATOM     19  C   UNL     1       4.325   2.395  20.383  0.00  0.00    +0.000 C 
ATOM     20  C   UNL     1       4.687   3.091  19.120  0.00  0.00    +0.000 A 
ATOM     21  N   UNL     1       5.892   3.739  19.009  0.00  0.00    +0.000 N 
ATOM     22  C   UNL     1       6.024   4.320  17.773  0.00  0.00    +0.000 A 
ATOM     23  C   UNL     1       7.083   5.066  17.242  0.00  0.00    +0.000 A 
ATOM     24  C   UNL     1       6.942   5.549  15.940  0.00  0.00    +0.000 A 
ATOM     25  C   UNL     1       5.788   5.296  15.206  0.00  0.00    +0.000 A 
ATOM     26  C   UNL     1       4.739   4.545  15.754  0.00  0.00    +0.000 A 
ATOM     27  C   UNL     1       4.858   4.040  17.065  0.00  0.00    +0.000 A 
ATOM     28  C   UNL     1       4.011   3.247  17.915  0.00  0.00    +0.000 A 
ATOM     29  H   UNL     1       6.592   3.791  19.735  0.00  0.00    +0.000 HD
ENDBRANCH  18  28
ENDBRANCH  17  18
ENDBRANCH   1  17
TORSDOF 6
ENDMDL
MODEL 9
REMARK VINA RESULT:      -8.5      3.961      9.497
REMARK  Name = 
REMARK  7 active torsions:
REMARK  status: ('A' for Active; 'I' for Inactive)
REMARK    1  A    between atoms: C_1  and  C_2
REMARK    2  A    between atoms: C_10  and  C_11
REMARK    3  A    between atoms: C_11  and  C_12
REMARK    4  A    between atoms: C_12  and  N_13
REMARK    5  A    between atoms: C_14  and  C_16
REMARK    6  A    between atoms: C_19  and  C_20
REMARK    7  A    between atoms: N_22  and  O_23
REMARK                            x       y       z     vdW  Elec       q    Type
REMARK                         _______ _______ _______ _____ _____    ______ ____
ROOT
ATOM      1  N   UNL     1       1.066   9.088  19.070  0.00  0.00    +0.000 N 
ATOM      2  C   UNL     1       2.021   8.465  18.291  0.00  0.00    +0.000 C 
ATOM      3  O   UNL     1       2.517   8.968  17.285  0.00  0.00    +0.000 OA
ATOM      4  H   UNL     1       0.862   8.721  19.995  0.00  0.00    +0.000 HD
ENDROOT
BRANCH   2   5
ATOM      5  C   UNL     1       2.478   7.122  18.737  0.00  0.00    +0.000 A 
ATOM      6  C   UNL     1       2.074   6.588  19.964  0.00  0.00    +0.000 A 
ATOM      7  C   UNL     1       2.504   5.314  20.345  0.00  0.00    +0.000 A 
ATOM      8  C   UNL     1       3.332   4.551  19.504  0.00  0.00    +0.000 A 
ATOM      9  C   UNL     1       3.731   5.090  18.272  0.00  0.00    +0.000 A 
ATOM     10  C   UNL     1       3.298   6.366  17.888  0.00  0.00    +0.000 A 
BRANCH   8  11
ATOM     11  C   UNL     1       3.747   3.197  19.981  0.00  0.00    +0.000 C 
ATOM     12  O   UNL     1       3.030   2.549  20.741  0.00  0.00    +0.000 OA
ATOM     13  N   UNL     1       4.946   2.695  19.533  0.00  0.00    +0.000 N 
ATOM     14  H   UNL     1       5.518   3.077  18.791  0.00  0.00    +0.000 HD
BRANCH  13  15
ATOM     15  O   UNL     1       5.266   1.384  19.955  0.00  0.00    +0.000 OA
ATOM     16  H   UNL     1       5.255   1.475  20.933  0.00  0.00    +0.000 HD
ENDBRANCH  13  15
ENDBRANCH   8  11
ENDBRANCH   2   5
BRANCH   1  17
ATOM     17  C   UNL     1       0.606  10.420  18.714  0.00  0.00    +0.000 C 
BRANCH  17  18
ATOM     18  C   UNL     1      -0.297  11.070  19.766  0.00  0.00    +0.000 C 
BRANCH  18  28
ATOM     19  C   UNL     1      -2.533  13.179  20.988  0.00  0.00    +0.000 C 
ATOM     20  C   UNL     1      -2.550  12.363  19.745  0.00  0.00    +0.000 A 
ATOM     21  N   UNL     1      -3.625  12.425  18.893  0.00  0.00    +0.000 N 
ATOM     22  C   UNL     1      -3.446  11.593  17.817  0.00  0.00    +0.000 A 
ATOM     23  C   UNL     1      -4.282  11.354  16.720  0.00  0.00    +0.000 A 
ATOM     24  C   UNL     1      -3.844  10.435  15.764  0.00  0.00    +0.000 A 
ATOM     25  C   UNL     1      -2.623   9.786  15.905  0.00  0.00    +0.000 A 
ATOM     26  C   UNL     1      -1.798  10.040  17.009  0.00  0.00    +0.000 A 
ATOM     27  C   UNL     1      -2.213  10.968  17.987  0.00  0.00    +0.000 A 
ATOM     28  C   UNL     1      -1.636  11.466  19.206  0.00  0.00    +0.000 A 
ATOM     29  H   UNL     1      -4.444  13.000  19.032  0.00  0.00    +0.000 HD
ENDBRANCH  18  28
ENDBRANCH  17  18
ENDBRANCH   1  17
TORSDOF 6
ENDMDL
