MODEL 1
REMARK VINA RESULT:      -9.6      0.000      0.000
REMARK  Name = 
REMARK  4 active torsions:
REMARK  status: ('A' for Active; 'I' for Inactive)
REMARK    1  A    between atoms: C_1  and  C_2
REMARK    2  A    between atoms: C_5  and  N_6
REMARK    3  A    between atoms: N_9  and  C_10
REMARK    4  A    between atoms: C_13  and  C_14
REMARK                            x       y       z     vdW  Elec       q    Type
REMARK                         _______ _______ _______ _____ _____    ______ ____
ROOT
ATOM      1  N   UNL     1       2.428   6.930  18.229  0.00  0.00    +0.000 N 
ATOM      2  C   UNL     1       2.045   7.322  19.501  0.00  0.00    +0.000 C 
ATOM      3  O   UNL     1       2.008   6.590  20.484  0.00  0.00    +0.000 OA
ATOM      4  N   UNL     1       1.637   8.643  19.549  0.00  0.00    +0.000 N 
ATOM      5  H   UNL     1       1.886   7.349  17.484  0.00  0.00    +0.000 HD
ATOM      6  H   UNL     1       2.096   9.262  18.895  0.00  0.00    +0.000 HD
ENDROOT
BRANCH   1  11
ATOM      7  C   UNL     1       7.404   7.077  17.694  0.00  0.00    +0.000 C 
ATOM      8  C   UNL     1       6.473   5.895  17.942  0.00  0.00    +0.000 C 
ATOM      9  O   UNL     1       5.118   6.344  17.834  0.00  0.00    +0.000 OA
ATOM     10  C   UNL     1       4.212   5.307  17.771  0.00  0.00    +0.000 A 
ATOM     11  C   UNL     1       2.853   5.596  17.977  0.00  0.00    +0.000 A 
ATOM     12  C   UNL     1       1.917   4.553  17.909  0.00  0.00    +0.000 A 
ATOM     13  C   UNL     1       2.314   3.251  17.590  0.00  0.00    +0.000 A 
ATOM     14  C   UNL     1       3.647   2.983  17.300  0.00  0.00    +0.000 A 
ATOM     15  C   UNL     1       4.587   4.009  17.381  0.00  0.00    +0.000 A 
ATOM     16  N   UNL     1       5.898   3.747  16.972  0.00  0.00    +0.000 N 
ATOM     17  C   UNL     1       6.869   4.708  17.052  0.00  0.00    +0.000 C 
ATOM     18  O   UNL     1       7.974   4.545  16.538  0.00  0.00    +0.000 OA
ATOM     19  H   UNL     1       6.133   2.889  16.490  0.00  0.00    +0.000 HD
ENDBRANCH   1  11
BRANCH   4  20
ATOM     20  C   UNL     1       1.185   9.192  20.818  0.00  0.00    +0.000 C 
ATOM     21  C   UNL     1       0.125   8.355  21.526  0.00  0.00    +0.000 C 
ATOM     22  C   UNL     1      -0.458   9.304  22.580  0.00  0.00    +0.000 C 
ATOM     23  C   UNL     1      -0.152  10.735  22.085  0.00  0.00    +0.000 C 
ATOM     24  C   UNL     1       0.493  10.551  20.700  0.00  0.00    +0.000 C 
BRANCH  23  25
ATOM     25  C   UNL     1      -1.346  11.665  22.115  0.00  0.00    +0.000 A 
ATOM     26  C   UNL     1      -2.141  11.749  23.269  0.00  0.00    +0.000 A 
ATOM     27  C   UNL     1      -3.264  12.580  23.309  0.00  0.00    +0.000 A 
ATOM     28  C   UNL     1      -3.610  13.340  22.195  0.00  0.00    +0.000 A 
ATOM     29  C   UNL     1      -2.830  13.272  21.043  0.00  0.00    +0.000 A 
ATOM     30  C   UNL     1      -1.706  12.441  21.003  0.00  0.00    +0.000 A 
ENDBRANCH  23  25
ENDBRANCH   4  20
TORSDOF 3
ENDMDL
MODEL 2
REMARK VINA RESULT:      -9.4      2.643      3.920
REMARK  Name = 
REMARK  4 active torsions:
REMARK  status: ('A' for Active; 'I' for Inactive)
REMARK    1  A    between atoms: C_1  and  C_2
REMARK    2  A    between atoms: C_5  and  N_6
REMARK    3  A    between atoms: N_9  and  C_10
REMARK    4  A    between atoms: C_13  and  C_14
REMARK                            x       y       z     vdW  Elec       q    Type
REMARK                         _______ _______ _______ _____ _____    ______ ____
ROOT
ATOM      1  N   UNL     1       2.638   7.249  18.809  0.00  0.00    +0.000 N 
ATOM      2  C   UNL     1       2.073   8.426  18.345  0.00  0.00    +0.000 C 
ATOM      3  O   UNL     1       2.260   8.907  17.233  0.00  0.00    +0.000 OA
ATOM      4  N   UNL     1       1.305   9.059  19.304  0.00  0.00    +0.000 N 
ATOM      5  H   UNL     1       2.913   7.276  19.783  0.00  0.00    +0.000 HD
ATOM      6  H   UNL     1       0.842   8.448  19.963  0.00  0.00    +0.000 HD
ENDROOT
BRANCH   1  11
ATOM      7  C   UNL     1       1.435   2.454  19.599  0.00  0.00    +0.000 C 
ATOM      8  C   UNL     1       2.232   3.097  18.471  0.00  0.00    +0.000 C 
ATOM      9  O   UNL     1       2.460   4.474  18.793  0.00  0.00    +0.000 OA
ATOM     10  C   UNL     1       3.396   5.069  17.974  0.00  0.00    +0.000 A 
ATOM     11  C   UNL     1       3.486   6.471  17.973  0.00  0.00    +0.000 A 
ATOM     12  C   UNL     1       4.439   7.092  17.152  0.00  0.00    +0.000 A 
ATOM     13  C   UNL     1       5.327   6.335  16.381  0.00  0.00    +0.000 A 
ATOM     14  C   UNL     1       5.295   4.946  16.450  0.00  0.00    +0.000 A 
ATOM     15  C   UNL     1       4.341   4.320  17.251  0.00  0.00    +0.000 A 
ATOM     16  N   UNL     1       4.403   2.930  17.398  0.00  0.00    +0.000 N 
ATOM     17  C   UNL     1       3.479   2.258  18.151  0.00  0.00    +0.000 C 
ATOM     18  O   UNL     1       3.622   1.069  18.428  0.00  0.00    +0.000 OA
ATOM     19  H   UNL     1       5.198   2.405  17.061  0.00  0.00    +0.000 HD
ENDBRANCH   1  11
BRANCH   4  20
ATOM     20  C   UNL     1       0.662  10.321  18.967  0.00  0.00    +0.000 C 
ATOM     21  C   UNL     1       0.291  11.180  20.171  0.00  0.00    +0.000 C 
ATOM     22  C   UNL     1      -0.694  12.211  19.606  0.00  0.00    +0.000 C 
ATOM     23  C   UNL     1      -1.273  11.588  18.317  0.00  0.00    +0.000 C 
ATOM     24  C   UNL     1      -0.684  10.167  18.257  0.00  0.00    +0.000 C 
BRANCH  23  25
ATOM     25  C   UNL     1      -2.782  11.657  18.223  0.00  0.00    +0.000 A 
ATOM     26  C   UNL     1      -3.429  11.285  17.034  0.00  0.00    +0.000 A 
ATOM     27  C   UNL     1      -4.819  11.368  16.916  0.00  0.00    +0.000 A 
ATOM     28  C   UNL     1      -5.585  11.825  17.986  0.00  0.00    +0.000 A 
ATOM     29  C   UNL     1      -4.959  12.195  19.174  0.00  0.00    +0.000 A 
ATOM     30  C   UNL     1      -3.568  12.112  19.293  0.00  0.00    +0.000 A 
ENDBRANCH  23  25
ENDBRANCH   4  20
TORSDOF 3
ENDMDL
MODEL 3
REMARK VINA RESULT:      -9.4      2.784      3.899
REMARK  Name = 
REMARK  4 active torsions:
REMARK  status: ('A' for Active; 'I' for Inactive)
REMARK    1  A    between atoms: C_1  and  C_2
REMARK    2  A    between atoms: C_5  and  N_6
REMARK    3  A    between atoms: N_9  and  C_10
REMARK    4  A    between atoms: C_13  and  C_14
REMARK                            x       y       z     vdW  Elec       q    Type
REMARK                         _______ _______ _______ _____ _____    ______ ____
ROOT
ATOM      1  N   UNL     1       2.560   7.367  19.048  0.00  0.00    +0.000 N 
ATOM      2  C   UNL     1       1.998   8.450  18.394  0.00  0.00    +0.000 C 
ATOM      3  O   UNL     1       2.267   8.801  17.250  0.00  0.00    +0.000 OA
ATOM      4  N   UNL     1       1.122   9.159  19.197  0.00  0.00    +0.000 N 
ATOM      5  H   UNL     1       2.744   7.524  20.031  0.00  0.00    +0.000 HD
ATOM      6  H   UNL     1       0.624   8.611  19.884  0.00  0.00    +0.000 HD
ENDROOT
BRANCH   1  11
ATOM      7  C   UNL     1       2.531   2.977  21.457  0.00  0.00    +0.000 C 
ATOM      8  C   UNL     1       3.088   3.346  20.087  0.00  0.00    +0.000 C 
ATOM      9  O   UNL     1       3.017   4.768  19.928  0.00  0.00    +0.000 OA
ATOM     10  C   UNL     1       3.739   5.223  18.845  0.00  0.00    +0.000 A 
ATOM     11  C   UNL     1       3.508   6.533  18.393  0.00  0.00    +0.000 A 
ATOM     12  C   UNL     1       4.240   7.015  17.298  0.00  0.00    +0.000 A 
ATOM     13  C   UNL     1       5.226   6.230  16.691  0.00  0.00    +0.000 A 
ATOM     14  C   UNL     1       5.516   4.967  17.195  0.00  0.00    +0.000 A 
ATOM     15  C   UNL     1       4.782   4.473  18.273  0.00  0.00    +0.000 A 
ATOM     16  N   UNL     1       5.167   3.254  18.839  0.00  0.00    +0.000 N 
ATOM     17  C   UNL     1       4.470   2.707  19.882  0.00  0.00    +0.000 C 
ATOM     18  O   UNL     1       4.897   1.732  20.496  0.00  0.00    +0.000 OA
ATOM     19  H   UNL     1       6.038   2.810  18.580  0.00  0.00    +0.000 HD
ENDBRANCH   1  11
BRANCH   4  20
ATOM     20  C   UNL     1       0.469  10.339  18.650  0.00  0.00    +0.000 C 
ATOM     21  C   UNL     1       0.362  11.507  19.624  0.00  0.00    +0.000 C 
ATOM     22  C   UNL     1      -0.679  12.433  18.984  0.00  0.00    +0.000 C 
ATOM     23  C   UNL     1      -1.513  11.547  18.032  0.00  0.00    +0.000 C 
ATOM     24  C   UNL     1      -0.992  10.117  18.255  0.00  0.00    +0.000 C 
BRANCH  23  25
ATOM     25  C   UNL     1      -3.010  11.713  18.189  0.00  0.00    +0.000 A 
ATOM     26  C   UNL     1      -3.864  11.428  17.112  0.00  0.00    +0.000 A 
ATOM     27  C   UNL     1      -5.246  11.601  17.226  0.00  0.00    +0.000 A 
ATOM     28  C   UNL     1      -5.796  12.063  18.419  0.00  0.00    +0.000 A 
ATOM     29  C   UNL     1      -4.963  12.348  19.499  0.00  0.00    +0.000 A 
ATOM     30  C   UNL     1      -3.580  12.174  19.385  0.00  0.00    +0.000 A 
ENDBRANCH  23  25
ENDBRANCH   4  20
TORSDOF 3
ENDMDL
MODEL 4
REMARK VINA RESULT:      -9.3      2.636      3.302
REMARK  Name = 
REMARK  4 active torsions:
REMARK  status: ('A' for Active; 'I' for Inactive)
REMARK    1  A    between atoms: C_1  and  C_2
REMARK    2  A    between atoms: C_5  and  N_6
REMARK    3  A    between atoms: N_9  and  C_10
REMARK    4  A    between atoms: C_13  and  C_14
REMARK                            x       y       z     vdW  Elec       q    Type
REMARK                         _______ _______ _______ _____ _____    ______ ____
ROOT
ATOM      1  N   UNL     1       2.664   7.352  17.547  0.00  0.00    +0.000 N 
ATOM      2  C   UNL     1       2.145   8.220  18.494  0.00  0.00    +0.000 C 
ATOM      3  O   UNL     1       1.930   7.937  19.668  0.00  0.00    +0.000 OA
ATOM      4  N   UNL     1       1.825   9.456  17.963  0.00  0.00    +0.000 N 
ATOM      5  H   UNL     1       2.253   7.448  16.627  0.00  0.00    +0.000 HD
ATOM      6  H   UNL     1       2.407   9.761  17.194  0.00  0.00    +0.000 HD
ENDROOT
BRANCH   1  11
ATOM      7  C   UNL     1       7.665   7.147  17.454  0.00  0.00    +0.000 C 
ATOM      8  C   UNL     1       6.651   6.194  18.075  0.00  0.00    +0.000 C 
ATOM      9  O   UNL     1       5.336   6.591  17.671  0.00  0.00    +0.000 OA
ATOM     10  C   UNL     1       4.377   5.642  17.955  0.00  0.00    +0.000 A 
ATOM     11  C   UNL     1       3.026   6.022  17.900  0.00  0.00    +0.000 A 
ATOM     12  C   UNL     1       2.038   5.067  18.178  0.00  0.00    +0.000 A 
ATOM     13  C   UNL     1       2.379   3.739  18.455  0.00  0.00    +0.000 A 
ATOM     14  C   UNL     1       3.712   3.344  18.422  0.00  0.00    +0.000 A 
ATOM     15  C   UNL     1       4.702   4.290  18.163  0.00  0.00    +0.000 A 
ATOM     16  N   UNL     1       6.022   3.851  18.017  0.00  0.00    +0.000 N 
ATOM     17  C   UNL     1       7.040   4.736  17.786  0.00  0.00    +0.000 C 
ATOM     18  O   UNL     1       8.167   4.350  17.487  0.00  0.00    +0.000 OA
ATOM     19  H   UNL     1       6.240   2.865  17.951  0.00  0.00    +0.000 HD
ENDBRANCH   1  11
BRANCH   4  20
ATOM     20  C   UNL     1       1.250  10.468  18.836  0.00  0.00    +0.000 C 
ATOM     21  C   UNL     1      -0.228  10.748  18.589  0.00  0.00    +0.000 C 
ATOM     22  C   UNL     1      -0.484  12.074  19.313  0.00  0.00    +0.000 C 
ATOM     23  C   UNL     1       0.892  12.765  19.442  0.00  0.00    +0.000 C 
ATOM     24  C   UNL     1       1.870  11.857  18.676  0.00  0.00    +0.000 C 
BRANCH  23  25
ATOM     25  C   UNL     1       0.896  14.215  19.010  0.00  0.00    +0.000 A 
ATOM     26  C   UNL     1       2.108  14.848  18.686  0.00  0.00    +0.000 A 
ATOM     27  C   UNL     1       2.138  16.194  18.312  0.00  0.00    +0.000 A 
ATOM     28  C   UNL     1       0.957  16.930  18.257  0.00  0.00    +0.000 A 
ATOM     29  C   UNL     1      -0.254  16.317  18.572  0.00  0.00    +0.000 A 
ATOM     30  C   UNL     1      -0.284  14.970  18.946  0.00  0.00    +0.000 A 
ENDBRANCH  23  25
ENDBRANCH   4  20
TORSDOF 3
ENDMDL
MODEL 5
REMARK VINA RESULT:      -9.3      2.111      2.701
REMARK  Name = 
REMARK  4 active torsions:
REMARK  status: ('A' for Active; 'I' for Inactive)
REMARK    1  A    between atoms: C_1  and  C_2
REMARK    2  A    between atoms: C_5  and  N_6
REMARK    3  A    between atoms: N_9  and  C_10
REMARK    4  A    between atoms: C_13  and  C_14
REMARK                            x       y       z     vdW  Elec       q    Type
REMARK                         _______ _______ _______ _____ _____    ______ ____
ROOT
ATOM      1  N   UNL     1       2.816   5.790  20.140  0.00  0.00    +0.000 N 
ATOM      2  C   UNL     1       2.224   6.983  19.757  0.00  0.00    +0.000 C 
ATOM      3  O   UNL     1       1.928   7.286  18.606  0.00  0.00    +0.000 OA
ATOM      4  N   UNL     1       2.048   7.852  20.818  0.00  0.00    +0.000 N 
ATOM      5  H   UNL     1       3.508   5.886  20.872  0.00  0.00    +0.000 HD
ATOM      6  H   UNL     1       1.879   7.415  21.714  0.00  0.00    +0.000 HD
ENDROOT
BRANCH   1  11
ATOM      7  C   UNL     1       7.684   6.190  19.039  0.00  0.00    +0.000 C 
ATOM      8  C   UNL     1       6.704   5.052  18.778  0.00  0.00    +0.000 C 
ATOM      9  O   UNL     1       5.384   5.493  19.114  0.00  0.00    +0.000 OA
ATOM     10  C   UNL     1       4.401   4.639  18.660  0.00  0.00    +0.000 A 
ATOM     11  C   UNL     1       3.104   4.780  19.180  0.00  0.00    +0.000 A 
ATOM     12  C   UNL     1       2.090   3.925  18.723  0.00  0.00    +0.000 A 
ATOM     13  C   UNL     1       2.344   2.977  17.727  0.00  0.00    +0.000 A 
ATOM     14  C   UNL     1       3.607   2.897  17.151  0.00  0.00    +0.000 A 
ATOM     15  C   UNL     1       4.625   3.732  17.610  0.00  0.00    +0.000 A 
ATOM     16  N   UNL     1       5.852   3.719  16.938  0.00  0.00    +0.000 N 
ATOM     17  C   UNL     1       6.896   4.498  17.358  0.00  0.00    +0.000 C 
ATOM     18  O   UNL     1       7.912   4.624  16.679  0.00  0.00    +0.000 OA
ATOM     19  H   UNL     1       5.959   3.234  16.057  0.00  0.00    +0.000 HD
ENDBRANCH   1  11
BRANCH   4  20
ATOM     20  C   UNL     1       1.454   9.156  20.565  0.00  0.00    +0.000 C 
ATOM     21  C   UNL     1       0.404   9.579  21.587  0.00  0.00    +0.000 C 
ATOM     22  C   UNL     1      -0.332  10.739  20.907  0.00  0.00    +0.000 C 
ATOM     23  C   UNL     1      -0.093  10.570  19.390  0.00  0.00    +0.000 C 
ATOM     24  C   UNL     1       0.676   9.244  19.251  0.00  0.00    +0.000 C 
BRANCH  23  25
ATOM     25  C   UNL     1      -1.350  10.670  18.553  0.00  0.00    +0.000 A 
ATOM     26  C   UNL     1      -1.469   9.918  17.373  0.00  0.00    +0.000 A 
ATOM     27  C   UNL     1      -2.609  10.015  16.571  0.00  0.00    +0.000 A 
ATOM     28  C   UNL     1      -3.648  10.868  16.935  0.00  0.00    +0.000 A 
ATOM     29  C   UNL     1      -3.548  11.619  18.104  0.00  0.00    +0.000 A 
ATOM     30  C   UNL     1      -2.408  11.520  18.908  0.00  0.00    +0.000 A 
ENDBRANCH  23  25
ENDBRANCH   4  20
TORSDOF 3
ENDMDL
MODEL 6
REMARK VINA RESULT:      -9.2      2.414      3.623
REMARK  Name = 
REMARK  4 active torsions:
REMARK  status: ('A' for Active; 'I' for Inactive)
REMARK    1  A    between atoms: C_1  and  C_2
REMARK    2  A    between atoms: C_5  and  N_6
REMARK    3  A    between atoms: N_9  and  C_10
REMARK    4  A    between atoms: C_13  and  C_14
REMARK                            x       y       z     vdW  Elec       q    Type
REMARK                         _______ _______ _______ _____ _____    ______ ____
ROOT
ATOM      1  N   UNL     1       2.657   7.316  18.799  0.00  0.00    +0.000 N 
ATOM      2  C   UNL     1       2.083   8.474  18.300  0.00  0.00    +0.000 C 
ATOM      3  O   UNL     1       2.249   8.913  17.167  0.00  0.00    +0.000 OA
ATOM      4  N   UNL     1       1.330   9.143  19.247  0.00  0.00    +0.000 N 
ATOM      5  H   UNL     1       2.949   7.380  19.766  0.00  0.00    +0.000 HD
ATOM      6  H   UNL     1       0.879   8.557  19.937  0.00  0.00    +0.000 HD
ENDROOT
BRANCH   1  11
ATOM      7  C   UNL     1       1.340   2.561  19.648  0.00  0.00    +0.000 C 
ATOM      8  C   UNL     1       2.158   3.170  18.516  0.00  0.00    +0.000 C 
ATOM      9  O   UNL     1       2.415   4.545  18.820  0.00  0.00    +0.000 OA
ATOM     10  C   UNL     1       3.369   5.107  17.999  0.00  0.00    +0.000 A 
ATOM     11  C   UNL     1       3.491   6.507  17.978  0.00  0.00    +0.000 A 
ATOM     12  C   UNL     1       4.462   7.094  17.154  0.00  0.00    +0.000 A 
ATOM     13  C   UNL     1       5.337   6.306  16.399  0.00  0.00    +0.000 A 
ATOM     14  C   UNL     1       5.273   4.920  16.487  0.00  0.00    +0.000 A 
ATOM     15  C   UNL     1       4.301   4.327  17.291  0.00  0.00    +0.000 A 
ATOM     16  N   UNL     1       4.329   2.939  17.458  0.00  0.00    +0.000 N 
ATOM     17  C   UNL     1       3.386   2.298  18.215  0.00  0.00    +0.000 C 
ATOM     18  O   UNL     1       3.501   1.110  18.509  0.00  0.00    +0.000 OA
ATOM     19  H   UNL     1       5.115   2.390  17.133  0.00  0.00    +0.000 HD
ENDBRANCH   1  11
BRANCH   4  20
ATOM     20  C   UNL     1       0.680  10.391  18.874  0.00  0.00    +0.000 C 
ATOM     21  C   UNL     1       0.714  11.466  19.954  0.00  0.00    +0.000 C 
ATOM     22  C   UNL     1      -0.341  12.483  19.502  0.00  0.00    +0.000 C 
ATOM     23  C   UNL     1      -1.296  11.720  18.558  0.00  0.00    +0.000 C 
ATOM     24  C   UNL     1      -0.819  10.257  18.601  0.00  0.00    +0.000 C 
BRANCH  23  25
ATOM     25  C   UNL     1      -2.763  11.922  18.871  0.00  0.00    +0.000 A 
ATOM     26  C   UNL     1      -3.144  12.565  20.060  0.00  0.00    +0.000 A 
ATOM     27  C   UNL     1      -4.493  12.738  20.383  0.00  0.00    +0.000 A 
ATOM     28  C   UNL     1      -5.482  12.269  19.521  0.00  0.00    +0.000 A 
ATOM     29  C   UNL     1      -5.121  11.632  18.336  0.00  0.00    +0.000 A 
ATOM     30  C   UNL     1      -3.772  11.460  18.013  0.00  0.00    +0.000 A 
ENDBRANCH  23  25
ENDBRANCH   4  20
TORSDOF 3
ENDMDL
MODEL 7
REMARK VINA RESULT:      -9.2      6.562      8.849
REMARK  Name = 
REMARK  4 active torsions:
REMARK  status: ('A' for Active; 'I' for Inactive)
REMARK    1  A    between atoms: C_1  and  C_2
REMARK    2  A    between atoms: C_5  and  N_6
REMARK    3  A    between atoms: N_9  and  C_10
REMARK    4  A    between atoms: C_13  and  C_14
REMARK                            x       y       z     vdW  Elec       q    Type
REMARK                         _______ _______ _______ _____ _____    ______ ____
ROOT
ATOM      1  N   UNL     1       6.619   7.649  17.134  0.00  0.00    +0.000 N 
ATOM      2  C   UNL     1       7.737   7.979  17.882  0.00  0.00    +0.000 C 
ATOM      3  O   UNL     1       8.347   7.210  18.617  0.00  0.00    +0.000 OA
ATOM      4  N   UNL     1       8.076   9.315  17.768  0.00  0.00    +0.000 N 
ATOM      5  H   UNL     1       5.917   8.377  17.093  0.00  0.00    +0.000 HD
ATOM      6  H   UNL     1       7.863   9.742  16.877  0.00  0.00    +0.000 HD
ENDROOT
BRANCH   1  11
ATOM      7  C   UNL     1       7.928   5.544  12.785  0.00  0.00    +0.000 C 
ATOM      8  C   UNL     1       7.428   4.908  14.076  0.00  0.00    +0.000 C 
ATOM      9  O   UNL     1       7.012   5.946  14.971  0.00  0.00    +0.000 OA
ATOM     10  C   UNL     1       6.296   5.471  16.049  0.00  0.00    +0.000 A 
ATOM     11  C   UNL     1       6.100   6.324  17.148  0.00  0.00    +0.000 A 
ATOM     12  C   UNL     1       5.367   5.859  18.249  0.00  0.00    +0.000 A 
ATOM     13  C   UNL     1       4.791   4.585  18.244  0.00  0.00    +0.000 A 
ATOM     14  C   UNL     1       4.912   3.774  17.120  0.00  0.00    +0.000 A 
ATOM     15  C   UNL     1       5.651   4.221  16.027  0.00  0.00    +0.000 A 
ATOM     16  N   UNL     1       5.661   3.443  14.865  0.00  0.00    +0.000 N 
ATOM     17  C   UNL     1       6.389   3.819  13.769  0.00  0.00    +0.000 C 
ATOM     18  O   UNL     1       6.269   3.239  12.692  0.00  0.00    +0.000 OA
ATOM     19  H   UNL     1       5.034   2.656  14.759  0.00  0.00    +0.000 HD
ENDBRANCH   1  11
BRANCH   4  20
ATOM     20  C   UNL     1       9.221   9.814  18.515  0.00  0.00    +0.000 C 
ATOM     21  C   UNL     1       8.868  10.472  19.844  0.00  0.00    +0.000 C 
ATOM     22  C   UNL     1      10.134  11.246  20.227  0.00  0.00    +0.000 C 
ATOM     23  C   UNL     1      10.910  11.476  18.911  0.00  0.00    +0.000 C 
ATOM     24  C   UNL     1       9.994  10.926  17.803  0.00  0.00    +0.000 C 
BRANCH  23  25
ATOM     25  C   UNL     1      11.370  12.904  18.708  0.00  0.00    +0.000 A 
ATOM     26  C   UNL     1      11.635  13.720  19.820  0.00  0.00    +0.000 A 
ATOM     27  C   UNL     1      12.034  15.049  19.657  0.00  0.00    +0.000 A 
ATOM     28  C   UNL     1      12.173  15.585  18.378  0.00  0.00    +0.000 A 
ATOM     29  C   UNL     1      11.916  14.788  17.265  0.00  0.00    +0.000 A 
ATOM     30  C   UNL     1      11.518  13.458  17.428  0.00  0.00    +0.000 A 
ENDBRANCH  23  25
ENDBRANCH   4  20
TORSDOF 3
ENDMDL
MODEL 8
REMARK VINA RESULT:      -9.0      2.263      2.918
REMARK  Name = 
REMARK  4 active torsions:
REMARK  status: ('A' for Active; 'I' for Inactive)
REMARK    1  A    between atoms: C_1  and  C_2
REMARK    2  A    between atoms: C_5  and  N_6
REMARK    3  A    between atoms: N_9  and  C_10
REMARK    4  A    between atoms: C_13  and  C_14
REMARK                            x       y       z     vdW  Elec       q    Type
REMARK                         _______ _______ _______ _____ _____    ______ ____
ROOT
ATOM      1  N   UNL     1       2.646   6.462  19.377  0.00  0.00    +0.000 N 
ATOM      2  C   UNL     1       2.106   7.542  18.699  0.00  0.00    +0.000 C 
ATOM      3  O   UNL     1       1.892   7.583  17.492  0.00  0.00    +0.000 OA
ATOM      4  N   UNL     1       1.880   8.628  19.526  0.00  0.00    +0.000 N 
ATOM      5  H   UNL     1       3.290   6.714  20.115  0.00  0.00    +0.000 HD
ATOM      6  H   UNL     1       1.644   8.402  20.482  0.00  0.00    +0.000 HD
ENDROOT
BRANCH   1  11
ATOM      7  C   UNL     1       7.570   6.609  18.483  0.00  0.00    +0.000 C 
ATOM      8  C   UNL     1       6.593   5.440  18.432  0.00  0.00    +0.000 C 
ATOM      9  O   UNL     1       5.262   5.943  18.587  0.00  0.00    +0.000 OA
ATOM     10  C   UNL     1       4.295   5.008  18.285  0.00  0.00    +0.000 A 
ATOM     11  C   UNL     1       2.973   5.261  18.688  0.00  0.00    +0.000 A 
ATOM     12  C   UNL     1       1.976   4.323  18.381  0.00  0.00    +0.000 A 
ATOM     13  C   UNL     1       2.273   3.174  17.641  0.00  0.00    +0.000 A 
ATOM     14  C   UNL     1       3.564   2.968  17.168  0.00  0.00    +0.000 A 
ATOM     15  C   UNL     1       4.565   3.886  17.481  0.00  0.00    +0.000 A 
ATOM     16  N   UNL     1       5.826   3.723  16.898  0.00  0.00    +0.000 N 
ATOM     17  C   UNL     1       6.854   4.579  17.187  0.00  0.00    +0.000 C 
ATOM     18  O   UNL     1       7.907   4.550  16.554  0.00  0.00    +0.000 OA
ATOM     19  H   UNL     1       5.975   3.052  16.156  0.00  0.00    +0.000 HD
ENDBRANCH   1  11
BRANCH   4  20
ATOM     20  C   UNL     1       1.332   9.846  18.949  0.00  0.00    +0.000 C 
ATOM     21  C   UNL     1       0.973  10.920  19.970  0.00  0.00    +0.000 C 
ATOM     22  C   UNL     1       0.077  11.891  19.193  0.00  0.00    +0.000 C 
ATOM     23  C   UNL     1      -0.493  11.088  18.002  0.00  0.00    +0.000 C 
ATOM     24  C   UNL     1       0.006   9.648  18.213  0.00  0.00    +0.000 C 
BRANCH  23  25
ATOM     25  C   UNL     1      -1.990  11.226  17.828  0.00  0.00    +0.000 A 
ATOM     26  C   UNL     1      -2.589  10.875  16.607  0.00  0.00    +0.000 A 
ATOM     27  C   UNL     1      -3.966  11.020  16.414  0.00  0.00    +0.000 A 
ATOM     28  C   UNL     1      -4.766  11.520  17.439  0.00  0.00    +0.000 A 
ATOM     29  C   UNL     1      -4.188  11.870  18.658  0.00  0.00    +0.000 A 
ATOM     30  C   UNL     1      -2.811  11.724  18.851  0.00  0.00    +0.000 A 
ENDBRANCH  23  25
ENDBRANCH   4  20
TORSDOF 3
ENDMDL
MODEL 9
REMARK VINA RESULT:      -8.9      1.852      2.299
REMARK  Name = 
REMARK  4 active torsions:
REMARK  status: ('A' for Active; 'I' for Inactive)
REMARK    1  A    between atoms: C_1  and  C_2
REMARK    2  A    between atoms: C_5  and  N_6
REMARK    3  A    between atoms: N_9  and  C_10
REMARK    4  A    between atoms: C_13  and  C_14
REMARK                            x       y       z     vdW  Elec       q    Type
REMARK                         _______ _______ _______ _____ _____    ______ ____
ROOT
ATOM      1  N   UNL     1       2.721   6.783  19.322  0.00  0.00    +0.000 N 
ATOM      2  C   UNL     1       2.063   7.774  18.611  0.00  0.00    +0.000 C 
ATOM      3  O   UNL     1       1.708   7.685  17.441  0.00  0.00    +0.000 OA
ATOM      4  N   UNL     1       1.891   8.931  19.349  0.00  0.00    +0.000 N 
ATOM      5  H   UNL     1       3.436   7.128  19.949  0.00  0.00    +0.000 HD
ATOM      6  H   UNL     1       1.777   8.797  20.345  0.00  0.00    +0.000 HD
ENDROOT
BRANCH   1  11
ATOM      7  C   UNL     1       7.586   6.851  18.142  0.00  0.00    +0.000 C 
ATOM      8  C   UNL     1       6.613   5.683  18.245  0.00  0.00    +0.000 C 
ATOM      9  O   UNL     1       5.290   6.198  18.432  0.00  0.00    +0.000 OA
ATOM     10  C   UNL     1       4.312   5.241  18.265  0.00  0.00    +0.000 A 
ATOM     11  C   UNL     1       3.014   5.528  18.718  0.00  0.00    +0.000 A 
ATOM     12  C   UNL     1       2.005   4.569  18.549  0.00  0.00    +0.000 A 
ATOM     13  C   UNL     1       2.264   3.362  17.892  0.00  0.00    +0.000 A 
ATOM     14  C   UNL     1       3.528   3.115  17.367  0.00  0.00    +0.000 A 
ATOM     15  C   UNL     1       4.541   4.056  17.544  0.00  0.00    +0.000 A 
ATOM     16  N   UNL     1       5.768   3.843  16.906  0.00  0.00    +0.000 N 
ATOM     17  C   UNL     1       6.807   4.720  17.064  0.00  0.00    +0.000 C 
ATOM     18  O   UNL     1       7.823   4.637  16.377  0.00  0.00    +0.000 OA
ATOM     19  H   UNL     1       5.877   3.112  16.216  0.00  0.00    +0.000 HD
ENDBRANCH   1  11
BRANCH   4  20
ATOM     20  C   UNL     1       1.231  10.068  18.727  0.00  0.00    +0.000 C 
ATOM     21  C   UNL     1       1.484  11.401  19.422  0.00  0.00    +0.000 C 
ATOM     22  C   UNL     1       0.404  12.330  18.855  0.00  0.00    +0.000 C 
ATOM     23  C   UNL     1      -0.723  11.410  18.335  0.00  0.00    +0.000 C 
ATOM     24  C   UNL     1      -0.296   9.987  18.736  0.00  0.00    +0.000 C 
BRANCH  23  25
ATOM     25  C   UNL     1      -2.108  11.814  18.793  0.00  0.00    +0.000 A 
ATOM     26  C   UNL     1      -2.264  12.607  19.942  0.00  0.00    +0.000 A 
ATOM     27  C   UNL     1      -3.534  12.968  20.399  0.00  0.00    +0.000 A 
ATOM     28  C   UNL     1      -4.670  12.542  19.714  0.00  0.00    +0.000 A 
ATOM     29  C   UNL     1      -4.533  11.758  18.571  0.00  0.00    +0.000 A 
ATOM     30  C   UNL     1      -3.262  11.396  18.113  0.00  0.00    +0.000 A 
ENDBRANCH  23  25
ENDBRANCH   4  20
TORSDOF 3
ENDMDL
