MODEL 1
REMARK VINA RESULT:      -8.0      0.000      0.000
REMARK  Name = 
REMARK  6 active torsions:
REMARK  status: ('A' for Active; 'I' for Inactive)
REMARK    1  A    between atoms: C_1  and  C_2
REMARK    2  A    between atoms: C_6  and  N_7
REMARK    3  A    between atoms: N_10  and  C_11
REMARK    4  A    between atoms: C_14  and  C_15
REMARK    5  A    between atoms: C_19  and  C_20
REMARK    6  A    between atoms: C_28  and  N_29
REMARK                            x       y       z     vdW  Elec       q    Type
REMARK                         _______ _______ _______ _____ _____    ______ ____
ROOT
ATOM      1  C   UNL     1      -1.182  12.371  19.535  0.00  0.00    +0.000 A 
ATOM      2  C   UNL     1      -1.598  11.276  18.772  0.00  0.00    +0.000 A 
ATOM      3  C   UNL     1      -0.761  10.166  18.611  0.00  0.00    +0.000 A 
ATOM      4  C   UNL     1       0.490  10.136  19.230  0.00  0.00    +0.000 A 
ATOM      5  C   UNL     1       0.893  11.221  20.018  0.00  0.00    +0.000 A 
ATOM      6  C   UNL     1       0.071  12.346  20.149  0.00  0.00    +0.000 A 
ENDROOT
BRANCH   4   7
ATOM      7  C   UNL     1       1.400   9.007  19.018  0.00  0.00    +0.000 A 
ATOM      8  C   UNL     1       2.183   8.881  17.752  0.00  0.00    +0.000 A 
ATOM      9  N   UNL     1       3.001   7.923  17.435  0.00  0.00    +0.000 NA
ATOM     10  C   UNL     1       3.153   6.931  18.368  0.00  0.00    +0.000 A 
ATOM     11  C   UNL     1       3.917   5.779  18.388  0.00  0.00    +0.000 A 
ATOM     12  C   UNL     1       3.613   5.164  19.616  0.00  0.00    +0.000 A 
ATOM     13  N   UNL     1       2.730   5.850  20.343  0.00  0.00    +0.000 NA
ATOM     14  N   UNL     1       2.469   6.961  19.590  0.00  0.00    +0.000 N 
ATOM     15  C   UNL     1       1.590   8.023  19.926  0.00  0.00    +0.000 A 
BRANCH  11  16
ATOM     16  C   UNL     1       4.850   5.278  17.372  0.00  0.00    +0.000 A 
ATOM     17  C   UNL     1       4.587   4.142  16.544  0.00  0.00    +0.000 A 
ATOM     18  C   UNL     1       5.632   3.862  15.689  0.00  0.00    +0.000 A 
ATOM     19  S   UNL     1       6.921   4.970  15.864  0.00  0.00    +0.000 S 
ATOM     20  C   UNL     1       6.087   5.822  17.091  0.00  0.00    +0.000 A 
ENDBRANCH  11  16
BRANCH  15  21
ATOM     21  N   UNL     1       0.969   7.959  21.177  0.00  0.00    +0.000 N 
ATOM     22  H   UNL     1       0.801   6.992  21.464  0.00  0.00    +0.000 HD
ATOM     23  H   UNL     1       0.167   8.574  21.283  0.00  0.00    +0.000 HD
ENDBRANCH  15  21
ENDBRANCH   4   7
BRANCH   1  27
ATOM     24  N   UNL     1      -3.695  14.730  20.659  0.00  0.00    +0.000 N 
ATOM     25  C   UNL     1      -2.983  13.548  20.673  0.00  0.00    +0.000 C 
ATOM     26  O   UNL     1      -3.170  12.620  21.456  0.00  0.00    +0.000 OA
ATOM     27  N   UNL     1      -2.000  13.514  19.696  0.00  0.00    +0.000 N 
ATOM     28  H   UNL     1      -3.719  15.219  19.776  0.00  0.00    +0.000 HD
ATOM     29  H   UNL     1      -1.565  14.411  19.524  0.00  0.00    +0.000 HD
BRANCH  24  35
ATOM     30  C   UNL     1      -4.720  16.948  24.968  0.00  0.00    +0.000 C 
ATOM     31  C   UNL     1      -5.172  16.187  23.757  0.00  0.00    +0.000 A 
ATOM     32  C   UNL     1      -6.525  15.892  23.579  0.00  0.00    +0.000 A 
ATOM     33  C   UNL     1      -6.947  15.193  22.451  0.00  0.00    +0.000 A 
ATOM     34  C   UNL     1      -6.018  14.797  21.490  0.00  0.00    +0.000 A 
ATOM     35  C   UNL     1      -4.660  15.098  21.631  0.00  0.00    +0.000 A 
ATOM     36  C   UNL     1      -4.240  15.775  22.784  0.00  0.00    +0.000 A 
ENDBRANCH  24  35
ENDBRANCH   1  27
TORSDOF 5
ENDMDL
MODEL 2
REMARK VINA RESULT:      -8.0      0.501      1.134
REMARK  Name = 
REMARK  6 active torsions:
REMARK  status: ('A' for Active; 'I' for Inactive)
REMARK    1  A    between atoms: C_1  and  C_2
REMARK    2  A    between atoms: C_6  and  N_7
REMARK    3  A    between atoms: N_10  and  C_11
REMARK    4  A    between atoms: C_14  and  C_15
REMARK    5  A    between atoms: C_19  and  C_20
REMARK    6  A    between atoms: C_28  and  N_29
REMARK                            x       y       z     vdW  Elec       q    Type
REMARK                         _______ _______ _______ _____ _____    ______ ____
ROOT
ATOM      1  C   UNL     1      -1.188  12.210  19.421  0.00  0.00    +0.000 A 
ATOM      2  C   UNL     1       0.047  12.221  20.077  0.00  0.00    +0.000 A 
ATOM      3  C   UNL     1       0.941  11.156  19.919  0.00  0.00    +0.000 A 
ATOM      4  C   UNL     1       0.614  10.082  19.089  0.00  0.00    +0.000 A 
ATOM      5  C   UNL     1      -0.612  10.087  18.411  0.00  0.00    +0.000 A 
ATOM      6  C   UNL     1      -1.520  11.135  18.596  0.00  0.00    +0.000 A 
ENDROOT
BRANCH   4   7
ATOM      7  C   UNL     1       1.514   8.932  18.967  0.00  0.00    +0.000 A 
ATOM      8  C   UNL     1       2.410   8.782  17.781  0.00  0.00    +0.000 A 
ATOM      9  N   UNL     1       3.232   7.804  17.546  0.00  0.00    +0.000 NA
ATOM     10  C   UNL     1       3.272   6.814  18.491  0.00  0.00    +0.000 A 
ATOM     11  C   UNL     1       4.005   5.645  18.587  0.00  0.00    +0.000 A 
ATOM     12  C   UNL     1       3.571   5.042  19.782  0.00  0.00    +0.000 A 
ATOM     13  N   UNL     1       2.640   5.752  20.420  0.00  0.00    +0.000 NA
ATOM     14  N   UNL     1       2.477   6.865  19.643  0.00  0.00    +0.000 N 
ATOM     15  C   UNL     1       1.594   7.948  19.891  0.00  0.00    +0.000 A 
BRANCH  11  16
ATOM     16  C   UNL     1       5.017   5.118  17.665  0.00  0.00    +0.000 A 
ATOM     17  C   UNL     1       6.417   5.082  17.959  0.00  0.00    +0.000 A 
ATOM     18  C   UNL     1       7.159   4.564  16.918  0.00  0.00    +0.000 A 
ATOM     19  S   UNL     1       6.178   4.103  15.597  0.00  0.00    +0.000 S 
ATOM     20  C   UNL     1       4.759   4.604  16.410  0.00  0.00    +0.000 A 
ENDBRANCH  11  16
BRANCH  15  21
ATOM     21  N   UNL     1       0.857   7.905  21.078  0.00  0.00    +0.000 N 
ATOM     22  H   UNL     1       0.641   6.942  21.351  0.00  0.00    +0.000 HD
ATOM     23  H   UNL     1       0.062   8.537  21.106  0.00  0.00    +0.000 HD
ENDBRANCH  15  21
ENDBRANCH   4   7
BRANCH   1  27
ATOM     24  N   UNL     1      -3.811  14.391  20.648  0.00  0.00    +0.000 N 
ATOM     25  C   UNL     1      -2.958  13.306  20.681  0.00  0.00    +0.000 C 
ATOM     26  O   UNL     1      -2.919  12.466  21.576  0.00  0.00    +0.000 OA
ATOM     27  N   UNL     1      -2.118  13.265  19.579  0.00  0.00    +0.000 N 
ATOM     28  H   UNL     1      -4.014  14.763  19.732  0.00  0.00    +0.000 HD
ATOM     29  H   UNL     1      -1.827  14.178  19.253  0.00  0.00    +0.000 HD
BRANCH  24  35
ATOM     30  C   UNL     1      -4.453  16.776  24.942  0.00  0.00    +0.000 C 
ATOM     31  C   UNL     1      -5.000  15.935  23.827  0.00  0.00    +0.000 A 
ATOM     32  C   UNL     1      -6.348  15.571  23.820  0.00  0.00    +0.000 A 
ATOM     33  C   UNL     1      -6.858  14.797  22.781  0.00  0.00    +0.000 A 
ATOM     34  C   UNL     1      -6.026  14.395  21.738  0.00  0.00    +0.000 A 
ATOM     35  C   UNL     1      -4.677  14.764  21.708  0.00  0.00    +0.000 A 
ATOM     36  C   UNL     1      -4.164  15.517  22.772  0.00  0.00    +0.000 A 
ENDBRANCH  24  35
ENDBRANCH   1  27
TORSDOF 5
ENDMDL
MODEL 3
REMARK VINA RESULT:      -7.8      0.783      1.700
REMARK  Name = 
REMARK  6 active torsions:
REMARK  status: ('A' for Active; 'I' for Inactive)
REMARK    1  A    between atoms: C_1  and  C_2
REMARK    2  A    between atoms: C_6  and  N_7
REMARK    3  A    between atoms: N_10  and  C_11
REMARK    4  A    between atoms: C_14  and  C_15
REMARK    5  A    between atoms: C_19  and  C_20
REMARK    6  A    between atoms: C_28  and  N_29
REMARK                            x       y       z     vdW  Elec       q    Type
REMARK                         _______ _______ _______ _____ _____    ______ ____
ROOT
ATOM      1  C   UNL     1      -1.086  12.101  19.466  0.00  0.00    +0.000 A 
ATOM      2  C   UNL     1       0.133  12.079  20.150  0.00  0.00    +0.000 A 
ATOM      3  C   UNL     1       1.026  11.015  19.972  0.00  0.00    +0.000 A 
ATOM      4  C   UNL     1       0.713   9.977  19.093  0.00  0.00    +0.000 A 
ATOM      5  C   UNL     1      -0.497  10.015  18.387  0.00  0.00    +0.000 A 
ATOM      6  C   UNL     1      -1.404  11.060  18.592  0.00  0.00    +0.000 A 
ENDROOT
BRANCH   4   7
ATOM      7  C   UNL     1       1.610   8.827  18.947  0.00  0.00    +0.000 A 
ATOM      8  C   UNL     1       2.483   8.685  17.744  0.00  0.00    +0.000 A 
ATOM      9  N   UNL     1       3.300   7.709  17.487  0.00  0.00    +0.000 NA
ATOM     10  C   UNL     1       3.358   6.713  18.425  0.00  0.00    +0.000 A 
ATOM     11  C   UNL     1       4.092   5.542  18.499  0.00  0.00    +0.000 A 
ATOM     12  C   UNL     1       3.681   4.933  19.698  0.00  0.00    +0.000 A 
ATOM     13  N   UNL     1       2.762   5.638  20.359  0.00  0.00    +0.000 NA
ATOM     14  N   UNL     1       2.585   6.757  19.592  0.00  0.00    +0.000 N 
ATOM     15  C   UNL     1       1.707   7.838  19.863  0.00  0.00    +0.000 A 
BRANCH  11  16
ATOM     16  C   UNL     1       5.087   5.022  17.555  0.00  0.00    +0.000 A 
ATOM     17  C   UNL     1       6.491   4.970  17.829  0.00  0.00    +0.000 A 
ATOM     18  C   UNL     1       7.213   4.462  16.770  0.00  0.00    +0.000 A 
ATOM     19  S   UNL     1       6.210   4.028  15.456  0.00  0.00    +0.000 S 
ATOM     20  C   UNL     1       4.807   4.528  16.297  0.00  0.00    +0.000 A 
ENDBRANCH  11  16
BRANCH  15  21
ATOM     21  N   UNL     1       0.992   7.787  21.064  0.00  0.00    +0.000 N 
ATOM     22  H   UNL     1       0.790   6.823  21.340  0.00  0.00    +0.000 HD
ATOM     23  H   UNL     1       0.192   8.412  21.106  0.00  0.00    +0.000 HD
ENDBRANCH  15  21
ENDBRANCH   4   7
BRANCH   1  27
ATOM     24  N   UNL     1      -3.742  14.235  20.704  0.00  0.00    +0.000 N 
ATOM     25  C   UNL     1      -2.899  13.143  20.712  0.00  0.00    +0.000 C 
ATOM     26  O   UNL     1      -2.903  12.254  21.559  0.00  0.00    +0.000 OA
ATOM     27  N   UNL     1      -2.014  13.153  19.644  0.00  0.00    +0.000 N 
ATOM     28  H   UNL     1      -3.906  14.659  19.802  0.00  0.00    +0.000 HD
ATOM     29  H   UNL     1      -1.705  14.080  19.381  0.00  0.00    +0.000 HD
BRANCH  24  35
ATOM     30  C   UNL     1      -7.766  13.028  23.327  0.00  0.00    +0.000 C 
ATOM     31  C   UNL     1      -6.635  13.969  23.042  0.00  0.00    +0.000 A 
ATOM     32  C   UNL     1      -6.461  15.114  23.822  0.00  0.00    +0.000 A 
ATOM     33  C   UNL     1      -5.406  15.985  23.562  0.00  0.00    +0.000 A 
ATOM     34  C   UNL     1      -4.513  15.708  22.529  0.00  0.00    +0.000 A 
ATOM     35  C   UNL     1      -4.649  14.558  21.746  0.00  0.00    +0.000 A 
ATOM     36  C   UNL     1      -5.731  13.702  21.993  0.00  0.00    +0.000 A 
ENDBRANCH  24  35
ENDBRANCH   1  27
TORSDOF 5
ENDMDL
MODEL 4
REMARK VINA RESULT:      -7.8      0.462      1.148
REMARK  Name = 
REMARK  6 active torsions:
REMARK  status: ('A' for Active; 'I' for Inactive)
REMARK    1  A    between atoms: C_1  and  C_2
REMARK    2  A    between atoms: C_6  and  N_7
REMARK    3  A    between atoms: N_10  and  C_11
REMARK    4  A    between atoms: C_14  and  C_15
REMARK    5  A    between atoms: C_19  and  C_20
REMARK    6  A    between atoms: C_28  and  N_29
REMARK                            x       y       z     vdW  Elec       q    Type
REMARK                         _______ _______ _______ _____ _____    ______ ____
ROOT
ATOM      1  C   UNL     1      -1.156  12.312  19.545  0.00  0.00    +0.000 A 
ATOM      2  C   UNL     1      -1.622  11.150  18.922  0.00  0.00    +0.000 A 
ATOM      3  C   UNL     1      -0.777  10.047  18.757  0.00  0.00    +0.000 A 
ATOM      4  C   UNL     1       0.534  10.091  19.233  0.00  0.00    +0.000 A 
ATOM      5  C   UNL     1       0.991  11.245  19.883  0.00  0.00    +0.000 A 
ATOM      6  C   UNL     1       0.157  12.361  20.016  0.00  0.00    +0.000 A 
ENDROOT
BRANCH   4   7
ATOM      7  C   UNL     1       1.447   8.967  19.010  0.00  0.00    +0.000 A 
ATOM      8  C   UNL     1       2.240   8.861  17.748  0.00  0.00    +0.000 A 
ATOM      9  N   UNL     1       3.061   7.909  17.423  0.00  0.00    +0.000 NA
ATOM     10  C   UNL     1       3.207   6.903  18.340  0.00  0.00    +0.000 A 
ATOM     11  C   UNL     1       3.973   5.751  18.349  0.00  0.00    +0.000 A 
ATOM     12  C   UNL     1       3.659   5.117  19.564  0.00  0.00    +0.000 A 
ATOM     13  N   UNL     1       2.770   5.791  20.295  0.00  0.00    +0.000 NA
ATOM     14  N   UNL     1       2.514   6.913  19.558  0.00  0.00    +0.000 N 
ATOM     15  C   UNL     1       1.631   7.969  19.904  0.00  0.00    +0.000 A 
BRANCH  11  16
ATOM     16  C   UNL     1       4.913   5.267  17.332  0.00  0.00    +0.000 A 
ATOM     17  C   UNL     1       4.707   4.081  16.559  0.00  0.00    +0.000 A 
ATOM     18  C   UNL     1       5.749   3.831  15.692  0.00  0.00    +0.000 A 
ATOM     19  S   UNL     1       6.966   5.027  15.788  0.00  0.00    +0.000 S 
ATOM     20  C   UNL     1       6.106   5.877  16.998  0.00  0.00    +0.000 A 
ENDBRANCH  11  16
BRANCH  15  21
ATOM     21  N   UNL     1       1.001   7.885  21.149  0.00  0.00    +0.000 N 
ATOM     22  H   UNL     1       1.473   8.464  21.848  0.00  0.00    +0.000 HD
ATOM     23  H   UNL     1       0.796   6.939  21.456  0.00  0.00    +0.000 HD
ENDBRANCH  15  21
ENDBRANCH   4   7
BRANCH   1  27
ATOM     24  N   UNL     1      -3.491  14.772  20.825  0.00  0.00    +0.000 N 
ATOM     25  C   UNL     1      -2.726  13.624  20.864  0.00  0.00    +0.000 C 
ATOM     26  O   UNL     1      -2.680  12.837  21.805  0.00  0.00    +0.000 OA
ATOM     27  N   UNL     1      -1.984  13.448  19.706  0.00  0.00    +0.000 N 
ATOM     28  H   UNL     1      -3.739  15.105  19.905  0.00  0.00    +0.000 HD
ATOM     29  H   UNL     1      -1.650  14.313  19.299  0.00  0.00    +0.000 HD
BRANCH  24  35
ATOM     30  C   UNL     1      -7.531  14.488  23.678  0.00  0.00    +0.000 C 
ATOM     31  C   UNL     1      -6.228  15.144  23.330  0.00  0.00    +0.000 A 
ATOM     32  C   UNL     1      -5.747  16.201  24.105  0.00  0.00    +0.000 A 
ATOM     33  C   UNL     1      -4.533  16.806  23.788  0.00  0.00    +0.000 A 
ATOM     34  C   UNL     1      -3.790  16.348  22.702  0.00  0.00    +0.000 A 
ATOM     35  C   UNL     1      -4.236  15.277  21.922  0.00  0.00    +0.000 A 
ATOM     36  C   UNL     1      -5.473  14.694  22.228  0.00  0.00    +0.000 A 
ENDBRANCH  24  35
ENDBRANCH   1  27
TORSDOF 5
ENDMDL
MODEL 5
REMARK VINA RESULT:      -7.7      9.757     12.067
REMARK  Name = 
REMARK  6 active torsions:
REMARK  status: ('A' for Active; 'I' for Inactive)
REMARK    1  A    between atoms: C_1  and  C_2
REMARK    2  A    between atoms: C_6  and  N_7
REMARK    3  A    between atoms: N_10  and  C_11
REMARK    4  A    between atoms: C_14  and  C_15
REMARK    5  A    between atoms: C_19  and  C_20
REMARK    6  A    between atoms: C_28  and  N_29
REMARK                            x       y       z     vdW  Elec       q    Type
REMARK                         _______ _______ _______ _____ _____    ______ ____
ROOT
ATOM      1  C   UNL     1       7.460   6.746  18.051  0.00  0.00    +0.000 A 
ATOM      2  C   UNL     1       7.083   7.812  17.227  0.00  0.00    +0.000 A 
ATOM      3  C   UNL     1       7.613   9.090  17.437  0.00  0.00    +0.000 A 
ATOM      4  C   UNL     1       8.539   9.306  18.460  0.00  0.00    +0.000 A 
ATOM      5  C   UNL     1       8.936   8.230  19.266  0.00  0.00    +0.000 A 
ATOM      6  C   UNL     1       8.379   6.961  19.078  0.00  0.00    +0.000 A 
ENDROOT
BRANCH   4   7
ATOM      7  C   UNL     1       9.052  10.652  18.730  0.00  0.00    +0.000 A 
ATOM      8  C   UNL     1       9.334  11.602  17.614  0.00  0.00    +0.000 A 
ATOM      9  N   UNL     1       9.809  12.807  17.719  0.00  0.00    +0.000 NA
ATOM     10  C   UNL     1      10.073  13.238  18.991  0.00  0.00    +0.000 A 
ATOM     11  C   UNL     1      10.571  14.429  19.488  0.00  0.00    +0.000 A 
ATOM     12  C   UNL     1      10.638  14.241  20.881  0.00  0.00    +0.000 A 
ATOM     13  N   UNL     1      10.218  13.036  21.269  0.00  0.00    +0.000 NA
ATOM     14  N   UNL     1       9.836  12.425  20.107  0.00  0.00    +0.000 N 
ATOM     15  C   UNL     1       9.304  11.116  19.975  0.00  0.00    +0.000 A 
BRANCH  11  16
ATOM     16  C   UNL     1      10.955  15.640  18.755  0.00  0.00    +0.000 A 
ATOM     17  C   UNL     1      10.014  16.550  18.176  0.00  0.00    +0.000 A 
ATOM     18  C   UNL     1      10.629  17.595  17.520  0.00  0.00    +0.000 A 
ATOM     19  S   UNL     1      12.333  17.498  17.613  0.00  0.00    +0.000 S 
ATOM     20  C   UNL     1      12.251  16.053  18.524  0.00  0.00    +0.000 A 
ENDBRANCH  11  16
BRANCH  15  21
ATOM     21  N   UNL     1       9.094  10.396  21.154  0.00  0.00    +0.000 N 
ATOM     22  H   UNL     1       8.121  10.091  21.240  0.00  0.00    +0.000 HD
ATOM     23  H   UNL     1       9.472  10.833  21.990  0.00  0.00    +0.000 HD
ENDBRANCH  15  21
ENDBRANCH   4   7
BRANCH   1  27
ATOM     24  N   UNL     1       5.366   3.789  18.189  0.00  0.00    +0.000 N 
ATOM     25  C   UNL     1       5.712   5.099  18.451  0.00  0.00    +0.000 C 
ATOM     26  O   UNL     1       5.040   5.889  19.108  0.00  0.00    +0.000 OA
ATOM     27  N   UNL     1       6.923   5.449  17.872  0.00  0.00    +0.000 N 
ATOM     28  H   UNL     1       6.133   3.162  17.991  0.00  0.00    +0.000 HD
ATOM     29  H   UNL     1       7.089   5.009  16.976  0.00  0.00    +0.000 HD
BRANCH  24  35
ATOM     30  C   UNL     1       2.070   2.622  21.698  0.00  0.00    +0.000 C 
ATOM     31  C   UNL     1       2.492   2.623  20.259  0.00  0.00    +0.000 A 
ATOM     32  C   UNL     1       1.648   2.095  19.280  0.00  0.00    +0.000 A 
ATOM     33  C   UNL     1       2.036   2.102  17.943  0.00  0.00    +0.000 A 
ATOM     34  C   UNL     1       3.264   2.648  17.577  0.00  0.00    +0.000 A 
ATOM     35  C   UNL     1       4.121   3.204  18.533  0.00  0.00    +0.000 A 
ATOM     36  C   UNL     1       3.737   3.165  19.880  0.00  0.00    +0.000 A 
ENDBRANCH  24  35
ENDBRANCH   1  27
TORSDOF 5
ENDMDL
MODEL 6
REMARK VINA RESULT:      -7.6      2.520      3.068
REMARK  Name = 
REMARK  6 active torsions:
REMARK  status: ('A' for Active; 'I' for Inactive)
REMARK    1  A    between atoms: C_1  and  C_2
REMARK    2  A    between atoms: C_6  and  N_7
REMARK    3  A    between atoms: N_10  and  C_11
REMARK    4  A    between atoms: C_14  and  C_15
REMARK    5  A    between atoms: C_19  and  C_20
REMARK    6  A    between atoms: C_28  and  N_29
REMARK                            x       y       z     vdW  Elec       q    Type
REMARK                         _______ _______ _______ _____ _____    ______ ____
ROOT
ATOM      1  C   UNL     1      -0.252  10.242  21.410  0.00  0.00    +0.000 A 
ATOM      2  C   UNL     1       0.556   9.366  22.143  0.00  0.00    +0.000 A 
ATOM      3  C   UNL     1       1.405   8.469  21.487  0.00  0.00    +0.000 A 
ATOM      4  C   UNL     1       1.468   8.456  20.092  0.00  0.00    +0.000 A 
ATOM      5  C   UNL     1       0.679   9.354  19.360  0.00  0.00    +0.000 A 
ATOM      6  C   UNL     1      -0.196  10.226  20.016  0.00  0.00    +0.000 A 
ENDROOT
BRANCH   4   7
ATOM      7  C   UNL     1       2.305   7.478  19.392  0.00  0.00    +0.000 A 
ATOM      8  C   UNL     1       3.006   7.838  18.123  0.00  0.00    +0.000 A 
ATOM      9  N   UNL     1       3.755   7.060  17.400  0.00  0.00    +0.000 NA
ATOM     10  C   UNL     1       3.910   5.780  17.861  0.00  0.00    +0.000 A 
ATOM     11  C   UNL     1       4.615   4.693  17.376  0.00  0.00    +0.000 A 
ATOM     12  C   UNL     1       4.350   3.654  18.287  0.00  0.00    +0.000 A 
ATOM     13  N   UNL     1       3.547   4.023  19.286  0.00  0.00    +0.000 NA
ATOM     14  N   UNL     1       3.300   5.346  19.045  0.00  0.00    +0.000 N 
ATOM     15  C   UNL     1       2.497   6.213  19.830  0.00  0.00    +0.000 A 
BRANCH  11  16
ATOM     16  C   UNL     1       5.460   4.607  16.180  0.00  0.00    +0.000 A 
ATOM     17  C   UNL     1       6.812   5.072  16.128  0.00  0.00    +0.000 A 
ATOM     18  C   UNL     1       7.379   4.900  14.883  0.00  0.00    +0.000 A 
ATOM     19  S   UNL     1       6.300   4.163  13.781  0.00  0.00    +0.000 S 
ATOM     20  C   UNL     1       5.068   4.081  14.965  0.00  0.00    +0.000 A 
ENDBRANCH  11  16
BRANCH  15  21
ATOM     21  N   UNL     1       1.947   5.681  21.000  0.00  0.00    +0.000 N 
ATOM     22  H   UNL     1       1.854   4.663  20.942  0.00  0.00    +0.000 HD
ATOM     23  H   UNL     1       1.116   6.160  21.332  0.00  0.00    +0.000 HD
ENDBRANCH  15  21
ENDBRANCH   4   7
BRANCH   1  27
ATOM     24  N   UNL     1      -1.712  13.155  23.000  0.00  0.00    +0.000 N 
ATOM     25  C   UNL     1      -0.727  12.434  22.355  0.00  0.00    +0.000 C 
ATOM     26  O   UNL     1       0.386  12.863  22.064  0.00  0.00    +0.000 OA
ATOM     27  N   UNL     1      -1.134  11.144  22.050  0.00  0.00    +0.000 N 
ATOM     28  H   UNL     1      -2.393  12.611  23.509  0.00  0.00    +0.000 HD
ATOM     29  H   UNL     1      -2.113  11.073  21.803  0.00  0.00    +0.000 HD
BRANCH  24  35
ATOM     30  C   UNL     1      -0.931  16.701  26.369  0.00  0.00    +0.000 C 
ATOM     31  C   UNL     1      -1.245  16.291  24.961  0.00  0.00    +0.000 A 
ATOM     32  C   UNL     1      -1.404  17.260  23.968  0.00  0.00    +0.000 A 
ATOM     33  C   UNL     1      -1.688  16.881  22.659  0.00  0.00    +0.000 A 
ATOM     34  C   UNL     1      -1.802  15.530  22.335  0.00  0.00    +0.000 A 
ATOM     35  C   UNL     1      -1.626  14.538  23.304  0.00  0.00    +0.000 A 
ATOM     36  C   UNL     1      -1.371  14.928  24.625  0.00  0.00    +0.000 A 
ENDBRANCH  24  35
ENDBRANCH   1  27
TORSDOF 5
ENDMDL
MODEL 7
REMARK VINA RESULT:      -7.6      0.859      1.483
REMARK  Name = 
REMARK  6 active torsions:
REMARK  status: ('A' for Active; 'I' for Inactive)
REMARK    1  A    between atoms: C_1  and  C_2
REMARK    2  A    between atoms: C_6  and  N_7
REMARK    3  A    between atoms: N_10  and  C_11
REMARK    4  A    between atoms: C_14  and  C_15
REMARK    5  A    between atoms: C_19  and  C_20
REMARK    6  A    between atoms: C_28  and  N_29
REMARK                            x       y       z     vdW  Elec       q    Type
REMARK                         _______ _______ _______ _____ _____    ______ ____
ROOT
ATOM      1  C   UNL     1      -1.154  12.886  19.803  0.00  0.00    +0.000 A 
ATOM      2  C   UNL     1      -1.723  11.748  19.222  0.00  0.00    +0.000 A 
ATOM      3  C   UNL     1      -0.948  10.605  18.996  0.00  0.00    +0.000 A 
ATOM      4  C   UNL     1       0.398  10.587  19.368  0.00  0.00    +0.000 A 
ATOM      5  C   UNL     1       0.959  11.717  19.976  0.00  0.00    +0.000 A 
ATOM      6  C   UNL     1       0.192  12.871  20.170  0.00  0.00    +0.000 A 
ENDROOT
BRANCH   4   7
ATOM      7  C   UNL     1       1.236   9.419  19.079  0.00  0.00    +0.000 A 
ATOM      8  C   UNL     1       1.937   9.285  17.768  0.00  0.00    +0.000 A 
ATOM      9  N   UNL     1       2.686   8.296  17.383  0.00  0.00    +0.000 NA
ATOM     10  C   UNL     1       2.840   7.276  18.284  0.00  0.00    +0.000 A 
ATOM     11  C   UNL     1       3.545   6.086  18.235  0.00  0.00    +0.000 A 
ATOM     12  C   UNL     1       3.280   5.458  19.465  0.00  0.00    +0.000 A 
ATOM     13  N   UNL     1       2.476   6.169  20.257  0.00  0.00    +0.000 NA
ATOM     14  N   UNL     1       2.230   7.310  19.544  0.00  0.00    +0.000 N 
ATOM     15  C   UNL     1       1.427   8.406  19.954  0.00  0.00    +0.000 A 
BRANCH  11  16
ATOM     16  C   UNL     1       4.390   5.565  17.156  0.00  0.00    +0.000 A 
ATOM     17  C   UNL     1       5.078   6.394  16.215  0.00  0.00    +0.000 A 
ATOM     18  C   UNL     1       5.784   5.659  15.286  0.00  0.00    +0.000 A 
ATOM     19  S   UNL     1       5.640   3.977  15.552  0.00  0.00    +0.000 S 
ATOM     20  C   UNL     1       4.625   4.228  16.905  0.00  0.00    +0.000 A 
ENDBRANCH  11  16
BRANCH  15  21
ATOM     21  N   UNL     1       0.876   8.343  21.237  0.00  0.00    +0.000 N 
ATOM     22  H   UNL     1       1.001   7.417  21.654  0.00  0.00    +0.000 HD
ATOM     23  H   UNL     1      -0.067   8.713  21.311  0.00  0.00    +0.000 HD
ENDBRANCH  15  21
ENDBRANCH   4   7
BRANCH   1  27
ATOM     24  N   UNL     1      -3.360  15.402  21.197  0.00  0.00    +0.000 N 
ATOM     25  C   UNL     1      -2.672  14.206  21.173  0.00  0.00    +0.000 C 
ATOM     26  O   UNL     1      -2.702  13.356  22.059  0.00  0.00    +0.000 OA
ATOM     27  N   UNL     1      -1.912  14.060  20.023  0.00  0.00    +0.000 N 
ATOM     28  H   UNL     1      -3.561  15.813  20.297  0.00  0.00    +0.000 HD
ATOM     29  H   UNL     1      -1.513  14.927  19.685  0.00  0.00    +0.000 HD
BRANCH  24  35
ATOM     30  C   UNL     1      -7.762  16.515  23.179  0.00  0.00    +0.000 C 
ATOM     31  C   UNL     1      -6.269  16.433  23.291  0.00  0.00    +0.000 A 
ATOM     32  C   UNL     1      -5.635  16.781  24.486  0.00  0.00    +0.000 A 
ATOM     33  C   UNL     1      -4.249  16.698  24.593  0.00  0.00    +0.000 A 
ATOM     34  C   UNL     1      -3.492  16.255  23.510  0.00  0.00    +0.000 A 
ATOM     35  C   UNL     1      -4.101  15.880  22.309  0.00  0.00    +0.000 A 
ATOM     36  C   UNL     1      -5.493  15.995  22.198  0.00  0.00    +0.000 A 
ENDBRANCH  24  35
ENDBRANCH   1  27
TORSDOF 5
ENDMDL
MODEL 8
REMARK VINA RESULT:      -7.5      0.819      1.376
REMARK  Name = 
REMARK  6 active torsions:
REMARK  status: ('A' for Active; 'I' for Inactive)
REMARK    1  A    between atoms: C_1  and  C_2
REMARK    2  A    between atoms: C_6  and  N_7
REMARK    3  A    between atoms: N_10  and  C_11
REMARK    4  A    between atoms: C_14  and  C_15
REMARK    5  A    between atoms: C_19  and  C_20
REMARK    6  A    between atoms: C_28  and  N_29
REMARK                            x       y       z     vdW  Elec       q    Type
REMARK                         _______ _______ _______ _____ _____    ______ ____
ROOT
ATOM      1  C   UNL     1      -1.290  12.817  19.699  0.00  0.00    +0.000 A 
ATOM      2  C   UNL     1       0.099  12.933  19.814  0.00  0.00    +0.000 A 
ATOM      3  C   UNL     1       0.925  11.832  19.564  0.00  0.00    +0.000 A 
ATOM      4  C   UNL     1       0.368  10.611  19.179  0.00  0.00    +0.000 A 
ATOM      5  C   UNL     1      -1.022  10.504  19.036  0.00  0.00    +0.000 A 
ATOM      6  C   UNL     1      -1.849  11.596  19.320  0.00  0.00    +0.000 A 
ENDROOT
BRANCH   4   7
ATOM      7  C   UNL     1       1.217   9.434  18.976  0.00  0.00    +0.000 A 
ATOM      8  C   UNL     1       2.019   9.272  17.727  0.00  0.00    +0.000 A 
ATOM      9  N   UNL     1       2.788   8.272  17.420  0.00  0.00    +0.000 NA
ATOM     10  C   UNL     1       2.863   7.267  18.347  0.00  0.00    +0.000 A 
ATOM     11  C   UNL     1       3.561   6.073  18.374  0.00  0.00    +0.000 A 
ATOM     12  C   UNL     1       3.195   5.467  19.590  0.00  0.00    +0.000 A 
ATOM     13  N   UNL     1       2.337   6.197  20.304  0.00  0.00    +0.000 NA
ATOM     14  N   UNL     1       2.156   7.327  19.554  0.00  0.00    +0.000 N 
ATOM     15  C   UNL     1       1.331   8.434  19.880  0.00  0.00    +0.000 A 
BRANCH  11  16
ATOM     16  C   UNL     1       4.485   5.527  17.374  0.00  0.00    +0.000 A 
ATOM     17  C   UNL     1       4.338   4.235  16.778  0.00  0.00    +0.000 A 
ATOM     18  C   UNL     1       5.352   3.948  15.889  0.00  0.00    +0.000 A 
ATOM     19  S   UNL     1       6.470   5.234  15.752  0.00  0.00    +0.000 S 
ATOM     20  C   UNL     1       5.605   6.173  16.890  0.00  0.00    +0.000 A 
ENDBRANCH  11  16
BRANCH  15  21
ATOM     21  N   UNL     1       0.681   8.397  21.117  0.00  0.00    +0.000 N 
ATOM     22  H   UNL     1       0.459   7.438  21.396  0.00  0.00    +0.000 HD
ATOM     23  H   UNL     1      -0.092   9.050  21.208  0.00  0.00    +0.000 HD
ENDBRANCH  15  21
ENDBRANCH   4   7
BRANCH   1  27
ATOM     24  N   UNL     1      -3.438  15.251  21.314  0.00  0.00    +0.000 N 
ATOM     25  C   UNL     1      -2.591  14.162  21.255  0.00  0.00    +0.000 C 
ATOM     26  O   UNL     1      -2.244  13.484  22.219  0.00  0.00    +0.000 OA
ATOM     27  N   UNL     1      -2.147  13.910  19.966  0.00  0.00    +0.000 N 
ATOM     28  H   UNL     1      -3.934  15.468  20.462  0.00  0.00    +0.000 HD
ATOM     29  H   UNL     1      -2.001  14.746  19.414  0.00  0.00    +0.000 HD
BRANCH  24  35
ATOM     30  C   UNL     1      -2.730  18.340  25.121  0.00  0.00    +0.000 C 
ATOM     31  C   UNL     1      -3.584  17.342  24.397  0.00  0.00    +0.000 A 
ATOM     32  C   UNL     1      -4.854  17.024  24.883  0.00  0.00    +0.000 A 
ATOM     33  C   UNL     1      -5.651  16.103  24.208  0.00  0.00    +0.000 A 
ATOM     34  C   UNL     1      -5.187  15.506  23.037  0.00  0.00    +0.000 A 
ATOM     35  C   UNL     1      -3.928  15.822  22.516  0.00  0.00    +0.000 A 
ATOM     36  C   UNL     1      -3.120  16.726  23.217  0.00  0.00    +0.000 A 
ENDBRANCH  24  35
ENDBRANCH   1  27
TORSDOF 5
ENDMDL
MODEL 9
REMARK VINA RESULT:      -7.4      2.389      3.016
REMARK  Name = 
REMARK  6 active torsions:
REMARK  status: ('A' for Active; 'I' for Inactive)
REMARK    1  A    between atoms: C_1  and  C_2
REMARK    2  A    between atoms: C_6  and  N_7
REMARK    3  A    between atoms: N_10  and  C_11
REMARK    4  A    between atoms: C_14  and  C_15
REMARK    5  A    between atoms: C_19  and  C_20
REMARK    6  A    between atoms: C_28  and  N_29
REMARK                            x       y       z     vdW  Elec       q    Type
REMARK                         _______ _______ _______ _____ _____    ______ ____
ROOT
ATOM      1  C   UNL     1      -0.313  10.233  21.566  0.00  0.00    +0.000 A 
ATOM      2  C   UNL     1       0.553   9.387  22.267  0.00  0.00    +0.000 A 
ATOM      3  C   UNL     1       1.396   8.509  21.578  0.00  0.00    +0.000 A 
ATOM      4  C   UNL     1       1.393   8.484  20.182  0.00  0.00    +0.000 A 
ATOM      5  C   UNL     1       0.546   9.352  19.481  0.00  0.00    +0.000 A 
ATOM      6  C   UNL     1      -0.322  10.205  20.171  0.00  0.00    +0.000 A 
ENDROOT
BRANCH   4   7
ATOM      7  C   UNL     1       2.225   7.524  19.451  0.00  0.00    +0.000 A 
ATOM      8  C   UNL     1       2.924   7.918  18.192  0.00  0.00    +0.000 A 
ATOM      9  N   UNL     1       3.668   7.160  17.444  0.00  0.00    +0.000 NA
ATOM     10  C   UNL     1       3.819   5.866  17.866  0.00  0.00    +0.000 A 
ATOM     11  C   UNL     1       4.518   4.791  17.348  0.00  0.00    +0.000 A 
ATOM     12  C   UNL     1       4.251   3.727  18.228  0.00  0.00    +0.000 A 
ATOM     13  N   UNL     1       3.453   4.069  19.240  0.00  0.00    +0.000 NA
ATOM     14  N   UNL     1       3.210   5.400  19.039  0.00  0.00    +0.000 N 
ATOM     15  C   UNL     1       2.413   6.246  19.852  0.00  0.00    +0.000 A 
BRANCH  11  16
ATOM     16  C   UNL     1       5.359   4.736  16.148  0.00  0.00    +0.000 A 
ATOM     17  C   UNL     1       5.061   3.930  15.004  0.00  0.00    +0.000 A 
ATOM     18  C   UNL     1       6.022   4.037  14.021  0.00  0.00    +0.000 A 
ATOM     19  S   UNL     1       7.272   5.117  14.458  0.00  0.00    +0.000 S 
ATOM     20  C   UNL     1       6.535   5.437  15.968  0.00  0.00    +0.000 A 
ENDBRANCH  11  16
BRANCH  15  21
ATOM     21  N   UNL     1       1.864   5.681  21.007  0.00  0.00    +0.000 N 
ATOM     22  H   UNL     1       2.580   5.225  21.578  0.00  0.00    +0.000 HD
ATOM     23  H   UNL     1       1.033   5.120  20.849  0.00  0.00    +0.000 HD
ENDBRANCH  15  21
ENDBRANCH   4   7
BRANCH   1  27
ATOM     24  N   UNL     1      -1.788  13.124  23.181  0.00  0.00    +0.000 N 
ATOM     25  C   UNL     1      -0.816  12.427  22.493  0.00  0.00    +0.000 C 
ATOM     26  O   UNL     1       0.260  12.891  22.125  0.00  0.00    +0.000 OA
ATOM     27  N   UNL     1      -1.190  11.116  22.240  0.00  0.00    +0.000 N 
ATOM     28  H   UNL     1      -2.415  12.567  23.743  0.00  0.00    +0.000 HD
ATOM     29  H   UNL     1      -2.178  11.002  22.055  0.00  0.00    +0.000 HD
BRANCH  24  35
ATOM     30  C   UNL     1      -2.639  17.757  21.648  0.00  0.00    +0.000 C 
ATOM     31  C   UNL     1      -2.154  16.803  22.699  0.00  0.00    +0.000 A 
ATOM     32  C   UNL     1      -1.706  17.286  23.930  0.00  0.00    +0.000 A 
ATOM     33  C   UNL     1      -1.262  16.401  24.909  0.00  0.00    +0.000 A 
ATOM     34  C   UNL     1      -1.275  15.029  24.666  0.00  0.00    +0.000 A 
ATOM     35  C   UNL     1      -1.739  14.516  23.450  0.00  0.00    +0.000 A 
ATOM     36  C   UNL     1      -2.155  15.415  22.458  0.00  0.00    +0.000 A 
ENDBRANCH  24  35
ENDBRANCH   1  27
TORSDOF 5
ENDMDL
