MODEL 1
REMARK VINA RESULT:      -7.5      0.000      0.000
REMARK  Name = 
REMARK  5 active torsions:
REMARK  status: ('A' for Active; 'I' for Inactive)
REMARK    1  A    between atoms: C_3  and  C_4
REMARK    2  A    between atoms: C_5  and  C_6
REMARK    3  A    between atoms: N_10  and  C_11
REMARK    4  A    between atoms: C_12  and  C_13
REMARK    5  A    between atoms: C_17  and  N_18
REMARK                            x       y       z     vdW  Elec       q    Type
REMARK                         _______ _______ _______ _____ _____    ______ ____
ROOT
ATOM      1  C   UNL     1       3.119   3.278  16.506  0.00  0.00    +0.000 C 
ATOM      2  C   UNL     1       4.042   4.081  17.041  0.00  0.00    +0.000 C 
ATOM      3  C   UNL     1       5.100   4.806  16.366  0.00  0.00    +0.000 C 
ATOM      4  C   UNL     1       5.258   4.909  14.883  0.00  0.00    +0.000 C 
ATOM      5  C   UNL     1       5.883   5.419  17.272  0.00  0.00    +0.000 C 
ATOM      6  C   UNL     1       5.325   5.137  18.611  0.00  0.00    +0.000 C 
ATOM      7  O   UNL     1       5.781   5.536  19.667  0.00  0.00    +0.000 OA
ATOM      8  N   UNL     1       4.194   4.344  18.386  0.00  0.00    +0.000 N 
ENDROOT
BRANCH   8   9
ATOM      9  C   UNL     1       3.290   4.072  19.441  0.00  0.00    +0.000 A 
ATOM     10  C   UNL     1       2.337   5.038  19.820  0.00  0.00    +0.000 A 
ATOM     11  C   UNL     1       2.253   6.406  19.199  0.00  0.00    +0.000 C 
ATOM     12  C   UNL     1       1.427   4.737  20.853  0.00  0.00    +0.000 A 
ATOM     13  C   UNL     1       1.439   3.499  21.497  0.00  0.00    +0.000 A 
ATOM     14  C   UNL     1       2.374   2.538  21.129  0.00  0.00    +0.000 A 
ATOM     15  C   UNL     1       3.291   2.832  20.110  0.00  0.00    +0.000 A 
BRANCH  15  16
ATOM     16  N   UNL     1       4.270   1.806  19.791  0.00  0.00    +0.000 N 
ATOM     17  O   UNL     1       4.042   1.060  18.831  0.00  0.00    +0.000 OA
ATOM     18  O   UNL     1       5.270   1.743  20.521  0.00  0.00    +0.000 OA
ENDBRANCH  15  16
ENDBRANCH   8   9
BRANCH   5  19
ATOM     19  C   UNL     1       7.006   6.236  17.039  0.00  0.00    +0.000 C 
ATOM     20  N   UNL     1       7.895   6.946  16.815  0.00  0.00    +0.000 NA
ENDBRANCH   5  19
TORSDOF 3
ENDMDL
MODEL 2
REMARK VINA RESULT:      -7.4      1.521      2.308
REMARK  Name = 
REMARK  5 active torsions:
REMARK  status: ('A' for Active; 'I' for Inactive)
REMARK    1  A    between atoms: C_3  and  C_4
REMARK    2  A    between atoms: C_5  and  C_6
REMARK    3  A    between atoms: N_10  and  C_11
REMARK    4  A    between atoms: C_12  and  C_13
REMARK    5  A    between atoms: C_17  and  N_18
REMARK                            x       y       z     vdW  Elec       q    Type
REMARK                         _______ _______ _______ _____ _____    ______ ____
ROOT
ATOM      1  C   UNL     1       6.167   5.235  19.555  0.00  0.00    +0.000 C 
ATOM      2  C   UNL     1       5.629   4.785  18.418  0.00  0.00    +0.000 C 
ATOM      3  C   UNL     1       6.266   4.626  17.126  0.00  0.00    +0.000 C 
ATOM      4  C   UNL     1       7.728   4.798  16.864  0.00  0.00    +0.000 C 
ATOM      5  C   UNL     1       5.356   4.243  16.212  0.00  0.00    +0.000 C 
ATOM      6  C   UNL     1       4.059   4.099  16.906  0.00  0.00    +0.000 C 
ATOM      7  O   UNL     1       3.011   3.764  16.385  0.00  0.00    +0.000 OA
ATOM      8  N   UNL     1       4.311   4.416  18.244  0.00  0.00    +0.000 N 
ENDROOT
BRANCH   8   9
ATOM      9  C   UNL     1       3.332   4.169  19.236  0.00  0.00    +0.000 A 
ATOM     10  C   UNL     1       2.435   5.188  19.612  0.00  0.00    +0.000 A 
ATOM     11  C   UNL     1       2.490   6.585  19.056  0.00  0.00    +0.000 C 
ATOM     12  C   UNL     1       1.449   4.912  20.581  0.00  0.00    +0.000 A 
ATOM     13  C   UNL     1       1.332   3.649  21.163  0.00  0.00    +0.000 A 
ATOM     14  C   UNL     1       2.211   2.635  20.797  0.00  0.00    +0.000 A 
ATOM     15  C   UNL     1       3.203   2.903  19.842  0.00  0.00    +0.000 A 
BRANCH  15  16
ATOM     16  N   UNL     1       4.117   1.819  19.524  0.00  0.00    +0.000 N 
ATOM     17  O   UNL     1       3.840   1.084  18.567  0.00  0.00    +0.000 OA
ATOM     18  O   UNL     1       5.113   1.699  20.250  0.00  0.00    +0.000 OA
ENDBRANCH  15  16
ENDBRANCH   8   9
BRANCH   5  19
ATOM     19  C   UNL     1       5.559   3.964  14.847  0.00  0.00    +0.000 C 
ATOM     20  N   UNL     1       5.783   3.757  13.729  0.00  0.00    +0.000 NA
ENDBRANCH   5  19
TORSDOF 3
ENDMDL
MODEL 3
REMARK VINA RESULT:      -6.9      1.565      5.381
REMARK  Name = 
REMARK  5 active torsions:
REMARK  status: ('A' for Active; 'I' for Inactive)
REMARK    1  A    between atoms: C_3  and  C_4
REMARK    2  A    between atoms: C_5  and  C_6
REMARK    3  A    between atoms: N_10  and  C_11
REMARK    4  A    between atoms: C_12  and  C_13
REMARK    5  A    between atoms: C_17  and  N_18
REMARK                            x       y       z     vdW  Elec       q    Type
REMARK                         _______ _______ _______ _____ _____    ______ ____
ROOT
ATOM      1  C   UNL     1       3.502   7.046  18.281  0.00  0.00    +0.000 C 
ATOM      2  C   UNL     1       3.485   5.872  18.919  0.00  0.00    +0.000 C 
ATOM      3  C   UNL     1       2.626   5.455  20.007  0.00  0.00    +0.000 C 
ATOM      4  C   UNL     1       1.461   6.235  20.528  0.00  0.00    +0.000 C 
ATOM      5  C   UNL     1       2.995   4.236  20.440  0.00  0.00    +0.000 C 
ATOM      6  C   UNL     1       4.123   3.785  19.598  0.00  0.00    +0.000 C 
ATOM      7  O   UNL     1       4.708   2.724  19.708  0.00  0.00    +0.000 OA
ATOM      8  N   UNL     1       4.343   4.818  18.681  0.00  0.00    +0.000 N 
ENDROOT
BRANCH   8   9
ATOM      9  C   UNL     1       5.211   4.625  17.579  0.00  0.00    +0.000 A 
ATOM     10  C   UNL     1       4.741   3.989  16.414  0.00  0.00    +0.000 A 
ATOM     11  C   UNL     1       3.351   3.430  16.279  0.00  0.00    +0.000 C 
ATOM     12  C   UNL     1       5.614   3.832  15.318  0.00  0.00    +0.000 A 
ATOM     13  C   UNL     1       6.926   4.306  15.357  0.00  0.00    +0.000 A 
ATOM     14  C   UNL     1       7.399   4.937  16.502  0.00  0.00    +0.000 A 
ATOM     15  C   UNL     1       6.542   5.088  17.602  0.00  0.00    +0.000 A 
BRANCH  15  16
ATOM     16  N   UNL     1       7.099   5.721  18.786  0.00  0.00    +0.000 N 
ATOM     17  O   UNL     1       7.075   5.090  19.850  0.00  0.00    +0.000 OA
ATOM     18  O   UNL     1       7.549   6.867  18.646  0.00  0.00    +0.000 OA
ENDBRANCH  15  16
ENDBRANCH   8   9
BRANCH   5  19
ATOM     19  C   UNL     1       2.415   3.465  21.465  0.00  0.00    +0.000 C 
ATOM     20  N   UNL     1       1.886   2.827  22.277  0.00  0.00    +0.000 NA
ENDBRANCH   5  19
TORSDOF 3
ENDMDL
MODEL 4
REMARK VINA RESULT:      -6.9      1.621      2.730
REMARK  Name = 
REMARK  5 active torsions:
REMARK  status: ('A' for Active; 'I' for Inactive)
REMARK    1  A    between atoms: C_3  and  C_4
REMARK    2  A    between atoms: C_5  and  C_6
REMARK    3  A    between atoms: N_10  and  C_11
REMARK    4  A    between atoms: C_12  and  C_13
REMARK    5  A    between atoms: C_17  and  N_18
REMARK                            x       y       z     vdW  Elec       q    Type
REMARK                         _______ _______ _______ _____ _____    ______ ____
ROOT
ATOM      1  C   UNL     1       3.521   2.659  16.715  0.00  0.00    +0.000 C 
ATOM      2  C   UNL     1       4.322   3.623  17.180  0.00  0.00    +0.000 C 
ATOM      3  C   UNL     1       5.312   4.392  16.456  0.00  0.00    +0.000 C 
ATOM      4  C   UNL     1       5.517   4.350  14.975  0.00  0.00    +0.000 C 
ATOM      5  C   UNL     1       5.981   5.192  17.306  0.00  0.00    +0.000 C 
ATOM      6  C   UNL     1       5.406   4.993  18.653  0.00  0.00    +0.000 C 
ATOM      7  O   UNL     1       5.768   5.558  19.668  0.00  0.00    +0.000 OA
ATOM      8  N   UNL     1       4.387   4.049  18.490  0.00  0.00    +0.000 N 
ENDROOT
BRANCH   8   9
ATOM      9  C   UNL     1       3.479   3.786  19.544  0.00  0.00    +0.000 A 
ATOM     10  C   UNL     1       3.676   2.674  20.386  0.00  0.00    +0.000 A 
ATOM     11  C   UNL     1       4.790   1.681  20.196  0.00  0.00    +0.000 C 
ATOM     12  C   UNL     1       2.777   2.447  21.447  0.00  0.00    +0.000 A 
ATOM     13  C   UNL     1       1.705   3.308  21.691  0.00  0.00    +0.000 A 
ATOM     14  C   UNL     1       1.502   4.409  20.867  0.00  0.00    +0.000 A 
ATOM     15  C   UNL     1       2.385   4.638  19.802  0.00  0.00    +0.000 A 
BRANCH  15  16
ATOM     16  N   UNL     1       2.105   5.782  18.950  0.00  0.00    +0.000 N 
ATOM     17  O   UNL     1       2.404   6.907  19.368  0.00  0.00    +0.000 OA
ATOM     18  O   UNL     1       1.567   5.546  17.859  0.00  0.00    +0.000 OA
ENDBRANCH  15  16
ENDBRANCH   8   9
BRANCH   5  19
ATOM     19  C   UNL     1       7.008   6.108  17.012  0.00  0.00    +0.000 C 
ATOM     20  N   UNL     1       7.815   6.894  16.734  0.00  0.00    +0.000 NA
ENDBRANCH   5  19
TORSDOF 3
ENDMDL
MODEL 5
REMARK VINA RESULT:      -6.3      2.215      3.555
REMARK  Name = 
REMARK  5 active torsions:
REMARK  status: ('A' for Active; 'I' for Inactive)
REMARK    1  A    between atoms: C_3  and  C_4
REMARK    2  A    between atoms: C_5  and  C_6
REMARK    3  A    between atoms: N_10  and  C_11
REMARK    4  A    between atoms: C_12  and  C_13
REMARK    5  A    between atoms: C_17  and  N_18
REMARK                            x       y       z     vdW  Elec       q    Type
REMARK                         _______ _______ _______ _____ _____    ______ ____
ROOT
ATOM      1  C   UNL     1       5.854   5.120  19.584  0.00  0.00    +0.000 C 
ATOM      2  C   UNL     1       5.430   4.677  18.397  0.00  0.00    +0.000 C 
ATOM      3  C   UNL     1       6.173   4.584  17.158  0.00  0.00    +0.000 C 
ATOM      4  C   UNL     1       7.641   4.832  17.017  0.00  0.00    +0.000 C 
ATOM      5  C   UNL     1       5.358   4.185  16.165  0.00  0.00    +0.000 C 
ATOM      6  C   UNL     1       4.019   3.962  16.749  0.00  0.00    +0.000 C 
ATOM      7  O   UNL     1       3.032   3.594  16.138  0.00  0.00    +0.000 OA
ATOM      8  N   UNL     1       4.149   4.254  18.111  0.00  0.00    +0.000 N 
ENDROOT
BRANCH   8   9
ATOM      9  C   UNL     1       3.108   3.933  19.015  0.00  0.00    +0.000 A 
ATOM     10  C   UNL     1       2.931   2.603  19.444  0.00  0.00    +0.000 A 
ATOM     11  C   UNL     1       3.763   1.454  18.944  0.00  0.00    +0.000 C 
ATOM     12  C   UNL     1       1.906   2.310  20.366  0.00  0.00    +0.000 A 
ATOM     13  C   UNL     1       1.075   3.310  20.875  0.00  0.00    +0.000 A 
ATOM     14  C   UNL     1       1.243   4.626  20.458  0.00  0.00    +0.000 A 
ATOM     15  C   UNL     1       2.252   4.926  19.533  0.00  0.00    +0.000 A 
BRANCH  15  16
ATOM     16  N   UNL     1       2.360   6.310  19.104  0.00  0.00    +0.000 N 
ATOM     17  O   UNL     1       2.189   6.564  17.905  0.00  0.00    +0.000 OA
ATOM     18  O   UNL     1       2.632   7.146  19.978  0.00  0.00    +0.000 OA
ENDBRANCH  15  16
ENDBRANCH   8   9
BRANCH   5  19
ATOM     19  C   UNL     1       5.681   3.954  14.814  0.00  0.00    +0.000 C 
ATOM     20  N   UNL     1       6.001   3.792  13.712  0.00  0.00    +0.000 NA
ENDBRANCH   5  19
TORSDOF 3
ENDMDL
MODEL 6
REMARK VINA RESULT:      -6.3      1.049      1.065
REMARK  Name = 
REMARK  5 active torsions:
REMARK  status: ('A' for Active; 'I' for Inactive)
REMARK    1  A    between atoms: C_3  and  C_4
REMARK    2  A    between atoms: C_5  and  C_6
REMARK    3  A    between atoms: N_10  and  C_11
REMARK    4  A    between atoms: C_12  and  C_13
REMARK    5  A    between atoms: C_17  and  N_18
REMARK                            x       y       z     vdW  Elec       q    Type
REMARK                         _______ _______ _______ _____ _____    ______ ____
ROOT
ATOM      1  C   UNL     1       4.402   3.293  16.065  0.00  0.00    +0.000 C 
ATOM      2  C   UNL     1       4.954   4.142  16.937  0.00  0.00    +0.000 C 
ATOM      3  C   UNL     1       6.121   4.981  16.755  0.00  0.00    +0.000 C 
ATOM      4  C   UNL     1       6.850   5.167  15.464  0.00  0.00    +0.000 C 
ATOM      5  C   UNL     1       6.414   5.611  17.907  0.00  0.00    +0.000 C 
ATOM      6  C   UNL     1       5.393   5.221  18.903  0.00  0.00    +0.000 C 
ATOM      7  O   UNL     1       5.348   5.604  20.057  0.00  0.00    +0.000 OA
ATOM      8  N   UNL     1       4.527   4.351  18.232  0.00  0.00    +0.000 N 
ENDROOT
BRANCH   8   9
ATOM      9  C   UNL     1       3.305   3.957  18.827  0.00  0.00    +0.000 A 
ATOM     10  C   UNL     1       2.202   4.834  18.820  0.00  0.00    +0.000 A 
ATOM     11  C   UNL     1       2.256   6.227  18.257  0.00  0.00    +0.000 C 
ATOM     12  C   UNL     1       0.986   4.411  19.393  0.00  0.00    +0.000 A 
ATOM     13  C   UNL     1       0.846   3.140  19.953  0.00  0.00    +0.000 A 
ATOM     14  C   UNL     1       1.928   2.267  19.964  0.00  0.00    +0.000 A 
ATOM     15  C   UNL     1       3.146   2.682  19.405  0.00  0.00    +0.000 A 
BRANCH  15  16
ATOM     16  N   UNL     1       4.254   1.744  19.476  0.00  0.00    +0.000 N 
ATOM     17  O   UNL     1       4.310   0.842  18.631  0.00  0.00    +0.000 OA
ATOM     18  O   UNL     1       5.066   1.909  20.398  0.00  0.00    +0.000 OA
ENDBRANCH  15  16
ENDBRANCH   8   9
BRANCH   5  19
ATOM     19  C   UNL     1       7.455   6.525  18.157  0.00  0.00    +0.000 C 
ATOM     20  N   UNL     1       8.320   7.252  18.417  0.00  0.00    +0.000 NA
ENDBRANCH   5  19
TORSDOF 3
ENDMDL
MODEL 7
REMARK VINA RESULT:      -5.6      1.794      2.947
REMARK  Name = 
REMARK  5 active torsions:
REMARK  status: ('A' for Active; 'I' for Inactive)
REMARK    1  A    between atoms: C_3  and  C_4
REMARK    2  A    between atoms: C_5  and  C_6
REMARK    3  A    between atoms: N_10  and  C_11
REMARK    4  A    between atoms: C_12  and  C_13
REMARK    5  A    between atoms: C_17  and  N_18
REMARK                            x       y       z     vdW  Elec       q    Type
REMARK                         _______ _______ _______ _____ _____    ______ ____
ROOT
ATOM      1  C   UNL     1       4.080   3.751  15.894  0.00  0.00    +0.000 C 
ATOM      2  C   UNL     1       4.744   4.404  16.851  0.00  0.00    +0.000 C 
ATOM      3  C   UNL     1       5.927   5.230  16.717  0.00  0.00    +0.000 C 
ATOM      4  C   UNL     1       6.548   5.636  15.419  0.00  0.00    +0.000 C 
ATOM      5  C   UNL     1       6.348   5.625  17.933  0.00  0.00    +0.000 C 
ATOM      6  C   UNL     1       5.403   5.082  18.931  0.00  0.00    +0.000 C 
ATOM      7  O   UNL     1       5.476   5.243  20.136  0.00  0.00    +0.000 OA
ATOM      8  N   UNL     1       4.443   4.378  18.197  0.00  0.00    +0.000 N 
ENDROOT
BRANCH   8   9
ATOM      9  C   UNL     1       3.262   3.913  18.822  0.00  0.00    +0.000 A 
ATOM     10  C   UNL     1       3.101   2.541  19.095  0.00  0.00    +0.000 A 
ATOM     11  C   UNL     1       4.108   1.495  18.699  0.00  0.00    +0.000 C 
ATOM     12  C   UNL     1       1.930   2.102  19.745  0.00  0.00    +0.000 A 
ATOM     13  C   UNL     1       0.935   2.998  20.137  0.00  0.00    +0.000 A 
ATOM     14  C   UNL     1       1.084   4.355  19.874  0.00  0.00    +0.000 A 
ATOM     15  C   UNL     1       2.241   4.801  19.218  0.00  0.00    +0.000 A 
BRANCH  15  16
ATOM     16  N   UNL     1       2.329   6.223  18.935  0.00  0.00    +0.000 N 
ATOM     17  O   UNL     1       2.553   6.993  19.878  0.00  0.00    +0.000 OA
ATOM     18  O   UNL     1       2.157   6.570  17.758  0.00  0.00    +0.000 OA
ENDBRANCH  15  16
ENDBRANCH   8   9
BRANCH   5  19
ATOM     19  C   UNL     1       7.447   6.447  18.247  0.00  0.00    +0.000 C 
ATOM     20  N   UNL     1       8.345   7.107  18.565  0.00  0.00    +0.000 NA
ENDBRANCH   5  19
TORSDOF 3
ENDMDL
MODEL 8
REMARK VINA RESULT:      -5.5      1.865      5.248
REMARK  Name = 
REMARK  5 active torsions:
REMARK  status: ('A' for Active; 'I' for Inactive)
REMARK    1  A    between atoms: C_3  and  C_4
REMARK    2  A    between atoms: C_5  and  C_6
REMARK    3  A    between atoms: N_10  and  C_11
REMARK    4  A    between atoms: C_12  and  C_13
REMARK    5  A    between atoms: C_17  and  N_18
REMARK                            x       y       z     vdW  Elec       q    Type
REMARK                         _______ _______ _______ _____ _____    ______ ____
ROOT
ATOM      1  C   UNL     1       3.340   6.828  18.777  0.00  0.00    +0.000 C 
ATOM      2  C   UNL     1       3.252   5.624  19.350  0.00  0.00    +0.000 C 
ATOM      3  C   UNL     1       2.329   5.185  20.376  0.00  0.00    +0.000 C 
ATOM      4  C   UNL     1       1.170   5.980  20.884  0.00  0.00    +0.000 C 
ATOM      5  C   UNL     1       2.635   3.932  20.759  0.00  0.00    +0.000 C 
ATOM      6  C   UNL     1       3.783   3.483  19.945  0.00  0.00    +0.000 C 
ATOM      7  O   UNL     1       4.325   2.395  20.024  0.00  0.00    +0.000 OA
ATOM      8  N   UNL     1       4.082   4.552  19.095  0.00  0.00    +0.000 N 
ENDROOT
BRANCH   8   9
ATOM      9  C   UNL     1       4.993   4.384  18.025  0.00  0.00    +0.000 A 
ATOM     10  C   UNL     1       6.298   4.907  18.119  0.00  0.00    +0.000 A 
ATOM     11  C   UNL     1       6.784   5.710  19.294  0.00  0.00    +0.000 C 
ATOM     12  C   UNL     1       7.198   4.703  17.054  0.00  0.00    +0.000 A 
ATOM     13  C   UNL     1       6.831   3.982  15.917  0.00  0.00    +0.000 A 
ATOM     14  C   UNL     1       5.546   3.460  15.814  0.00  0.00    +0.000 A 
ATOM     15  C   UNL     1       4.639   3.666  16.864  0.00  0.00    +0.000 A 
BRANCH  15  16
ATOM     16  N   UNL     1       3.299   3.132  16.689  0.00  0.00    +0.000 N 
ATOM     17  O   UNL     1       2.416   3.894  16.276  0.00  0.00    +0.000 OA
ATOM     18  O   UNL     1       3.132   1.940  16.983  0.00  0.00    +0.000 OA
ENDBRANCH  15  16
ENDBRANCH   8   9
BRANCH   5  19
ATOM     19  C   UNL     1       1.980   3.131  21.715  0.00  0.00    +0.000 C 
ATOM     20  N   UNL     1       1.433   2.430  22.459  0.00  0.00    +0.000 NA
ENDBRANCH   5  19
TORSDOF 3
ENDMDL
MODEL 9
REMARK VINA RESULT:      -5.5      1.922      5.190
REMARK  Name = 
REMARK  5 active torsions:
REMARK  status: ('A' for Active; 'I' for Inactive)
REMARK    1  A    between atoms: C_3  and  C_4
REMARK    2  A    between atoms: C_5  and  C_6
REMARK    3  A    between atoms: N_10  and  C_11
REMARK    4  A    between atoms: C_12  and  C_13
REMARK    5  A    between atoms: C_17  and  N_18
REMARK                            x       y       z     vdW  Elec       q    Type
REMARK                         _______ _______ _______ _____ _____    ______ ____
ROOT
ATOM      1  C   UNL     1       4.025   2.656  19.466  0.00  0.00    +0.000 C 
ATOM      2  C   UNL     1       3.719   3.954  19.393  0.00  0.00    +0.000 C 
ATOM      3  C   UNL     1       2.894   4.733  20.293  0.00  0.00    +0.000 C 
ATOM      4  C   UNL     1       2.344   4.242  21.594  0.00  0.00    +0.000 C 
ATOM      5  C   UNL     1       2.746   5.982  19.813  0.00  0.00    +0.000 C 
ATOM      6  C   UNL     1       3.524   6.073  18.559  0.00  0.00    +0.000 C 
ATOM      7  O   UNL     1       3.617   7.062  17.855  0.00  0.00    +0.000 OA
ATOM      8  N   UNL     1       4.108   4.814  18.387  0.00  0.00    +0.000 N 
ENDROOT
BRANCH   8   9
ATOM      9  C   UNL     1       5.101   4.615  17.398  0.00  0.00    +0.000 A 
ATOM     10  C   UNL     1       4.769   3.988  16.180  0.00  0.00    +0.000 A 
ATOM     11  C   UNL     1       3.399   3.444  15.876  0.00  0.00    +0.000 C 
ATOM     12  C   UNL     1       5.765   3.825  15.198  0.00  0.00    +0.000 A 
ATOM     13  C   UNL     1       7.068   4.284  15.397  0.00  0.00    +0.000 A 
ATOM     14  C   UNL     1       7.406   4.906  16.594  0.00  0.00    +0.000 A 
ATOM     15  C   UNL     1       6.424   5.064  17.583  0.00  0.00    +0.000 A 
BRANCH  15  16
ATOM     16  N   UNL     1       6.840   5.686  18.828  0.00  0.00    +0.000 N 
ATOM     17  O   UNL     1       6.724   5.034  19.874  0.00  0.00    +0.000 OA
ATOM     18  O   UNL     1       7.272   6.845  18.756  0.00  0.00    +0.000 OA
ENDBRANCH  15  16
ENDBRANCH   8   9
BRANCH   5  19
ATOM     19  C   UNL     1       2.038   7.055  20.385  0.00  0.00    +0.000 C 
ATOM     20  N   UNL     1       1.492   7.977  20.829  0.00  0.00    +0.000 NA
ENDBRANCH   5  19
TORSDOF 3
ENDMDL
