MODEL 1
REMARK VINA RESULT:      -8.0      0.000      0.000
REMARK  Name = 
REMARK  5 active torsions:
REMARK  status: ('A' for Active; 'I' for Inactive)
REMARK    1  A    between atoms: C_1  and  C_2
REMARK    2  A    between atoms: N_4  and  C_5
REMARK    3  A    between atoms: C_9  and  C_10
REMARK    4  A    between atoms: C_14  and  C_15
REMARK    5  A    between atoms: C_15  and  O_17
REMARK                            x       y       z     vdW  Elec       q    Type
REMARK                         _______ _______ _______ _____ _____    ______ ____
ROOT
ATOM      1  C   UNL     1       6.420   6.063  16.596  0.00  0.00    +0.000 A 
ATOM      2  C   UNL     1       6.859   5.222  15.575  0.00  0.00    +0.000 A 
ATOM      3  C   UNL     1       6.249   3.991  15.364  0.00  0.00    +0.000 A 
ATOM      4  C   UNL     1       5.182   3.596  16.167  0.00  0.00    +0.000 A 
ATOM      5  C   UNL     1       4.687   4.422  17.194  0.00  0.00    +0.000 A 
ATOM      6  C   UNL     1       5.354   5.647  17.414  0.00  0.00    +0.000 A 
ENDROOT
BRANCH   5   7
ATOM      7  C   UNL     1       3.483   4.021  17.966  0.00  0.00    +0.000 A 
ATOM      8  C   UNL     1       2.179   4.191  17.467  0.00  0.00    +0.000 A 
ATOM      9  C   UNL     1       1.057   3.814  18.215  0.00  0.00    +0.000 A 
ATOM     10  C   UNL     1       1.213   3.259  19.484  0.00  0.00    +0.000 A 
ATOM     11  C   UNL     1       2.494   3.067  20.002  0.00  0.00    +0.000 A 
ATOM     12  C   UNL     1       3.613   3.448  19.251  0.00  0.00    +0.000 A 
BRANCH  11  13
ATOM     13  C   UNL     1       2.618   2.521  21.378  0.00  0.00    +0.000 C 
ATOM     14  O   UNL     1       3.655   2.045  21.802  0.00  0.00    +0.000 OA
BRANCH  13  15
ATOM     15  O   UNL     1       1.496   2.613  22.124  0.00  0.00    +0.000 OA
ATOM     16  H   UNL     1       1.366   1.900  22.776  0.00  0.00    +0.000 HD
ENDBRANCH  13  15
ENDBRANCH  11  13
ENDBRANCH   5   7
BRANCH   1  20
ATOM     17  C   UNL     1       8.219   9.093  17.952  0.00  0.00    +0.000 C 
ATOM     18  C   UNL     1       7.828   7.639  17.920  0.00  0.00    +0.000 C 
ATOM     19  O   UNL     1       8.236   6.867  18.782  0.00  0.00    +0.000 OA
ATOM     20  N   UNL     1       7.006   7.325  16.847  0.00  0.00    +0.000 N 
ATOM     21  H   UNL     1       6.900   8.028  16.127  0.00  0.00    +0.000 HD
ENDBRANCH   1  20
TORSDOF 4
ENDMDL
MODEL 2
REMARK VINA RESULT:      -7.9      4.001      7.182
REMARK  Name = 
REMARK  5 active torsions:
REMARK  status: ('A' for Active; 'I' for Inactive)
REMARK    1  A    between atoms: C_1  and  C_2
REMARK    2  A    between atoms: N_4  and  C_5
REMARK    3  A    between atoms: C_9  and  C_10
REMARK    4  A    between atoms: C_14  and  C_15
REMARK    5  A    between atoms: C_15  and  O_17
REMARK                            x       y       z     vdW  Elec       q    Type
REMARK                         _______ _______ _______ _____ _____    ______ ____
ROOT
ATOM      1  C   UNL     1       3.905   4.634  17.776  0.00  0.00    +0.000 A 
ATOM      2  C   UNL     1       3.887   5.986  18.114  0.00  0.00    +0.000 A 
ATOM      3  C   UNL     1       4.566   6.917  17.338  0.00  0.00    +0.000 A 
ATOM      4  C   UNL     1       5.260   6.503  16.203  0.00  0.00    +0.000 A 
ATOM      5  C   UNL     1       5.286   5.153  15.806  0.00  0.00    +0.000 A 
ATOM      6  C   UNL     1       4.624   4.224  16.639  0.00  0.00    +0.000 A 
ENDROOT
BRANCH   5   7
ATOM      7  C   UNL     1       5.946   4.755  14.537  0.00  0.00    +0.000 A 
ATOM      8  C   UNL     1       7.177   5.298  14.128  0.00  0.00    +0.000 A 
ATOM      9  C   UNL     1       7.779   4.915  12.922  0.00  0.00    +0.000 A 
ATOM     10  C   UNL     1       7.159   3.980  12.095  0.00  0.00    +0.000 A 
ATOM     11  C   UNL     1       5.944   3.414  12.479  0.00  0.00    +0.000 A 
ATOM     12  C   UNL     1       5.345   3.802  13.684  0.00  0.00    +0.000 A 
BRANCH  11  13
ATOM     13  C   UNL     1       5.291   2.460  11.547  0.00  0.00    +0.000 C 
ATOM     14  O   UNL     1       4.229   2.699  11.002  0.00  0.00    +0.000 OA
BRANCH  13  15
ATOM     15  O   UNL     1       5.978   1.317  11.337  0.00  0.00    +0.000 OA
ATOM     16  H   UNL     1       6.830   1.247  11.805  0.00  0.00    +0.000 HD
ENDBRANCH  13  15
ENDBRANCH  11  13
ENDBRANCH   5   7
BRANCH   1  20
ATOM     17  C   UNL     1       1.455   2.250  19.378  0.00  0.00    +0.000 C 
ATOM     18  C   UNL     1       1.908   3.257  18.354  0.00  0.00    +0.000 C 
ATOM     19  O   UNL     1       1.141   3.640  17.478  0.00  0.00    +0.000 OA
ATOM     20  N   UNL     1       3.226   3.651  18.533  0.00  0.00    +0.000 N 
ATOM     21  H   UNL     1       3.781   3.118  19.189  0.00  0.00    +0.000 HD
ENDBRANCH   1  20
TORSDOF 4
ENDMDL
MODEL 3
REMARK VINA RESULT:      -7.9      1.012      1.090
REMARK  Name = 
REMARK  5 active torsions:
REMARK  status: ('A' for Active; 'I' for Inactive)
REMARK    1  A    between atoms: C_1  and  C_2
REMARK    2  A    between atoms: N_4  and  C_5
REMARK    3  A    between atoms: C_9  and  C_10
REMARK    4  A    between atoms: C_14  and  C_15
REMARK    5  A    between atoms: C_15  and  O_17
REMARK                            x       y       z     vdW  Elec       q    Type
REMARK                         _______ _______ _______ _____ _____    ______ ____
ROOT
ATOM      1  C   UNL     1       6.520   5.997  16.456  0.00  0.00    +0.000 A 
ATOM      2  C   UNL     1       6.947   5.257  15.355  0.00  0.00    +0.000 A 
ATOM      3  C   UNL     1       6.394   4.012  15.084  0.00  0.00    +0.000 A 
ATOM      4  C   UNL     1       5.393   3.501  15.907  0.00  0.00    +0.000 A 
ATOM      5  C   UNL     1       4.911   4.222  17.016  0.00  0.00    +0.000 A 
ATOM      6  C   UNL     1       5.523   5.464  17.293  0.00  0.00    +0.000 A 
ENDROOT
BRANCH   5   7
ATOM      7  C   UNL     1       3.773   3.700  17.815  0.00  0.00    +0.000 A 
ATOM      8  C   UNL     1       2.830   2.803  17.282  0.00  0.00    +0.000 A 
ATOM      9  C   UNL     1       1.759   2.329  18.051  0.00  0.00    +0.000 A 
ATOM     10  C   UNL     1       1.606   2.744  19.372  0.00  0.00    +0.000 A 
ATOM     11  C   UNL     1       2.531   3.623  19.933  0.00  0.00    +0.000 A 
ATOM     12  C   UNL     1       3.599   4.097  19.160  0.00  0.00    +0.000 A 
BRANCH  11  13
ATOM     13  C   UNL     1       2.305   4.082  21.327  0.00  0.00    +0.000 C 
ATOM     14  O   UNL     1       2.152   3.308  22.254  0.00  0.00    +0.000 OA
BRANCH  13  15
ATOM     15  O   UNL     1       2.305   5.423  21.486  0.00  0.00    +0.000 OA
ATOM     16  H   UNL     1       3.115   5.880  21.198  0.00  0.00    +0.000 HD
ENDBRANCH  13  15
ENDBRANCH  11  13
ENDBRANCH   5   7
BRANCH   1  20
ATOM     17  C   UNL     1       8.143   9.045  17.984  0.00  0.00    +0.000 C 
ATOM     18  C   UNL     1       7.801   7.581  17.895  0.00  0.00    +0.000 C 
ATOM     19  O   UNL     1       8.185   6.800  18.759  0.00  0.00    +0.000 OA
ATOM     20  N   UNL     1       7.050   7.270  16.770  0.00  0.00    +0.000 N 
ATOM     21  H   UNL     1       6.962   7.988  16.062  0.00  0.00    +0.000 HD
ENDBRANCH   1  20
TORSDOF 4
ENDMDL
MODEL 4
REMARK VINA RESULT:      -7.8      2.121      3.006
REMARK  Name = 
REMARK  5 active torsions:
REMARK  status: ('A' for Active; 'I' for Inactive)
REMARK    1  A    between atoms: C_1  and  C_2
REMARK    2  A    between atoms: N_4  and  C_5
REMARK    3  A    between atoms: C_9  and  C_10
REMARK    4  A    between atoms: C_14  and  C_15
REMARK    5  A    between atoms: C_15  and  O_17
REMARK                            x       y       z     vdW  Elec       q    Type
REMARK                         _______ _______ _______ _____ _____    ______ ____
ROOT
ATOM      1  C   UNL     1       6.236   4.066  15.611  0.00  0.00    +0.000 A 
ATOM      2  C   UNL     1       7.267   4.567  16.404  0.00  0.00    +0.000 A 
ATOM      3  C   UNL     1       7.046   4.868  17.743  0.00  0.00    +0.000 A 
ATOM      4  C   UNL     1       5.788   4.657  18.305  0.00  0.00    +0.000 A 
ATOM      5  C   UNL     1       4.723   4.130  17.551  0.00  0.00    +0.000 A 
ATOM      6  C   UNL     1       4.965   3.874  16.183  0.00  0.00    +0.000 A 
ENDROOT
BRANCH   5   7
ATOM      7  C   UNL     1       3.425   3.818  18.201  0.00  0.00    +0.000 A 
ATOM      8  C   UNL     1       2.194   3.997  17.544  0.00  0.00    +0.000 A 
ATOM      9  C   UNL     1       0.979   3.704  18.178  0.00  0.00    +0.000 A 
ATOM     10  C   UNL     1       0.969   3.227  19.488  0.00  0.00    +0.000 A 
ATOM     11  C   UNL     1       2.174   3.029  20.162  0.00  0.00    +0.000 A 
ATOM     12  C   UNL     1       3.385   3.325  19.524  0.00  0.00    +0.000 A 
BRANCH  11  13
ATOM     13  C   UNL     1       2.119   2.569  21.573  0.00  0.00    +0.000 C 
ATOM     14  O   UNL     1       3.101   2.166  22.169  0.00  0.00    +0.000 OA
BRANCH  13  15
ATOM     15  O   UNL     1       0.899   2.652  22.146  0.00  0.00    +0.000 OA
ATOM     16  H   UNL     1       0.710   3.488  22.611  0.00  0.00    +0.000 HD
ENDBRANCH  13  15
ENDBRANCH  11  13
ENDBRANCH   5   7
BRANCH   1  20
ATOM     17  C   UNL     1       7.029   3.932  11.922  0.00  0.00    +0.000 C 
ATOM     18  C   UNL     1       7.091   4.511  13.311  0.00  0.00    +0.000 C 
ATOM     19  O   UNL     1       7.701   5.554  13.523  0.00  0.00    +0.000 OA
ATOM     20  N   UNL     1       6.414   3.741  14.246  0.00  0.00    +0.000 N 
ATOM     21  H   UNL     1       6.112   2.821  13.954  0.00  0.00    +0.000 HD
ENDBRANCH   1  20
TORSDOF 4
ENDMDL
MODEL 5
REMARK VINA RESULT:      -7.8      3.870      6.941
REMARK  Name = 
REMARK  5 active torsions:
REMARK  status: ('A' for Active; 'I' for Inactive)
REMARK    1  A    between atoms: C_1  and  C_2
REMARK    2  A    between atoms: N_4  and  C_5
REMARK    3  A    between atoms: C_9  and  C_10
REMARK    4  A    between atoms: C_14  and  C_15
REMARK    5  A    between atoms: C_15  and  O_17
REMARK                            x       y       z     vdW  Elec       q    Type
REMARK                         _______ _______ _______ _____ _____    ______ ____
ROOT
ATOM      1  C   UNL     1       5.191   4.611  18.203  0.00  0.00    +0.000 A 
ATOM      2  C   UNL     1       4.595   5.860  18.360  0.00  0.00    +0.000 A 
ATOM      3  C   UNL     1       4.577   6.771  17.311  0.00  0.00    +0.000 A 
ATOM      4  C   UNL     1       5.146   6.432  16.085  0.00  0.00    +0.000 A 
ATOM      5  C   UNL     1       5.737   5.173  15.870  0.00  0.00    +0.000 A 
ATOM      6  C   UNL     1       5.780   4.285  16.968  0.00  0.00    +0.000 A 
ENDROOT
BRANCH   5   7
ATOM      7  C   UNL     1       6.242   4.800  14.525  0.00  0.00    +0.000 A 
ATOM      8  C   UNL     1       7.397   5.379  13.969  0.00  0.00    +0.000 A 
ATOM      9  C   UNL     1       7.853   5.019  12.694  0.00  0.00    +0.000 A 
ATOM     10  C   UNL     1       7.160   4.070  11.943  0.00  0.00    +0.000 A 
ATOM     11  C   UNL     1       6.018   3.470  12.472  0.00  0.00    +0.000 A 
ATOM     12  C   UNL     1       5.565   3.835  13.746  0.00  0.00    +0.000 A 
BRANCH  11  13
ATOM     13  C   UNL     1       5.279   2.502  11.621  0.00  0.00    +0.000 C 
ATOM     14  O   UNL     1       4.207   2.767  11.108  0.00  0.00    +0.000 OA
BRANCH  13  15
ATOM     15  O   UNL     1       5.900   1.316  11.447  0.00  0.00    +0.000 OA
ATOM     16  H   UNL     1       6.108   0.827  12.263  0.00  0.00    +0.000 HD
ENDBRANCH  13  15
ENDBRANCH  11  13
ENDBRANCH   5   7
BRANCH   1  20
ATOM     17  C   UNL     1       4.582   1.830  20.683  0.00  0.00    +0.000 C 
ATOM     18  C   UNL     1       4.308   2.633  19.439  0.00  0.00    +0.000 C 
ATOM     19  O   UNL     1       3.355   2.357  18.719  0.00  0.00    +0.000 OA
ATOM     20  N   UNL     1       5.231   3.650  19.240  0.00  0.00    +0.000 N 
ATOM     21  H   UNL     1       6.058   3.642  19.822  0.00  0.00    +0.000 HD
ENDBRANCH   1  20
TORSDOF 4
ENDMDL
MODEL 6
REMARK VINA RESULT:      -7.7      3.828      7.006
REMARK  Name = 
REMARK  5 active torsions:
REMARK  status: ('A' for Active; 'I' for Inactive)
REMARK    1  A    between atoms: C_1  and  C_2
REMARK    2  A    between atoms: N_4  and  C_5
REMARK    3  A    between atoms: C_9  and  C_10
REMARK    4  A    between atoms: C_14  and  C_15
REMARK    5  A    between atoms: C_15  and  O_17
REMARK                            x       y       z     vdW  Elec       q    Type
REMARK                         _______ _______ _______ _____ _____    ______ ____
ROOT
ATOM      1  C   UNL     1       4.609   4.545  18.050  0.00  0.00    +0.000 A 
ATOM      2  C   UNL     1       5.623   4.954  18.914  0.00  0.00    +0.000 A 
ATOM      3  C   UNL     1       6.915   5.151  18.443  0.00  0.00    +0.000 A 
ATOM      4  C   UNL     1       7.202   4.955  17.094  0.00  0.00    +0.000 A 
ATOM      5  C   UNL     1       6.206   4.567  16.178  0.00  0.00    +0.000 A 
ATOM      6  C   UNL     1       4.912   4.331  16.693  0.00  0.00    +0.000 A 
ENDROOT
BRANCH   5   7
ATOM      7  C   UNL     1       6.516   4.466  14.729  0.00  0.00    +0.000 A 
ATOM      8  C   UNL     1       7.509   5.252  14.117  0.00  0.00    +0.000 A 
ATOM      9  C   UNL     1       7.780   5.146  12.746  0.00  0.00    +0.000 A 
ATOM     10  C   UNL     1       7.061   4.252  11.955  0.00  0.00    +0.000 A 
ATOM     11  C   UNL     1       6.078   3.451  12.536  0.00  0.00    +0.000 A 
ATOM     12  C   UNL     1       5.809   3.561  13.906  0.00  0.00    +0.000 A 
BRANCH  11  13
ATOM     13  C   UNL     1       5.299   2.547  11.651  0.00  0.00    +0.000 C 
ATOM     14  O   UNL     1       4.242   2.877  11.146  0.00  0.00    +0.000 OA
BRANCH  13  15
ATOM     15  O   UNL     1       5.867   1.341  11.435  0.00  0.00    +0.000 OA
ATOM     16  H   UNL     1       5.246   0.603  11.296  0.00  0.00    +0.000 HD
ENDBRANCH  13  15
ENDBRANCH  11  13
ENDBRANCH   5   7
BRANCH   1  20
ATOM     17  C   UNL     1       1.255   3.210  19.156  0.00  0.00    +0.000 C 
ATOM     18  C   UNL     1       2.720   3.111  18.820  0.00  0.00    +0.000 C 
ATOM     19  O   UNL     1       3.297   2.030  18.869  0.00  0.00    +0.000 OA
ATOM     20  N   UNL     1       3.279   4.335  18.482  0.00  0.00    +0.000 N 
ATOM     21  H   UNL     1       2.721   5.161  18.657  0.00  0.00    +0.000 HD
ENDBRANCH   1  20
TORSDOF 4
ENDMDL
MODEL 7
REMARK VINA RESULT:      -7.6      2.348      3.362
REMARK  Name = 
REMARK  5 active torsions:
REMARK  status: ('A' for Active; 'I' for Inactive)
REMARK    1  A    between atoms: C_1  and  C_2
REMARK    2  A    between atoms: N_4  and  C_5
REMARK    3  A    between atoms: C_9  and  C_10
REMARK    4  A    between atoms: C_14  and  C_15
REMARK    5  A    between atoms: C_15  and  O_17
REMARK                            x       y       z     vdW  Elec       q    Type
REMARK                         _______ _______ _______ _____ _____    ______ ____
ROOT
ATOM      1  C   UNL     1       6.318   4.225  16.179  0.00  0.00    +0.000 A 
ATOM      2  C   UNL     1       7.538   4.548  16.772  0.00  0.00    +0.000 A 
ATOM      3  C   UNL     1       7.580   5.073  18.058  0.00  0.00    +0.000 A 
ATOM      4  C   UNL     1       6.398   5.267  18.770  0.00  0.00    +0.000 A 
ATOM      5  C   UNL     1       5.145   4.932  18.223  0.00  0.00    +0.000 A 
ATOM      6  C   UNL     1       5.129   4.442  16.898  0.00  0.00    +0.000 A 
ENDROOT
BRANCH   5   7
ATOM      7  C   UNL     1       3.912   5.051  19.042  0.00  0.00    +0.000 A 
ATOM      8  C   UNL     1       3.312   6.292  19.319  0.00  0.00    +0.000 A 
ATOM      9  C   UNL     1       2.153   6.383  20.101  0.00  0.00    +0.000 A 
ATOM     10  C   UNL     1       1.568   5.232  20.626  0.00  0.00    +0.000 A 
ATOM     11  C   UNL     1       2.133   3.986  20.359  0.00  0.00    +0.000 A 
ATOM     12  C   UNL     1       3.293   3.900  19.579  0.00  0.00    +0.000 A 
BRANCH  11  13
ATOM     13  C   UNL     1       1.511   2.788  20.979  0.00  0.00    +0.000 C 
ATOM     14  O   UNL     1       1.367   2.673  22.182  0.00  0.00    +0.000 OA
BRANCH  13  15
ATOM     15  O   UNL     1       1.100   1.848  20.101  0.00  0.00    +0.000 OA
ATOM     16  H   UNL     1       1.777   1.202  19.830  0.00  0.00    +0.000 HD
ENDBRANCH  13  15
ENDBRANCH  11  13
ENDBRANCH   5   7
BRANCH   1  20
ATOM     17  C   UNL     1       6.355   3.498  12.474  0.00  0.00    +0.000 C 
ATOM     18  C   UNL     1       6.682   4.289  13.713  0.00  0.00    +0.000 C 
ATOM     19  O   UNL     1       7.299   5.347  13.629  0.00  0.00    +0.000 OA
ATOM     20  N   UNL     1       6.225   3.685  14.875  0.00  0.00    +0.000 N 
ATOM     21  H   UNL     1       5.891   2.733  14.799  0.00  0.00    +0.000 HD
ENDBRANCH   1  20
TORSDOF 4
ENDMDL
MODEL 8
REMARK VINA RESULT:      -7.6      3.908      6.860
REMARK  Name = 
REMARK  5 active torsions:
REMARK  status: ('A' for Active; 'I' for Inactive)
REMARK    1  A    between atoms: C_1  and  C_2
REMARK    2  A    between atoms: N_4  and  C_5
REMARK    3  A    between atoms: C_9  and  C_10
REMARK    4  A    between atoms: C_14  and  C_15
REMARK    5  A    between atoms: C_15  and  O_17
REMARK                            x       y       z     vdW  Elec       q    Type
REMARK                         _______ _______ _______ _____ _____    ______ ____
ROOT
ATOM      1  C   UNL     1       4.834   4.405  18.176  0.00  0.00    +0.000 A 
ATOM      2  C   UNL     1       5.806   4.983  18.991  0.00  0.00    +0.000 A 
ATOM      3  C   UNL     1       7.038   5.355  18.465  0.00  0.00    +0.000 A 
ATOM      4  C   UNL     1       7.303   5.163  17.111  0.00  0.00    +0.000 A 
ATOM      5  C   UNL     1       6.345   4.607  16.243  0.00  0.00    +0.000 A 
ATOM      6  C   UNL     1       5.119   4.198  16.814  0.00  0.00    +0.000 A 
ENDROOT
BRANCH   5   7
ATOM      7  C   UNL     1       6.616   4.510  14.787  0.00  0.00    +0.000 A 
ATOM      8  C   UNL     1       7.607   5.283  14.154  0.00  0.00    +0.000 A 
ATOM      9  C   UNL     1       7.841   5.182  12.777  0.00  0.00    +0.000 A 
ATOM     10  C   UNL     1       7.086   4.306  11.999  0.00  0.00    +0.000 A 
ATOM     11  C   UNL     1       6.105   3.518  12.599  0.00  0.00    +0.000 A 
ATOM     12  C   UNL     1       5.872   3.623  13.976  0.00  0.00    +0.000 A 
BRANCH  11  13
ATOM     13  C   UNL     1       5.288   2.634  11.728  0.00  0.00    +0.000 C 
ATOM     14  O   UNL     1       4.228   2.989  11.246  0.00  0.00    +0.000 OA
BRANCH  13  15
ATOM     15  O   UNL     1       5.825   1.417  11.498  0.00  0.00    +0.000 OA
ATOM     16  H   UNL     1       6.521   1.387  10.816  0.00  0.00    +0.000 HD
ENDBRANCH  13  15
ENDBRANCH  11  13
ENDBRANCH   5   7
BRANCH   1  20
ATOM     17  C   UNL     1       1.378   4.134  19.670  0.00  0.00    +0.000 C 
ATOM     18  C   UNL     1       2.583   4.867  19.142  0.00  0.00    +0.000 C 
ATOM     19  O   UNL     1       2.620   6.093  19.158  0.00  0.00    +0.000 OA
ATOM     20  N   UNL     1       3.566   4.013  18.663  0.00  0.00    +0.000 N 
ATOM     21  H   UNL     1       3.317   3.039  18.556  0.00  0.00    +0.000 HD
ENDBRANCH   1  20
TORSDOF 4
ENDMDL
MODEL 9
REMARK VINA RESULT:      -7.6      3.798      6.894
REMARK  Name = 
REMARK  5 active torsions:
REMARK  status: ('A' for Active; 'I' for Inactive)
REMARK    1  A    between atoms: C_1  and  C_2
REMARK    2  A    between atoms: N_4  and  C_5
REMARK    3  A    between atoms: C_9  and  C_10
REMARK    4  A    between atoms: C_14  and  C_15
REMARK    5  A    between atoms: C_15  and  O_17
REMARK                            x       y       z     vdW  Elec       q    Type
REMARK                         _______ _______ _______ _____ _____    ______ ____
ROOT
ATOM      1  C   UNL     1       5.882   4.412  18.261  0.00  0.00    +0.000 A 
ATOM      2  C   UNL     1       6.402   5.587  18.800  0.00  0.00    +0.000 A 
ATOM      3  C   UNL     1       7.118   6.473  18.004  0.00  0.00    +0.000 A 
ATOM      4  C   UNL     1       7.308   6.195  16.652  0.00  0.00    +0.000 A 
ATOM      5  C   UNL     1       6.780   5.034  16.056  0.00  0.00    +0.000 A 
ATOM      6  C   UNL     1       6.095   4.131  16.899  0.00  0.00    +0.000 A 
ENDROOT
BRANCH   5   7
ATOM      7  C   UNL     1       6.908   4.815  14.593  0.00  0.00    +0.000 A 
ATOM      8  C   UNL     1       7.831   5.527  13.805  0.00  0.00    +0.000 A 
ATOM      9  C   UNL     1       7.930   5.311  12.425  0.00  0.00    +0.000 A 
ATOM     10  C   UNL     1       7.105   4.377  11.799  0.00  0.00    +0.000 A 
ATOM     11  C   UNL     1       6.189   3.648  12.555  0.00  0.00    +0.000 A 
ATOM     12  C   UNL     1       6.091   3.869  13.935  0.00  0.00    +0.000 A 
BRANCH  11  13
ATOM     13  C   UNL     1       5.292   2.701  11.845  0.00  0.00    +0.000 C 
ATOM     14  O   UNL     1       4.173   3.008  11.478  0.00  0.00    +0.000 OA
BRANCH  13  15
ATOM     15  O   UNL     1       5.825   1.480  11.621  0.00  0.00    +0.000 OA
ATOM     16  H   UNL     1       5.359   0.933  10.963  0.00  0.00    +0.000 HD
ENDBRANCH  13  15
ENDBRANCH  11  13
ENDBRANCH   5   7
BRANCH   1  20
ATOM     17  C   UNL     1       3.346   2.498  20.302  0.00  0.00    +0.000 C 
ATOM     18  C   UNL     1       3.817   3.619  19.412  0.00  0.00    +0.000 C 
ATOM     19  O   UNL     1       3.050   4.521  19.092  0.00  0.00    +0.000 OA
ATOM     20  N   UNL     1       5.144   3.483  19.031  0.00  0.00    +0.000 N 
ATOM     21  H   UNL     1       5.592   2.598  19.230  0.00  0.00    +0.000 HD
ENDBRANCH   1  20
TORSDOF 4
ENDMDL
