MODEL 1
REMARK VINA RESULT:      -6.3      0.000      0.000
REMARK  Name = 
REMARK  9 active torsions:
REMARK  status: ('A' for Active; 'I' for Inactive)
REMARK    1  A    between atoms: C_1  and  O_2
REMARK    2  A    between atoms: O_2  and  C_3
REMARK    3  A    between atoms: C_3  and  C_4
REMARK    4  A    between atoms: C_4  and  N_5
REMARK    5  A    between atoms: N_5  and  S_6
REMARK    6  A    between atoms: S_6  and  C_9
REMARK    7  A    between atoms: C_11  and  C_12
REMARK    8  A    between atoms: C_13  and  C_14
REMARK    9  A    between atoms: C_16  and  C_17
REMARK                            x       y       z     vdW  Elec       q    Type
REMARK                         _______ _______ _______ _____ _____    ______ ____
ROOT
ATOM      1  S   UNL     1       5.611   6.362  16.576  0.00  0.00    +0.000 S 
ATOM      2  O   UNL     1       6.221   7.261  17.514  0.00  0.00    +0.000 OA
ATOM      3  O   UNL     1       5.156   6.833  15.277  0.00  0.00    +0.000 OA
ENDROOT
BRANCH   1   4
ATOM      4  C   UNL     1       4.253   5.500  17.357  0.00  0.00    +0.000 A 
ATOM      5  C   UNL     1       4.350   4.098  17.425  0.00  0.00    +0.000 A 
ATOM      6  C   UNL     1       3.341   3.327  18.023  0.00  0.00    +0.000 A 
ATOM      7  C   UNL     1       3.484   1.831  18.046  0.00  0.00    +0.000 C 
ATOM      8  C   UNL     1       2.224   3.976  18.574  0.00  0.00    +0.000 A 
ATOM      9  C   UNL     1       1.092   3.239  19.239  0.00  0.00    +0.000 C 
ATOM     10  C   UNL     1       2.142   5.379  18.507  0.00  0.00    +0.000 A 
ATOM     11  C   UNL     1       3.143   6.161  17.905  0.00  0.00    +0.000 A 
ATOM     12  C   UNL     1       2.952   7.651  17.863  0.00  0.00    +0.000 C 
ENDBRANCH   1   4
BRANCH   1  13
ATOM     13  N   UNL     1       6.735   5.117  16.264  0.00  0.00    +0.000 NA
ATOM     14  H   UNL     1       7.599   5.337  16.760  0.00  0.00    +0.000 HD
BRANCH  13  15
ATOM     15  C   UNL     1       6.948   4.869  14.820  0.00  0.00    +0.000 C 
BRANCH  15  16
ATOM     16  C   UNL     1       6.213   3.619  14.355  0.00  0.00    +0.000 C 
BRANCH  16  18
ATOM     17  C   UNL     1       5.754   3.180  12.081  0.00  0.00    +0.000 C 
ATOM     18  O   UNL     1       5.422   3.965  13.217  0.00  0.00    +0.000 OA
ENDBRANCH  16  18
ENDBRANCH  15  16
ENDBRANCH  13  15
ENDBRANCH   1  13
TORSDOF 5
ENDMDL
MODEL 2
REMARK VINA RESULT:      -6.2      1.990      2.443
REMARK  Name = 
REMARK  9 active torsions:
REMARK  status: ('A' for Active; 'I' for Inactive)
REMARK    1  A    between atoms: C_1  and  O_2
REMARK    2  A    between atoms: O_2  and  C_3
REMARK    3  A    between atoms: C_3  and  C_4
REMARK    4  A    between atoms: C_4  and  N_5
REMARK    5  A    between atoms: N_5  and  S_6
REMARK    6  A    between atoms: S_6  and  C_9
REMARK    7  A    between atoms: C_11  and  C_12
REMARK    8  A    between atoms: C_13  and  C_14
REMARK    9  A    between atoms: C_16  and  C_17
REMARK                            x       y       z     vdW  Elec       q    Type
REMARK                         _______ _______ _______ _____ _____    ______ ____
ROOT
ATOM      1  S   UNL     1       6.645   4.716  15.809  0.00  0.00    +0.000 S 
ATOM      2  O   UNL     1       7.942   4.314  16.273  0.00  0.00    +0.000 OA
ATOM      3  O   UNL     1       6.473   5.931  15.027  0.00  0.00    +0.000 OA
ENDROOT
BRANCH   1   4
ATOM      4  C   UNL     1       5.501   4.777  17.182  0.00  0.00    +0.000 A 
ATOM      5  C   UNL     1       4.206   4.278  16.950  0.00  0.00    +0.000 A 
ATOM      6  C   UNL     1       3.235   4.275  17.963  0.00  0.00    +0.000 A 
ATOM      7  C   UNL     1       1.860   3.753  17.653  0.00  0.00    +0.000 C 
ATOM      8  C   UNL     1       3.575   4.767  19.234  0.00  0.00    +0.000 A 
ATOM      9  C   UNL     1       2.605   4.803  20.386  0.00  0.00    +0.000 C 
ATOM     10  C   UNL     1       4.875   5.256  19.456  0.00  0.00    +0.000 A 
ATOM     11  C   UNL     1       5.854   5.270  18.448  0.00  0.00    +0.000 A 
ATOM     12  C   UNL     1       7.207   5.834  18.779  0.00  0.00    +0.000 C 
ENDBRANCH   1   4
BRANCH   1  13
ATOM     13  N   UNL     1       6.034   3.443  14.850  0.00  0.00    +0.000 NA
ATOM     14  H   UNL     1       6.756   2.727  14.774  0.00  0.00    +0.000 HD
BRANCH  13  15
ATOM     15  C   UNL     1       5.528   3.892  13.533  0.00  0.00    +0.000 C 
BRANCH  15  16
ATOM     16  C   UNL     1       6.363   3.328  12.393  0.00  0.00    +0.000 C 
BRANCH  16  18
ATOM     17  C   UNL     1       6.374   1.313  11.162  0.00  0.00    +0.000 C 
ATOM     18  O   UNL     1       5.577   2.356  11.703  0.00  0.00    +0.000 OA
ENDBRANCH  16  18
ENDBRANCH  15  16
ENDBRANCH  13  15
ENDBRANCH   1  13
TORSDOF 5
ENDMDL
MODEL 3
REMARK VINA RESULT:      -6.1      2.754      4.273
REMARK  Name = 
REMARK  9 active torsions:
REMARK  status: ('A' for Active; 'I' for Inactive)
REMARK    1  A    between atoms: C_1  and  O_2
REMARK    2  A    between atoms: O_2  and  C_3
REMARK    3  A    between atoms: C_3  and  C_4
REMARK    4  A    between atoms: C_4  and  N_5
REMARK    5  A    between atoms: N_5  and  S_6
REMARK    6  A    between atoms: S_6  and  C_9
REMARK    7  A    between atoms: C_11  and  C_12
REMARK    8  A    between atoms: C_13  and  C_14
REMARK    9  A    between atoms: C_16  and  C_17
REMARK                            x       y       z     vdW  Elec       q    Type
REMARK                         _______ _______ _______ _____ _____    ______ ____
ROOT
ATOM      1  S   UNL     1       3.422   3.569  17.708  0.00  0.00    +0.000 S 
ATOM      2  O   UNL     1       2.322   2.814  17.181  0.00  0.00    +0.000 OA
ATOM      3  O   UNL     1       4.476   2.921  18.474  0.00  0.00    +0.000 OA
ENDROOT
BRANCH   1   4
ATOM      4  C   UNL     1       2.808   4.945  18.671  0.00  0.00    +0.000 A 
ATOM      5  C   UNL     1       2.849   6.213  18.062  0.00  0.00    +0.000 A 
ATOM      6  C   UNL     1       2.385   7.356  18.729  0.00  0.00    +0.000 A 
ATOM      7  C   UNL     1       2.476   8.690  18.041  0.00  0.00    +0.000 C 
ATOM      8  C   UNL     1       1.858   7.222  20.024  0.00  0.00    +0.000 A 
ATOM      9  C   UNL     1       1.333   8.388  20.821  0.00  0.00    +0.000 C 
ATOM     10  C   UNL     1       1.814   5.949  20.620  0.00  0.00    +0.000 A 
ATOM     11  C   UNL     1       2.281   4.797  19.964  0.00  0.00    +0.000 A 
ATOM     12  C   UNL     1       2.213   3.486  20.695  0.00  0.00    +0.000 C 
ENDBRANCH   1   4
BRANCH   1  13
ATOM     13  N   UNL     1       4.192   4.330  16.389  0.00  0.00    +0.000 NA
ATOM     14  H   UNL     1       3.567   4.284  15.585  0.00  0.00    +0.000 HD
BRANCH  13  15
ATOM     15  C   UNL     1       5.539   3.785  16.103  0.00  0.00    +0.000 C 
BRANCH  15  16
ATOM     16  C   UNL     1       6.584   4.889  16.036  0.00  0.00    +0.000 C 
BRANCH  16  18
ATOM     17  C   UNL     1       7.617   5.050  18.153  0.00  0.00    +0.000 C 
ATOM     18  O   UNL     1       7.695   4.501  16.845  0.00  0.00    +0.000 OA
ENDBRANCH  16  18
ENDBRANCH  15  16
ENDBRANCH  13  15
ENDBRANCH   1  13
TORSDOF 5
ENDMDL
MODEL 4
REMARK VINA RESULT:      -6.1      2.736      4.914
REMARK  Name = 
REMARK  9 active torsions:
REMARK  status: ('A' for Active; 'I' for Inactive)
REMARK    1  A    between atoms: C_1  and  O_2
REMARK    2  A    between atoms: O_2  and  C_3
REMARK    3  A    between atoms: C_3  and  C_4
REMARK    4  A    between atoms: C_4  and  N_5
REMARK    5  A    between atoms: N_5  and  S_6
REMARK    6  A    between atoms: S_6  and  C_9
REMARK    7  A    between atoms: C_11  and  C_12
REMARK    8  A    between atoms: C_13  and  C_14
REMARK    9  A    between atoms: C_16  and  C_17
REMARK                            x       y       z     vdW  Elec       q    Type
REMARK                         _______ _______ _______ _____ _____    ______ ____
ROOT
ATOM      1  S   UNL     1       5.257   4.136  18.108  0.00  0.00    +0.000 S 
ATOM      2  O   UNL     1       6.581   4.466  18.550  0.00  0.00    +0.000 OA
ATOM      3  O   UNL     1       5.036   3.516  16.810  0.00  0.00    +0.000 OA
ENDROOT
BRANCH   1   4
ATOM      4  C   UNL     1       4.202   5.576  18.218  0.00  0.00    +0.000 A 
ATOM      5  C   UNL     1       3.340   5.644  19.328  0.00  0.00    +0.000 A 
ATOM      6  C   UNL     1       2.477   6.735  19.512  0.00  0.00    +0.000 A 
ATOM      7  C   UNL     1       1.558   6.744  20.702  0.00  0.00    +0.000 C 
ATOM      8  C   UNL     1       2.491   7.781  18.574  0.00  0.00    +0.000 A 
ATOM      9  C   UNL     1       1.605   8.993  18.685  0.00  0.00    +0.000 C 
ATOM     10  C   UNL     1       3.363   7.704  17.473  0.00  0.00    +0.000 A 
ATOM     11  C   UNL     1       4.228   6.615  17.275  0.00  0.00    +0.000 A 
ATOM     12  C   UNL     1       5.105   6.616  16.055  0.00  0.00    +0.000 C 
ENDBRANCH   1   4
BRANCH   1  13
ATOM     13  N   UNL     1       4.588   3.073  19.263  0.00  0.00    +0.000 NA
ATOM     14  H   UNL     1       5.347   2.714  19.842  0.00  0.00    +0.000 HD
BRANCH  13  15
ATOM     15  C   UNL     1       3.764   1.999  18.663  0.00  0.00    +0.000 C 
BRANCH  15  16
ATOM     16  C   UNL     1       2.321   2.070  19.142  0.00  0.00    +0.000 C 
BRANCH  16  18
ATOM     17  C   UNL     1       1.171   3.088  20.936  0.00  0.00    +0.000 C 
ATOM     18  O   UNL     1       2.330   2.369  20.538  0.00  0.00    +0.000 OA
ENDBRANCH  16  18
ENDBRANCH  15  16
ENDBRANCH  13  15
ENDBRANCH   1  13
TORSDOF 5
ENDMDL
MODEL 5
REMARK VINA RESULT:      -6.0      2.677      4.108
REMARK  Name = 
REMARK  9 active torsions:
REMARK  status: ('A' for Active; 'I' for Inactive)
REMARK    1  A    between atoms: C_1  and  O_2
REMARK    2  A    between atoms: O_2  and  C_3
REMARK    3  A    between atoms: C_3  and  C_4
REMARK    4  A    between atoms: C_4  and  N_5
REMARK    5  A    between atoms: N_5  and  S_6
REMARK    6  A    between atoms: S_6  and  C_9
REMARK    7  A    between atoms: C_11  and  C_12
REMARK    8  A    between atoms: C_13  and  C_14
REMARK    9  A    between atoms: C_16  and  C_17
REMARK                            x       y       z     vdW  Elec       q    Type
REMARK                         _______ _______ _______ _____ _____    ______ ____
ROOT
ATOM      1  S   UNL     1       3.556   3.671  18.216  0.00  0.00    +0.000 S 
ATOM      2  O   UNL     1       2.525   2.706  17.958  0.00  0.00    +0.000 OA
ATOM      3  O   UNL     1       4.750   3.308  18.963  0.00  0.00    +0.000 OA
ENDROOT
BRANCH   1   4
ATOM      4  C   UNL     1       2.848   5.125  18.980  0.00  0.00    +0.000 A 
ATOM      5  C   UNL     1       2.876   6.313  18.227  0.00  0.00    +0.000 A 
ATOM      6  C   UNL     1       2.342   7.508  18.732  0.00  0.00    +0.000 A 
ATOM      7  C   UNL     1       2.422   8.754  17.894  0.00  0.00    +0.000 C 
ATOM      8  C   UNL     1       1.756   7.506  20.009  0.00  0.00    +0.000 A 
ATOM      9  C   UNL     1       1.154   8.735  20.637  0.00  0.00    +0.000 C 
ATOM     10  C   UNL     1       1.727   6.310  20.749  0.00  0.00    +0.000 A 
ATOM     11  C   UNL     1       2.264   5.108  20.256  0.00  0.00    +0.000 A 
ATOM     12  C   UNL     1       2.204   3.891  21.134  0.00  0.00    +0.000 C 
ENDBRANCH   1   4
BRANCH   1  13
ATOM     13  N   UNL     1       4.097   4.249  16.704  0.00  0.00    +0.000 NA
ATOM     14  H   UNL     1       3.601   3.741  15.973  0.00  0.00    +0.000 HD
BRANCH  13  15
ATOM     15  C   UNL     1       5.568   4.193  16.549  0.00  0.00    +0.000 C 
BRANCH  15  16
ATOM     16  C   UNL     1       6.194   5.575  16.674  0.00  0.00    +0.000 C 
BRANCH  16  18
ATOM     17  C   UNL     1       7.056   4.794  14.619  0.00  0.00    +0.000 C 
ATOM     18  O   UNL     1       7.250   5.674  15.717  0.00  0.00    +0.000 OA
ENDBRANCH  16  18
ENDBRANCH  15  16
ENDBRANCH  13  15
ENDBRANCH   1  13
TORSDOF 5
ENDMDL
MODEL 6
REMARK VINA RESULT:      -6.0      2.886      4.892
REMARK  Name = 
REMARK  9 active torsions:
REMARK  status: ('A' for Active; 'I' for Inactive)
REMARK    1  A    between atoms: C_1  and  O_2
REMARK    2  A    between atoms: O_2  and  C_3
REMARK    3  A    between atoms: C_3  and  C_4
REMARK    4  A    between atoms: C_4  and  N_5
REMARK    5  A    between atoms: N_5  and  S_6
REMARK    6  A    between atoms: S_6  and  C_9
REMARK    7  A    between atoms: C_11  and  C_12
REMARK    8  A    between atoms: C_13  and  C_14
REMARK    9  A    between atoms: C_16  and  C_17
REMARK                            x       y       z     vdW  Elec       q    Type
REMARK                         _______ _______ _______ _____ _____    ______ ____
ROOT
ATOM      1  S   UNL     1       4.959   3.983  18.939  0.00  0.00    +0.000 S 
ATOM      2  O   UNL     1       4.525   3.354  20.154  0.00  0.00    +0.000 OA
ATOM      3  O   UNL     1       6.366   4.279  18.712  0.00  0.00    +0.000 OA
ENDROOT
BRANCH   1   4
ATOM      4  C   UNL     1       4.028   5.485  18.667  0.00  0.00    +0.000 A 
ATOM      5  C   UNL     1       3.157   5.885  19.697  0.00  0.00    +0.000 A 
ATOM      6  C   UNL     1       2.386   7.052  19.585  0.00  0.00    +0.000 A 
ATOM      7  C   UNL     1       1.453   7.419  20.706  0.00  0.00    +0.000 C 
ATOM      8  C   UNL     1       2.503   7.838  18.427  0.00  0.00    +0.000 A 
ATOM      9  C   UNL     1       1.721   9.107  18.214  0.00  0.00    +0.000 C 
ATOM     10  C   UNL     1       3.383   7.432  17.407  0.00  0.00    +0.000 A 
ATOM     11  C   UNL     1       4.157   6.262  17.505  0.00  0.00    +0.000 A 
ATOM     12  C   UNL     1       5.049   5.902  16.352  0.00  0.00    +0.000 C 
ENDBRANCH   1   4
BRANCH   1  13
ATOM     13  N   UNL     1       4.469   2.981  17.648  0.00  0.00    +0.000 NA
ATOM     14  H   UNL     1       4.222   3.578  16.859  0.00  0.00    +0.000 HD
BRANCH  13  15
ATOM     15  C   UNL     1       3.389   2.037  18.017  0.00  0.00    +0.000 C 
BRANCH  15  16
ATOM     16  C   UNL     1       2.014   2.657  17.815  0.00  0.00    +0.000 C 
BRANCH  16  18
ATOM     17  C   UNL     1       1.003   2.887  19.937  0.00  0.00    +0.000 C 
ATOM     18  O   UNL     1       1.122   2.083  18.771  0.00  0.00    +0.000 OA
ENDBRANCH  16  18
ENDBRANCH  15  16
ENDBRANCH  13  15
ENDBRANCH   1  13
TORSDOF 5
ENDMDL
MODEL 7
REMARK VINA RESULT:      -6.0      2.846      4.401
REMARK  Name = 
REMARK  9 active torsions:
REMARK  status: ('A' for Active; 'I' for Inactive)
REMARK    1  A    between atoms: C_1  and  O_2
REMARK    2  A    between atoms: O_2  and  C_3
REMARK    3  A    between atoms: C_3  and  C_4
REMARK    4  A    between atoms: C_4  and  N_5
REMARK    5  A    between atoms: N_5  and  S_6
REMARK    6  A    between atoms: S_6  and  C_9
REMARK    7  A    between atoms: C_11  and  C_12
REMARK    8  A    between atoms: C_13  and  C_14
REMARK    9  A    between atoms: C_16  and  C_17
REMARK                            x       y       z     vdW  Elec       q    Type
REMARK                         _______ _______ _______ _____ _____    ______ ____
ROOT
ATOM      1  S   UNL     1       4.034   3.157  18.680  0.00  0.00    +0.000 S 
ATOM      2  O   UNL     1       3.087   2.241  18.112  0.00  0.00    +0.000 OA
ATOM      3  O   UNL     1       4.960   2.727  19.717  0.00  0.00    +0.000 OA
ENDROOT
BRANCH   1   4
ATOM      4  C   UNL     1       3.187   4.618  19.268  0.00  0.00    +0.000 A 
ATOM      5  C   UNL     1       3.286   5.771  18.469  0.00  0.00    +0.000 A 
ATOM      6  C   UNL     1       2.654   6.969  18.837  0.00  0.00    +0.000 A 
ATOM      7  C   UNL     1       2.814   8.178  17.958  0.00  0.00    +0.000 C 
ATOM      8  C   UNL     1       1.898   7.004  20.020  0.00  0.00    +0.000 A 
ATOM      9  C   UNL     1       1.181   8.239  20.499  0.00  0.00    +0.000 C 
ATOM     10  C   UNL     1       1.800   5.842  20.807  0.00  0.00    +0.000 A 
ATOM     11  C   UNL     1       2.433   4.639  20.452  0.00  0.00    +0.000 A 
ATOM     12  C   UNL     1       2.287   3.460  21.372  0.00  0.00    +0.000 C 
ENDBRANCH   1   4
BRANCH   1  13
ATOM     13  N   UNL     1       4.994   3.751  17.401  0.00  0.00    +0.000 NA
ATOM     14  H   UNL     1       5.135   2.995  16.731  0.00  0.00    +0.000 HD
BRANCH  13  15
ATOM     15  C   UNL     1       6.264   4.361  17.856  0.00  0.00    +0.000 C 
BRANCH  15  16
ATOM     16  C   UNL     1       7.092   4.865  16.683  0.00  0.00    +0.000 C 
BRANCH  16  18
ATOM     17  C   UNL     1       6.694   7.131  17.214  0.00  0.00    +0.000 C 
ATOM     18  O   UNL     1       7.674   6.116  17.053  0.00  0.00    +0.000 OA
ENDBRANCH  16  18
ENDBRANCH  15  16
ENDBRANCH  13  15
ENDBRANCH   1  13
TORSDOF 5
ENDMDL
MODEL 8
REMARK VINA RESULT:      -6.0      2.808      4.298
REMARK  Name = 
REMARK  9 active torsions:
REMARK  status: ('A' for Active; 'I' for Inactive)
REMARK    1  A    between atoms: C_1  and  O_2
REMARK    2  A    between atoms: O_2  and  C_3
REMARK    3  A    between atoms: C_3  and  C_4
REMARK    4  A    between atoms: C_4  and  N_5
REMARK    5  A    between atoms: N_5  and  S_6
REMARK    6  A    between atoms: S_6  and  C_9
REMARK    7  A    between atoms: C_11  and  C_12
REMARK    8  A    between atoms: C_13  and  C_14
REMARK    9  A    between atoms: C_16  and  C_17
REMARK                            x       y       z     vdW  Elec       q    Type
REMARK                         _______ _______ _______ _____ _____    ______ ____
ROOT
ATOM      1  S   UNL     1       6.476   5.025  18.604  0.00  0.00    +0.000 S 
ATOM      2  O   UNL     1       7.411   4.299  17.794  0.00  0.00    +0.000 OA
ATOM      3  O   UNL     1       6.774   5.336  19.994  0.00  0.00    +0.000 OA
ENDROOT
BRANCH   1   4
ATOM      4  C   UNL     1       4.877   4.227  18.549  0.00  0.00    +0.000 A 
ATOM      5  C   UNL     1       4.273   3.932  19.785  0.00  0.00    +0.000 A 
ATOM      6  C   UNL     1       3.016   3.312  19.851  0.00  0.00    +0.000 A 
ATOM      7  C   UNL     1       2.429   2.997  21.199  0.00  0.00    +0.000 C 
ATOM      8  C   UNL     1       2.348   2.997  18.657  0.00  0.00    +0.000 A 
ATOM      9  C   UNL     1       0.996   2.334  18.623  0.00  0.00    +0.000 C 
ATOM     10  C   UNL     1       2.958   3.304  17.427  0.00  0.00    +0.000 A 
ATOM     11  C   UNL     1       4.219   3.919  17.347  0.00  0.00    +0.000 A 
ATOM     12  C   UNL     1       4.795   4.185  15.986  0.00  0.00    +0.000 C 
ENDBRANCH   1   4
BRANCH   1  13
ATOM     13  N   UNL     1       6.192   6.520  17.832  0.00  0.00    +0.000 NA
ATOM     14  H   UNL     1       5.426   6.396  17.171  0.00  0.00    +0.000 HD
BRANCH  13  15
ATOM     15  C   UNL     1       7.405   7.096  17.207  0.00  0.00    +0.000 C 
BRANCH  15  16
ATOM     16  C   UNL     1       8.214   7.910  18.207  0.00  0.00    +0.000 C 
BRANCH  16  18
ATOM     17  C   UNL     1       8.918  10.122  18.643  0.00  0.00    +0.000 C 
ATOM     18  O   UNL     1       8.027   9.294  17.909  0.00  0.00    +0.000 OA
ENDBRANCH  16  18
ENDBRANCH  15  16
ENDBRANCH  13  15
ENDBRANCH   1  13
TORSDOF 5
ENDMDL
MODEL 9
REMARK VINA RESULT:      -6.0      3.120      4.727
REMARK  Name = 
REMARK  9 active torsions:
REMARK  status: ('A' for Active; 'I' for Inactive)
REMARK    1  A    between atoms: C_1  and  O_2
REMARK    2  A    between atoms: O_2  and  C_3
REMARK    3  A    between atoms: C_3  and  C_4
REMARK    4  A    between atoms: C_4  and  N_5
REMARK    5  A    between atoms: N_5  and  S_6
REMARK    6  A    between atoms: S_6  and  C_9
REMARK    7  A    between atoms: C_11  and  C_12
REMARK    8  A    between atoms: C_13  and  C_14
REMARK    9  A    between atoms: C_16  and  C_17
REMARK                            x       y       z     vdW  Elec       q    Type
REMARK                         _______ _______ _______ _____ _____    ______ ____
ROOT
ATOM      1  S   UNL     1       7.467   5.170  18.422  0.00  0.00    +0.000 S 
ATOM      2  O   UNL     1       8.271   4.142  17.826  0.00  0.00    +0.000 OA
ATOM      3  O   UNL     1       7.650   5.550  19.815  0.00  0.00    +0.000 OA
ENDROOT
BRANCH   1   4
ATOM      4  C   UNL     1       5.733   4.807  18.173  0.00  0.00    +0.000 A 
ATOM      5  C   UNL     1       4.872   5.061  19.256  0.00  0.00    +0.000 A 
ATOM      6  C   UNL     1       3.494   4.817  19.162  0.00  0.00    +0.000 A 
ATOM      7  C   UNL     1       2.623   5.083  20.359  0.00  0.00    +0.000 C 
ATOM      8  C   UNL     1       2.970   4.323  17.956  0.00  0.00    +0.000 A 
ATOM      9  C   UNL     1       1.506   4.030  17.756  0.00  0.00    +0.000 C 
ATOM     10  C   UNL     1       3.840   4.080  16.878  0.00  0.00    +0.000 A 
ATOM     11  C   UNL     1       5.224   4.315  16.962  0.00  0.00    +0.000 A 
ATOM     12  C   UNL     1       6.072   4.002  15.762  0.00  0.00    +0.000 C 
ENDBRANCH   1   4
BRANCH   1  13
ATOM     13  N   UNL     1       7.702   6.591  17.507  0.00  0.00    +0.000 NA
ATOM     14  H   UNL     1       8.340   6.374  16.741  0.00  0.00    +0.000 HD
BRANCH  13  15
ATOM     15  C   UNL     1       8.150   7.744  18.320  0.00  0.00    +0.000 C 
BRANCH  15  16
ATOM     16  C   UNL     1       7.999   9.055  17.560  0.00  0.00    +0.000 C 
BRANCH  16  18
ATOM     17  C   UNL     1       9.370   9.991  19.239  0.00  0.00    +0.000 C 
ATOM     18  O   UNL     1       8.174  10.129  18.485  0.00  0.00    +0.000 OA
ENDBRANCH  16  18
ENDBRANCH  15  16
ENDBRANCH  13  15
ENDBRANCH   1  13
TORSDOF 5
ENDMDL
