MODEL 1
REMARK VINA RESULT:      -7.3      0.000      0.000
REMARK  Name = 
REMARK  10 active torsions:
REMARK  status: ('A' for Active; 'I' for Inactive)
REMARK    1  A    between atoms: C_1  and  C_2
REMARK    2  A    between atoms: C_2  and  S_3
REMARK    3  A    between atoms: S_3  and  C_4
REMARK    4  A    between atoms: C_6  and  C_7
REMARK    5  A    between atoms: C_10  and  C_11
REMARK    6  A    between atoms: N_14  and  S_15
REMARK    7  A    between atoms: S_15  and  C_18
REMARK    8  A    between atoms: C_23  and  C_24
REMARK    9  A    between atoms: C_26  and  C_27
REMARK   10  A    between atoms: C_27  and  O_29
REMARK                            x       y       z     vdW  Elec       q    Type
REMARK                         _______ _______ _______ _____ _____    ______ ____
ROOT
ATOM      1  C   UNL     1       6.683   5.567  17.224  0.00  0.00    +0.000 C 
ATOM      2  C   UNL     1       5.569   6.511  17.692  0.00  0.00    +0.000 C 
ATOM      3  C   UNL     1       4.251   5.785  18.069  0.00  0.00    +0.000 C 
ATOM      4  N   UNL     1       3.781   4.853  16.937  0.00  0.00    +0.000 NA
ATOM      5  C   UNL     1       4.899   3.933  16.476  0.00  0.00    +0.000 C 
ATOM      6  C   UNL     1       6.155   4.695  16.087  0.00  0.00    +0.000 C 
ENDROOT
BRANCH   3   7
ATOM      7  C   UNL     1       3.247   6.864  18.432  0.00  0.00    +0.000 A 
ATOM      8  C   UNL     1       2.631   6.897  19.689  0.00  0.00    +0.000 A 
ATOM      9  C   UNL     1       1.737   7.915  20.017  0.00  0.00    +0.000 A 
ATOM     10  C   UNL     1       1.395   8.887  19.075  0.00  0.00    +0.000 A 
ATOM     11  C   UNL     1       0.432   9.981  19.426  0.00  0.00    +0.000 C 
ATOM     12  C   UNL     1       1.956   8.824  17.795  0.00  0.00    +0.000 A 
ATOM     13  C   UNL     1       2.879   7.825  17.478  0.00  0.00    +0.000 A 
ENDBRANCH   3   7
BRANCH   4  14
ATOM     14  S   UNL     1       2.425   3.808  17.465  0.00  0.00    +0.000 S 
ATOM     15  O   UNL     1       1.267   4.665  17.633  0.00  0.00    +0.000 OA
ATOM     16  O   UNL     1       2.364   2.694  16.546  0.00  0.00    +0.000 OA
BRANCH  14  17
ATOM     17  C   UNL     1       2.854   3.208  19.095  0.00  0.00    +0.000 A 
ATOM     18  C   UNL     1       4.071   2.515  19.221  0.00  0.00    +0.000 A 
ATOM     19  C   UNL     1       4.451   1.962  20.443  0.00  0.00    +0.000 A 
ATOM     20  C   UNL     1       3.626   2.100  21.552  0.00  0.00    +0.000 A 
ATOM     21  C   UNL     1       2.409   2.771  21.434  0.00  0.00    +0.000 A 
ATOM     22  C   UNL     1       1.983   3.309  20.202  0.00  0.00    +0.000 A 
ATOM     23  C   UNL     1       0.646   3.994  20.186  0.00  0.00    +0.000 C 
ENDBRANCH  14  17
ENDBRANCH   4  14
BRANCH   6  24
ATOM     24  C   UNL     1       5.962   5.530  14.831  0.00  0.00    +0.000 C 
ATOM     25  O   UNL     1       6.573   5.310  13.794  0.00  0.00    +0.000 OA
BRANCH  24  26
ATOM     26  O   UNL     1       5.131   6.585  14.957  0.00  0.00    +0.000 OA
ATOM     27  H   UNL     1       5.530   7.440  14.674  0.00  0.00    +0.000 HD
ENDBRANCH  24  26
ENDBRANCH   6  24
BRANCH   1  28
ATOM     28  S   UNL     1       7.258   4.626  18.714  0.00  0.00    +0.000 S 
BRANCH  28  30
ATOM     29  C   UNL     1       8.343   7.117  18.800  0.00  0.00    +0.000 C 
ATOM     30  C   UNL     1       8.071   5.921  19.702  0.00  0.00    +0.000 C 
ENDBRANCH  28  30
ENDBRANCH   1  28
TORSDOF 7
ENDMDL
MODEL 2
REMARK VINA RESULT:      -7.2      0.551      1.349
REMARK  Name = 
REMARK  10 active torsions:
REMARK  status: ('A' for Active; 'I' for Inactive)
REMARK    1  A    between atoms: C_1  and  C_2
REMARK    2  A    between atoms: C_2  and  S_3
REMARK    3  A    between atoms: S_3  and  C_4
REMARK    4  A    between atoms: C_6  and  C_7
REMARK    5  A    between atoms: C_10  and  C_11
REMARK    6  A    between atoms: N_14  and  S_15
REMARK    7  A    between atoms: S_15  and  C_18
REMARK    8  A    between atoms: C_23  and  C_24
REMARK    9  A    between atoms: C_26  and  C_27
REMARK   10  A    between atoms: C_27  and  O_29
REMARK                            x       y       z     vdW  Elec       q    Type
REMARK                         _______ _______ _______ _____ _____    ______ ____
ROOT
ATOM      1  C   UNL     1       6.420   5.539  17.595  0.00  0.00    +0.000 C 
ATOM      2  C   UNL     1       5.309   6.531  17.962  0.00  0.00    +0.000 C 
ATOM      3  C   UNL     1       3.930   5.863  18.203  0.00  0.00    +0.000 C 
ATOM      4  N   UNL     1       3.531   4.957  17.024  0.00  0.00    +0.000 NA
ATOM      5  C   UNL     1       4.646   3.990  16.665  0.00  0.00    +0.000 C 
ATOM      6  C   UNL     1       5.967   4.697  16.405  0.00  0.00    +0.000 C 
ENDROOT
BRANCH   3   7
ATOM      7  C   UNL     1       2.945   6.985  18.477  0.00  0.00    +0.000 A 
ATOM      8  C   UNL     1       2.358   7.151  19.737  0.00  0.00    +0.000 A 
ATOM      9  C   UNL     1       1.481   8.207  19.980  0.00  0.00    +0.000 A 
ATOM     10  C   UNL     1       1.127   9.083  18.952  0.00  0.00    +0.000 A 
ATOM     11  C   UNL     1       0.182  10.218  19.211  0.00  0.00    +0.000 C 
ATOM     12  C   UNL     1       1.658   8.885  17.674  0.00  0.00    +0.000 A 
ATOM     13  C   UNL     1       2.564   7.848  17.439  0.00  0.00    +0.000 A 
ENDBRANCH   3   7
BRANCH   4  14
ATOM     14  S   UNL     1       2.085   3.972  17.410  0.00  0.00    +0.000 S 
ATOM     15  O   UNL     1       0.934   4.849  17.312  0.00  0.00    +0.000 OA
ATOM     16  O   UNL     1       2.150   2.782  16.592  0.00  0.00    +0.000 OA
BRANCH  14  17
ATOM     17  C   UNL     1       2.230   3.516  19.134  0.00  0.00    +0.000 A 
ATOM     18  C   UNL     1       1.406   4.196  20.047  0.00  0.00    +0.000 A 
ATOM     19  C   UNL     1       1.500   3.944  21.415  0.00  0.00    +0.000 A 
ATOM     20  C   UNL     1       2.411   3.008  21.885  0.00  0.00    +0.000 A 
ATOM     21  C   UNL     1       3.247   2.339  20.989  0.00  0.00    +0.000 A 
ATOM     22  C   UNL     1       3.197   2.601  19.604  0.00  0.00    +0.000 A 
ATOM     23  C   UNL     1       4.156   1.838  18.735  0.00  0.00    +0.000 C 
ENDBRANCH  14  17
ENDBRANCH   4  14
BRANCH   6  24
ATOM     24  C   UNL     1       5.933   5.544  15.143  0.00  0.00    +0.000 C 
ATOM     25  O   UNL     1       6.658   5.323  14.183  0.00  0.00    +0.000 OA
BRANCH  24  26
ATOM     26  O   UNL     1       5.108   6.611  15.183  0.00  0.00    +0.000 OA
ATOM     27  H   UNL     1       4.324   6.528  14.592  0.00  0.00    +0.000 HD
ENDBRANCH  24  26
ENDBRANCH   6  24
BRANCH   1  28
ATOM     28  S   UNL     1       6.806   4.567  19.126  0.00  0.00    +0.000 S 
BRANCH  28  30
ATOM     29  C   UNL     1       8.352   6.802  19.051  0.00  0.00    +0.000 C 
ATOM     30  C   UNL     1       8.154   5.536  19.872  0.00  0.00    +0.000 C 
ENDBRANCH  28  30
ENDBRANCH   1  28
TORSDOF 7
ENDMDL
MODEL 3
REMARK VINA RESULT:      -7.1      0.159      1.077
REMARK  Name = 
REMARK  10 active torsions:
REMARK  status: ('A' for Active; 'I' for Inactive)
REMARK    1  A    between atoms: C_1  and  C_2
REMARK    2  A    between atoms: C_2  and  S_3
REMARK    3  A    between atoms: S_3  and  C_4
REMARK    4  A    between atoms: C_6  and  C_7
REMARK    5  A    between atoms: C_10  and  C_11
REMARK    6  A    between atoms: N_14  and  S_15
REMARK    7  A    between atoms: S_15  and  C_18
REMARK    8  A    between atoms: C_23  and  C_24
REMARK    9  A    between atoms: C_26  and  C_27
REMARK   10  A    between atoms: C_27  and  O_29
REMARK                            x       y       z     vdW  Elec       q    Type
REMARK                         _______ _______ _______ _____ _____    ______ ____
ROOT
ATOM      1  C   UNL     1       6.606   5.520  17.235  0.00  0.00    +0.000 C 
ATOM      2  C   UNL     1       5.499   6.486  17.676  0.00  0.00    +0.000 C 
ATOM      3  C   UNL     1       4.179   5.780  18.082  0.00  0.00    +0.000 C 
ATOM      4  N   UNL     1       3.700   4.813  16.984  0.00  0.00    +0.000 NA
ATOM      5  C   UNL     1       4.810   3.872  16.549  0.00  0.00    +0.000 C 
ATOM      6  C   UNL     1       6.069   4.614  16.130  0.00  0.00    +0.000 C 
ENDROOT
BRANCH   3   7
ATOM      7  C   UNL     1       3.183   6.876  18.413  0.00  0.00    +0.000 A 
ATOM      8  C   UNL     1       2.839   7.859  17.477  0.00  0.00    +0.000 A 
ATOM      9  C   UNL     1       1.896   8.839  17.787  0.00  0.00    +0.000 A 
ATOM     10  C   UNL     1       1.323   8.891  19.059  0.00  0.00    +0.000 A 
ATOM     11  C   UNL     1       0.311   9.945  19.394  0.00  0.00    +0.000 C 
ATOM     12  C   UNL     1       1.709   7.951  20.020  0.00  0.00    +0.000 A 
ATOM     13  C   UNL     1       2.627   6.949  19.699  0.00  0.00    +0.000 A 
ENDBRANCH   3   7
BRANCH   4  14
ATOM     14  S   UNL     1       2.339   3.794  17.551  0.00  0.00    +0.000 S 
ATOM     15  O   UNL     1       1.203   4.672  17.750  0.00  0.00    +0.000 OA
ATOM     16  O   UNL     1       2.232   2.680  16.636  0.00  0.00    +0.000 OA
BRANCH  14  17
ATOM     17  C   UNL     1       2.803   3.189  19.170  0.00  0.00    +0.000 A 
ATOM     18  C   UNL     1       4.001   2.459  19.259  0.00  0.00    +0.000 A 
ATOM     19  C   UNL     1       4.404   1.900  20.472  0.00  0.00    +0.000 A 
ATOM     20  C   UNL     1       3.621   2.068  21.606  0.00  0.00    +0.000 A 
ATOM     21  C   UNL     1       2.421   2.776  21.524  0.00  0.00    +0.000 A 
ATOM     22  C   UNL     1       1.973   3.321  20.303  0.00  0.00    +0.000 A 
ATOM     23  C   UNL     1       0.657   4.046  20.328  0.00  0.00    +0.000 C 
ENDBRANCH  14  17
ENDBRANCH   4  14
BRANCH   6  24
ATOM     24  C   UNL     1       5.875   5.408  14.847  0.00  0.00    +0.000 C 
ATOM     25  O   UNL     1       5.331   6.504  14.829  0.00  0.00    +0.000 OA
BRANCH  24  26
ATOM     26  O   UNL     1       6.266   4.787  13.716  0.00  0.00    +0.000 OA
ATOM     27  H   UNL     1       6.703   5.385  13.066  0.00  0.00    +0.000 HD
ENDBRANCH  24  26
ENDBRANCH   6  24
BRANCH   1  28
ATOM     28  S   UNL     1       7.182   4.626  18.753  0.00  0.00    +0.000 S 
BRANCH  28  30
ATOM     29  C   UNL     1       8.273   7.115  18.693  0.00  0.00    +0.000 C 
ATOM     30  C   UNL     1       8.179   5.894  19.597  0.00  0.00    +0.000 C 
ENDBRANCH  28  30
ENDBRANCH   1  28
TORSDOF 7
ENDMDL
MODEL 4
REMARK VINA RESULT:      -7.1      6.612     10.581
REMARK  Name = 
REMARK  10 active torsions:
REMARK  status: ('A' for Active; 'I' for Inactive)
REMARK    1  A    between atoms: C_1  and  C_2
REMARK    2  A    between atoms: C_2  and  S_3
REMARK    3  A    between atoms: S_3  and  C_4
REMARK    4  A    between atoms: C_6  and  C_7
REMARK    5  A    between atoms: C_10  and  C_11
REMARK    6  A    between atoms: N_14  and  S_15
REMARK    7  A    between atoms: S_15  and  C_18
REMARK    8  A    between atoms: C_23  and  C_24
REMARK    9  A    between atoms: C_26  and  C_27
REMARK   10  A    between atoms: C_27  and  O_29
REMARK                            x       y       z     vdW  Elec       q    Type
REMARK                         _______ _______ _______ _____ _____    ______ ____
ROOT
ATOM      1  C   UNL     1       0.155  10.225  19.660  0.00  0.00    +0.000 C 
ATOM      2  C   UNL     1       1.223  11.288  19.372  0.00  0.00    +0.000 C 
ATOM      3  C   UNL     1       0.994  12.624  20.126  0.00  0.00    +0.000 C 
ATOM      4  N   UNL     1      -0.432  13.159  19.899  0.00  0.00    +0.000 NA
ATOM      5  C   UNL     1      -1.476  12.091  20.177  0.00  0.00    +0.000 C 
ATOM      6  C   UNL     1      -1.226  10.816  19.389  0.00  0.00    +0.000 C 
ENDROOT
BRANCH   3   7
ATOM      7  C   UNL     1       2.086  13.574  19.670  0.00  0.00    +0.000 A 
ATOM      8  C   UNL     1       2.206  13.962  18.330  0.00  0.00    +0.000 A 
ATOM      9  C   UNL     1       3.194  14.863  17.935  0.00  0.00    +0.000 A 
ATOM     10  C   UNL     1       4.121  15.347  18.862  0.00  0.00    +0.000 A 
ATOM     11  C   UNL     1       5.186  16.313  18.438  0.00  0.00    +0.000 C 
ATOM     12  C   UNL     1       4.048  14.913  20.189  0.00  0.00    +0.000 A 
ATOM     13  C   UNL     1       3.036  14.040  20.593  0.00  0.00    +0.000 A 
ENDBRANCH   3   7
BRANCH   4  14
ATOM     14  S   UNL     1      -0.795  14.543  20.978  0.00  0.00    +0.000 S 
ATOM     15  O   UNL     1      -2.235  14.710  20.987  0.00  0.00    +0.000 OA
ATOM     16  O   UNL     1      -0.094  14.308  22.221  0.00  0.00    +0.000 OA
BRANCH  14  17
ATOM     17  C   UNL     1      -0.119  15.995  20.182  0.00  0.00    +0.000 A 
ATOM     18  C   UNL     1      -0.433  16.183  18.824  0.00  0.00    +0.000 A 
ATOM     19  C   UNL     1       0.103  17.257  18.113  0.00  0.00    +0.000 A 
ATOM     20  C   UNL     1       0.950  18.154  18.749  0.00  0.00    +0.000 A 
ATOM     21  C   UNL     1       1.282  17.967  20.091  0.00  0.00    +0.000 A 
ATOM     22  C   UNL     1       0.782  16.871  20.824  0.00  0.00    +0.000 A 
ATOM     23  C   UNL     1       1.221  16.757  22.257  0.00  0.00    +0.000 C 
ENDBRANCH  14  17
ENDBRANCH   4  14
BRANCH   6  24
ATOM     24  C   UNL     1      -1.431  11.007  17.894  0.00  0.00    +0.000 C 
ATOM     25  O   UNL     1      -1.417  10.074  17.104  0.00  0.00    +0.000 OA
BRANCH  24  26
ATOM     26  O   UNL     1      -1.547  12.287  17.484  0.00  0.00    +0.000 OA
ATOM     27  H   UNL     1      -1.916  12.380  16.575  0.00  0.00    +0.000 HD
ENDBRANCH  24  26
ENDBRANCH   6  24
BRANCH   1  28
ATOM     28  S   UNL     1       0.420   9.650  21.403  0.00  0.00    +0.000 S 
BRANCH  28  30
ATOM     29  C   UNL     1       1.876   7.924  19.890  0.00  0.00    +0.000 C 
ATOM     30  C   UNL     1       1.044   7.957  21.164  0.00  0.00    +0.000 C 
ENDBRANCH  28  30
ENDBRANCH   1  28
TORSDOF 7
ENDMDL
MODEL 5
REMARK VINA RESULT:      -7.0      9.535     12.457
REMARK  Name = 
REMARK  10 active torsions:
REMARK  status: ('A' for Active; 'I' for Inactive)
REMARK    1  A    between atoms: C_1  and  C_2
REMARK    2  A    between atoms: C_2  and  S_3
REMARK    3  A    between atoms: S_3  and  C_4
REMARK    4  A    between atoms: C_6  and  C_7
REMARK    5  A    between atoms: C_10  and  C_11
REMARK    6  A    between atoms: N_14  and  S_15
REMARK    7  A    between atoms: S_15  and  C_18
REMARK    8  A    between atoms: C_23  and  C_24
REMARK    9  A    between atoms: C_26  and  C_27
REMARK   10  A    between atoms: C_27  and  O_29
REMARK                            x       y       z     vdW  Elec       q    Type
REMARK                         _______ _______ _______ _____ _____    ______ ____
ROOT
ATOM      1  C   UNL     1       6.911  13.104  23.592  0.00  0.00    +0.000 C 
ATOM      2  C   UNL     1       7.739  12.650  22.384  0.00  0.00    +0.000 C 
ATOM      3  C   UNL     1       8.879  13.631  22.004  0.00  0.00    +0.000 C 
ATOM      4  N   UNL     1       8.350  15.067  21.836  0.00  0.00    +0.000 NA
ATOM      5  C   UNL     1       7.521  15.497  23.035  0.00  0.00    +0.000 C 
ATOM      6  C   UNL     1       6.398  14.521  23.344  0.00  0.00    +0.000 C 
ENDROOT
BRANCH   3   7
ATOM      7  C   UNL     1       9.539  13.070  20.757  0.00  0.00    +0.000 A 
ATOM      8  C   UNL     1       8.871  13.037  19.528  0.00  0.00    +0.000 A 
ATOM      9  C   UNL     1       9.505  12.550  18.386  0.00  0.00    +0.000 A 
ATOM     10  C   UNL     1      10.799  12.030  18.463  0.00  0.00    +0.000 A 
ATOM     11  C   UNL     1      11.481  11.503  17.236  0.00  0.00    +0.000 C 
ATOM     12  C   UNL     1      11.449  12.000  19.700  0.00  0.00    +0.000 A 
ATOM     13  C   UNL     1      10.828  12.521  20.837  0.00  0.00    +0.000 A 
ENDBRANCH   3   7
BRANCH   4  14
ATOM     14  S   UNL     1       9.689  16.247  21.672  0.00  0.00    +0.000 S 
ATOM     15  O   UNL     1       9.109  17.570  21.792  0.00  0.00    +0.000 OA
ATOM     16  O   UNL     1      10.731  15.837  22.587  0.00  0.00    +0.000 OA
BRANCH  14  17
ATOM     17  C   UNL     1      10.286  16.104  19.992  0.00  0.00    +0.000 A 
ATOM     18  C   UNL     1      11.654  15.829  19.821  0.00  0.00    +0.000 A 
ATOM     19  C   UNL     1      12.212  15.763  18.544  0.00  0.00    +0.000 A 
ATOM     20  C   UNL     1      11.411  15.962  17.428  0.00  0.00    +0.000 A 
ATOM     21  C   UNL     1      10.056  16.252  17.587  0.00  0.00    +0.000 A 
ATOM     22  C   UNL     1       9.473  16.360  18.867  0.00  0.00    +0.000 A 
ATOM     23  C   UNL     1       8.009  16.696  18.920  0.00  0.00    +0.000 C 
ENDBRANCH  14  17
ENDBRANCH   4  14
BRANCH   6  24
ATOM     24  C   UNL     1       5.325  14.511  22.267  0.00  0.00    +0.000 C 
ATOM     25  O   UNL     1       4.359  13.761  22.310  0.00  0.00    +0.000 OA
BRANCH  24  26
ATOM     26  O   UNL     1       5.550  15.325  21.216  0.00  0.00    +0.000 OA
ATOM     27  H   UNL     1       5.549  14.860  20.347  0.00  0.00    +0.000 HD
ENDBRANCH  24  26
ENDBRANCH   6  24
BRANCH   1  28
ATOM     28  S   UNL     1       7.990  12.925  25.088  0.00  0.00    +0.000 S 
BRANCH  28  30
ATOM     29  C   UNL     1       5.958  11.131  25.300  0.00  0.00    +0.000 C 
ATOM     30  C   UNL     1       6.994  11.842  26.160  0.00  0.00    +0.000 C 
ENDBRANCH  28  30
ENDBRANCH   1  28
TORSDOF 7
ENDMDL
MODEL 6
REMARK VINA RESULT:      -6.9      6.842     10.465
REMARK  Name = 
REMARK  10 active torsions:
REMARK  status: ('A' for Active; 'I' for Inactive)
REMARK    1  A    between atoms: C_1  and  C_2
REMARK    2  A    between atoms: C_2  and  S_3
REMARK    3  A    between atoms: S_3  and  C_4
REMARK    4  A    between atoms: C_6  and  C_7
REMARK    5  A    between atoms: C_10  and  C_11
REMARK    6  A    between atoms: N_14  and  S_15
REMARK    7  A    between atoms: S_15  and  C_18
REMARK    8  A    between atoms: C_23  and  C_24
REMARK    9  A    between atoms: C_26  and  C_27
REMARK   10  A    between atoms: C_27  and  O_29
REMARK                            x       y       z     vdW  Elec       q    Type
REMARK                         _______ _______ _______ _____ _____    ______ ____
ROOT
ATOM      1  C   UNL     1       0.503   9.953  19.334  0.00  0.00    +0.000 C 
ATOM      2  C   UNL     1       1.449  11.129  19.060  0.00  0.00    +0.000 C 
ATOM      3  C   UNL     1       1.228  12.341  20.003  0.00  0.00    +0.000 C 
ATOM      4  N   UNL     1      -0.248  12.777  20.020  0.00  0.00    +0.000 NA
ATOM      5  C   UNL     1      -1.172  11.600  20.279  0.00  0.00    +0.000 C 
ATOM      6  C   UNL     1      -0.939  10.454  19.308  0.00  0.00    +0.000 C 
ENDROOT
BRANCH   3   7
ATOM      7  C   UNL     1       2.185  13.428  19.547  0.00  0.00    +0.000 A 
ATOM      8  C   UNL     1       2.173  13.908  18.231  0.00  0.00    +0.000 A 
ATOM      9  C   UNL     1       3.036  14.930  17.839  0.00  0.00    +0.000 A 
ATOM     10  C   UNL     1       3.969  15.452  18.738  0.00  0.00    +0.000 A 
ATOM     11  C   UNL     1       4.899  16.550  18.316  0.00  0.00    +0.000 C 
ATOM     12  C   UNL     1       4.031  14.932  20.034  0.00  0.00    +0.000 A 
ATOM     13  C   UNL     1       3.143  13.933  20.438  0.00  0.00    +0.000 A 
ENDBRANCH   3   7
BRANCH   4  14
ATOM     14  S   UNL     1      -0.563  13.986  21.305  0.00  0.00    +0.000 S 
ATOM     15  O   UNL     1      -1.995  14.014  21.522  0.00  0.00    +0.000 OA
ATOM     16  O   UNL     1       0.322  13.676  22.405  0.00  0.00    +0.000 OA
BRANCH  14  17
ATOM     17  C   UNL     1      -0.120  15.578  20.620  0.00  0.00    +0.000 A 
ATOM     18  C   UNL     1      -0.558  15.855  19.312  0.00  0.00    +0.000 A 
ATOM     19  C   UNL     1      -0.205  17.047  18.682  0.00  0.00    +0.000 A 
ATOM     20  C   UNL     1       0.581  17.977  19.349  0.00  0.00    +0.000 A 
ATOM     21  C   UNL     1       1.036  17.705  20.640  0.00  0.00    +0.000 A 
ATOM     22  C   UNL     1       0.723  16.491  21.288  0.00  0.00    +0.000 A 
ATOM     23  C   UNL     1       1.283  16.296  22.669  0.00  0.00    +0.000 C 
ENDBRANCH  14  17
ENDBRANCH   4  14
BRANCH   6  24
ATOM     24  C   UNL     1      -1.349  10.805  17.887  0.00  0.00    +0.000 C 
ATOM     25  O   UNL     1      -1.527   9.956  17.025  0.00  0.00    +0.000 OA
BRANCH  24  26
ATOM     26  O   UNL     1      -1.421  12.124  17.613  0.00  0.00    +0.000 OA
ATOM     27  H   UNL     1      -0.550  12.584  17.646  0.00  0.00    +0.000 HD
ENDBRANCH  24  26
ENDBRANCH   6  24
BRANCH   1  28
ATOM     28  S   UNL     1       1.029   9.198  20.943  0.00  0.00    +0.000 S 
BRANCH  28  30
ATOM     29  C   UNL     1      -0.563   9.430  23.133  0.00  0.00    +0.000 C 
ATOM     30  C   UNL     1      -0.565   8.824  21.737  0.00  0.00    +0.000 C 
ENDBRANCH  28  30
ENDBRANCH   1  28
TORSDOF 7
ENDMDL
MODEL 7
REMARK VINA RESULT:      -6.8      5.847      9.841
REMARK  Name = 
REMARK  10 active torsions:
REMARK  status: ('A' for Active; 'I' for Inactive)
REMARK    1  A    between atoms: C_1  and  C_2
REMARK    2  A    between atoms: C_2  and  S_3
REMARK    3  A    between atoms: S_3  and  C_4
REMARK    4  A    between atoms: C_6  and  C_7
REMARK    5  A    between atoms: C_10  and  C_11
REMARK    6  A    between atoms: N_14  and  S_15
REMARK    7  A    between atoms: S_15  and  C_18
REMARK    8  A    between atoms: C_23  and  C_24
REMARK    9  A    between atoms: C_26  and  C_27
REMARK   10  A    between atoms: C_27  and  O_29
REMARK                            x       y       z     vdW  Elec       q    Type
REMARK                         _______ _______ _______ _____ _____    ______ ____
ROOT
ATOM      1  C   UNL     1       0.631  13.865  21.049  0.00  0.00    +0.000 C 
ATOM      2  C   UNL     1       1.149  12.456  20.735  0.00  0.00    +0.000 C 
ATOM      3  C   UNL     1       0.401  11.761  19.568  0.00  0.00    +0.000 C 
ATOM      4  N   UNL     1      -1.123  11.781  19.787  0.00  0.00    +0.000 NA
ATOM      5  C   UNL     1      -1.619  13.181  20.109  0.00  0.00    +0.000 C 
ATOM      6  C   UNL     1      -0.877  13.804  21.281  0.00  0.00    +0.000 C 
ENDROOT
BRANCH   3   7
ATOM      7  C   UNL     1       0.985  10.365  19.445  0.00  0.00    +0.000 A 
ATOM      8  C   UNL     1       0.979   9.473  20.524  0.00  0.00    +0.000 A 
ATOM      9  C   UNL     1       1.489   8.183  20.383  0.00  0.00    +0.000 A 
ATOM     10  C   UNL     1       2.070   7.779  19.179  0.00  0.00    +0.000 A 
ATOM     11  C   UNL     1       2.621   6.393  19.028  0.00  0.00    +0.000 C 
ATOM     12  C   UNL     1       2.139   8.687  18.117  0.00  0.00    +0.000 A 
ATOM     13  C   UNL     1       1.595   9.967  18.246  0.00  0.00    +0.000 A 
ENDBRANCH   3   7
BRANCH   4  14
ATOM     14  S   UNL     1      -2.006  11.234  18.326  0.00  0.00    +0.000 S 
ATOM     15  O   UNL     1      -1.478  11.985  17.204  0.00  0.00    +0.000 OA
ATOM     16  O   UNL     1      -1.949   9.790  18.311  0.00  0.00    +0.000 OA
BRANCH  14  17
ATOM     17  C   UNL     1      -3.703  11.758  18.536  0.00  0.00    +0.000 A 
ATOM     18  C   UNL     1      -4.077  12.217  19.812  0.00  0.00    +0.000 A 
ATOM     19  C   UNL     1      -5.395  12.586  20.077  0.00  0.00    +0.000 A 
ATOM     20  C   UNL     1      -6.351  12.508  19.073  0.00  0.00    +0.000 A 
ATOM     21  C   UNL     1      -5.995  12.037  17.809  0.00  0.00    +0.000 A 
ATOM     22  C   UNL     1      -4.677  11.624  17.524  0.00  0.00    +0.000 A 
ATOM     23  C   UNL     1      -4.411  11.116  16.135  0.00  0.00    +0.000 C 
ENDBRANCH  14  17
ENDBRANCH   4  14
BRANCH   6  24
ATOM     24  C   UNL     1      -1.179  13.104  22.597  0.00  0.00    +0.000 C 
ATOM     25  O   UNL     1      -0.795  13.537  23.675  0.00  0.00    +0.000 OA
BRANCH  24  26
ATOM     26  O   UNL     1      -1.828  11.926  22.492  0.00  0.00    +0.000 OA
ATOM     27  H   UNL     1      -2.767  11.963  22.789  0.00  0.00    +0.000 HD
ENDBRANCH  24  26
ENDBRANCH   6  24
BRANCH   1  28
ATOM     28  S   UNL     1       1.152  14.959  19.647  0.00  0.00    +0.000 S 
BRANCH  28  30
ATOM     29  C   UNL     1       3.231  13.929  18.230  0.00  0.00    +0.000 C 
ATOM     30  C   UNL     1       2.941  14.637  19.546  0.00  0.00    +0.000 C 
ENDBRANCH  28  30
ENDBRANCH   1  28
TORSDOF 7
ENDMDL
MODEL 8
REMARK VINA RESULT:      -6.8      5.925     10.131
REMARK  Name = 
REMARK  10 active torsions:
REMARK  status: ('A' for Active; 'I' for Inactive)
REMARK    1  A    between atoms: C_1  and  C_2
REMARK    2  A    between atoms: C_2  and  S_3
REMARK    3  A    between atoms: S_3  and  C_4
REMARK    4  A    between atoms: C_6  and  C_7
REMARK    5  A    between atoms: C_10  and  C_11
REMARK    6  A    between atoms: N_14  and  S_15
REMARK    7  A    between atoms: S_15  and  C_18
REMARK    8  A    between atoms: C_23  and  C_24
REMARK    9  A    between atoms: C_26  and  C_27
REMARK   10  A    between atoms: C_27  and  O_29
REMARK                            x       y       z     vdW  Elec       q    Type
REMARK                         _______ _______ _______ _____ _____    ______ ____
ROOT
ATOM      1  C   UNL     1       0.681  13.849  20.943  0.00  0.00    +0.000 C 
ATOM      2  C   UNL     1       1.191  12.433  20.643  0.00  0.00    +0.000 C 
ATOM      3  C   UNL     1       0.423  11.723  19.497  0.00  0.00    +0.000 C 
ATOM      4  N   UNL     1      -1.097  11.752  19.738  0.00  0.00    +0.000 NA
ATOM      5  C   UNL     1      -1.584  13.158  20.046  0.00  0.00    +0.000 C 
ATOM      6  C   UNL     1      -0.823  13.796  21.197  0.00  0.00    +0.000 C 
ENDROOT
BRANCH   3   7
ATOM      7  C   UNL     1       1.001  10.323  19.388  0.00  0.00    +0.000 A 
ATOM      8  C   UNL     1       1.557   9.853  18.192  0.00  0.00    +0.000 A 
ATOM      9  C   UNL     1       2.114   8.577  18.119  0.00  0.00    +0.000 A 
ATOM     10  C   UNL     1       2.072   7.723  19.224  0.00  0.00    +0.000 A 
ATOM     11  C   UNL     1       2.669   6.350  19.146  0.00  0.00    +0.000 C 
ATOM     12  C   UNL     1       1.460   8.162  20.402  0.00  0.00    +0.000 A 
ATOM     13  C   UNL     1       0.934   9.453  20.487  0.00  0.00    +0.000 A 
ENDBRANCH   3   7
BRANCH   4  14
ATOM     14  S   UNL     1      -2.002  11.186  18.298  0.00  0.00    +0.000 S 
ATOM     15  O   UNL     1      -1.488  11.917  17.157  0.00  0.00    +0.000 OA
ATOM     16  O   UNL     1      -1.951   9.742  18.305  0.00  0.00    +0.000 OA
BRANCH  14  17
ATOM     17  C   UNL     1      -3.695  11.720  18.524  0.00  0.00    +0.000 A 
ATOM     18  C   UNL     1      -4.055  12.176  19.805  0.00  0.00    +0.000 A 
ATOM     19  C   UNL     1      -5.369  12.552  20.082  0.00  0.00    +0.000 A 
ATOM     20  C   UNL     1      -6.333  12.484  19.085  0.00  0.00    +0.000 A 
ATOM     21  C   UNL     1      -5.991  12.016  17.816  0.00  0.00    +0.000 A 
ATOM     22  C   UNL     1      -4.677  11.596  17.519  0.00  0.00    +0.000 A 
ATOM     23  C   UNL     1      -4.426  11.092  16.126  0.00  0.00    +0.000 C 
ENDBRANCH  14  17
ENDBRANCH   4  14
BRANCH   6  24
ATOM     24  C   UNL     1      -1.108  13.118  22.528  0.00  0.00    +0.000 C 
ATOM     25  O   UNL     1      -0.690  13.555  23.591  0.00  0.00    +0.000 OA
BRANCH  24  26
ATOM     26  O   UNL     1      -1.784  11.953  22.452  0.00  0.00    +0.000 OA
ATOM     27  H   UNL     1      -1.735  11.412  23.274  0.00  0.00    +0.000 HD
ENDBRANCH  24  26
ENDBRANCH   6  24
BRANCH   1  28
ATOM     28  S   UNL     1       1.187  14.920  19.517  0.00  0.00    +0.000 S 
BRANCH  28  30
ATOM     29  C   UNL     1      -0.488  16.783  18.461  0.00  0.00    +0.000 C 
ATOM     30  C   UNL     1       0.182  16.415  19.778  0.00  0.00    +0.000 C 
ENDBRANCH  28  30
ENDBRANCH   1  28
TORSDOF 7
ENDMDL
MODEL 9
REMARK VINA RESULT:      -6.8      6.824     10.750
REMARK  Name = 
REMARK  10 active torsions:
REMARK  status: ('A' for Active; 'I' for Inactive)
REMARK    1  A    between atoms: C_1  and  C_2
REMARK    2  A    between atoms: C_2  and  S_3
REMARK    3  A    between atoms: S_3  and  C_4
REMARK    4  A    between atoms: C_6  and  C_7
REMARK    5  A    between atoms: C_10  and  C_11
REMARK    6  A    between atoms: N_14  and  S_15
REMARK    7  A    between atoms: S_15  and  C_18
REMARK    8  A    between atoms: C_23  and  C_24
REMARK    9  A    between atoms: C_26  and  C_27
REMARK   10  A    between atoms: C_27  and  O_29
REMARK                            x       y       z     vdW  Elec       q    Type
REMARK                         _______ _______ _______ _____ _____    ______ ____
ROOT
ATOM      1  C   UNL     1      -0.331  10.598  19.503  0.00  0.00    +0.000 C 
ATOM      2  C   UNL     1       0.916  11.481  19.375  0.00  0.00    +0.000 C 
ATOM      3  C   UNL     1       0.901  12.721  20.306  0.00  0.00    +0.000 C 
ATOM      4  N   UNL     1      -0.399  13.529  20.144  0.00  0.00    +0.000 NA
ATOM      5  C   UNL     1      -1.624  12.638  20.261  0.00  0.00    +0.000 C 
ATOM      6  C   UNL     1      -1.576  11.457  19.305  0.00  0.00    +0.000 C 
ENDROOT
BRANCH   3   7
ATOM      7  C   UNL     1       2.159  13.514  19.996  0.00  0.00    +0.000 A 
ATOM      8  C   UNL     1       2.446  13.953  18.698  0.00  0.00    +0.000 A 
ATOM      9  C   UNL     1       3.588  14.708  18.438  0.00  0.00    +0.000 A 
ATOM     10  C   UNL     1       4.498  14.989  19.460  0.00  0.00    +0.000 A 
ATOM     11  C   UNL     1       5.728  15.799  19.181  0.00  0.00    +0.000 C 
ATOM     12  C   UNL     1       4.252  14.498  20.746  0.00  0.00    +0.000 A 
ATOM     13  C   UNL     1       3.090  13.772  21.014  0.00  0.00    +0.000 A 
ENDBRANCH   3   7
BRANCH   4  14
ATOM     14  S   UNL     1      -0.548  14.796  21.402  0.00  0.00    +0.000 S 
ATOM     15  O   UNL     1      -1.899  15.316  21.326  0.00  0.00    +0.000 OA
ATOM     16  O   UNL     1      -0.070  14.223  22.641  0.00  0.00    +0.000 OA
BRANCH  14  17
ATOM     17  C   UNL     1       0.539  16.129  20.908  0.00  0.00    +0.000 A 
ATOM     18  C   UNL     1       1.410  16.639  21.887  0.00  0.00    +0.000 A 
ATOM     19  C   UNL     1       2.246  17.718  21.602  0.00  0.00    +0.000 A 
ATOM     20  C   UNL     1       2.226  18.294  20.339  0.00  0.00    +0.000 A 
ATOM     21  C   UNL     1       1.353  17.807  19.366  0.00  0.00    +0.000 A 
ATOM     22  C   UNL     1       0.472  16.740  19.638  0.00  0.00    +0.000 A 
ATOM     23  C   UNL     1      -0.439  16.311  18.522  0.00  0.00    +0.000 C 
ENDBRANCH  14  17
ENDBRANCH   4  14
BRANCH   6  24
ATOM     24  C   UNL     1      -1.695  11.884  17.850  0.00  0.00    +0.000 C 
ATOM     25  O   UNL     1      -2.308  11.226  17.020  0.00  0.00    +0.000 OA
BRANCH  24  26
ATOM     26  O   UNL     1      -1.009  12.995  17.513  0.00  0.00    +0.000 OA
ATOM     27  H   UNL     1      -1.090  13.238  16.562  0.00  0.00    +0.000 HD
ENDBRANCH  24  26
ENDBRANCH   6  24
BRANCH   1  28
ATOM     28  S   UNL     1      -0.230   9.754  21.150  0.00  0.00    +0.000 S 
BRANCH  28  30
ATOM     29  C   UNL     1       1.367   7.561  20.965  0.00  0.00    +0.000 C 
ATOM     30  C   UNL     1       1.457   9.071  21.135  0.00  0.00    +0.000 C 
ENDBRANCH  28  30
ENDBRANCH   1  28
TORSDOF 7
ENDMDL
