MODEL 1
REMARK VINA RESULT:      -8.2      0.000      0.000
REMARK  Name = 
REMARK  1 active torsions:
REMARK  status: ('A' for Active; 'I' for Inactive)
REMARK    1  A    between atoms: C_4  and  C_5
REMARK                            x       y       z     vdW  Elec       q    Type
REMARK                         _______ _______ _______ _____ _____    ______ ____
ROOT
ATOM      1  O   UNL     1       5.189   1.781  20.685  0.00  0.00    +0.000 OA
ATOM      2  C   UNL     1       4.655   2.550  19.904  0.00  0.00    +0.000 A 
ATOM      3  N   UNL     1       5.275   2.984  18.758  0.00  0.00    +0.000 N 
ATOM      4  C   UNL     1       4.699   3.858  17.878  0.00  0.00    +0.000 A 
ATOM      5  C   UNL     1       3.466   4.342  18.096  0.00  0.00    +0.000 A 
ATOM      6  N   UNL     1       2.742   3.929  19.228  0.00  0.00    +0.000 N 
ATOM      7  C   UNL     1       1.479   4.389  19.406  0.00  0.00    +0.000 A 
ATOM      8  C   UNL     1       0.709   3.978  20.489  0.00  0.00    +0.000 A 
ATOM      9  C   UNL     1       1.245   3.097  21.417  0.00  0.00    +0.000 A 
ATOM     10  C   UNL     1       2.543   2.639  21.243  0.00  0.00    +0.000 A 
ATOM     11  C   UNL     1       3.276   3.062  20.134  0.00  0.00    +0.000 A 
ATOM     12  H   UNL     1       6.212   2.620  18.587  0.00  0.00    +0.000 HD
ENDROOT
BRANCH   4  13
ATOM     13  C   UNL     1       5.459   4.241  16.685  0.00  0.00    +0.000 A 
ATOM     14  C   UNL     1       4.902   4.088  15.409  0.00  0.00    +0.000 A 
ATOM     15  C   UNL     1       5.650   4.405  14.272  0.00  0.00    +0.000 A 
ATOM     16  C   UNL     1       6.953   4.879  14.408  0.00  0.00    +0.000 A 
ATOM     17 CL   UNL     1       7.881   5.241  13.007  0.00  0.00    +0.000 Cl
ATOM     18  C   UNL     1       7.509   5.057  15.673  0.00  0.00    +0.000 A 
ATOM     19  C   UNL     1       6.764   4.739  16.812  0.00  0.00    +0.000 A 
ENDBRANCH   4  13
TORSDOF 1
ENDMDL
MODEL 2
REMARK VINA RESULT:      -8.1      0.195      1.156
REMARK  Name = 
REMARK  1 active torsions:
REMARK  status: ('A' for Active; 'I' for Inactive)
REMARK    1  A    between atoms: C_4  and  C_5
REMARK                            x       y       z     vdW  Elec       q    Type
REMARK                         _______ _______ _______ _____ _____    ______ ____
ROOT
ATOM      1  O   UNL     1       5.207   1.859  20.953  0.00  0.00    +0.000 OA
ATOM      2  C   UNL     1       4.666   2.550  20.106  0.00  0.00    +0.000 A 
ATOM      3  N   UNL     1       5.312   2.953  18.963  0.00  0.00    +0.000 N 
ATOM      4  C   UNL     1       4.728   3.741  18.009  0.00  0.00    +0.000 A 
ATOM      5  C   UNL     1       3.461   4.164  18.148  0.00  0.00    +0.000 A 
ATOM      6  N   UNL     1       2.713   3.776  19.271  0.00  0.00    +0.000 N 
ATOM      7  C   UNL     1       1.419   4.172  19.370  0.00  0.00    +0.000 A 
ATOM      8  C   UNL     1       0.626   3.780  20.443  0.00  0.00    +0.000 A 
ATOM      9  C   UNL     1       1.168   2.985  21.443  0.00  0.00    +0.000 A 
ATOM     10  C   UNL     1       2.496   2.594  21.350  0.00  0.00    +0.000 A 
ATOM     11  C   UNL     1       3.252   2.995  20.249  0.00  0.00    +0.000 A 
ATOM     12  H   UNL     1       6.274   2.635  18.852  0.00  0.00    +0.000 HD
ENDROOT
BRANCH   4  13
ATOM     13  C   UNL     1       5.518   4.099  16.828  0.00  0.00    +0.000 A 
ATOM     14  C   UNL     1       6.793   4.659  16.970  0.00  0.00    +0.000 A 
ATOM     15  C   UNL     1       7.520   5.048  15.841  0.00  0.00    +0.000 A 
ATOM     16  C   UNL     1       6.976   4.874  14.571  0.00  0.00    +0.000 A 
ATOM     17 CL   UNL     1       7.860   5.381  13.186  0.00  0.00    +0.000 Cl
ATOM     18  C   UNL     1       5.718   4.298  14.417  0.00  0.00    +0.000 A 
ATOM     19  C   UNL     1       4.987   3.908  15.543  0.00  0.00    +0.000 A 
ENDBRANCH   4  13
TORSDOF 1
ENDMDL
MODEL 3
REMARK VINA RESULT:      -7.4      1.189      1.623
REMARK  Name = 
REMARK  1 active torsions:
REMARK  status: ('A' for Active; 'I' for Inactive)
REMARK    1  A    between atoms: C_4  and  C_5
REMARK                            x       y       z     vdW  Elec       q    Type
REMARK                         _______ _______ _______ _____ _____    ______ ____
ROOT
ATOM      1  O   UNL     1       3.408   0.934  18.683  0.00  0.00    +0.000 OA
ATOM      2  C   UNL     1       3.580   2.120  18.458  0.00  0.00    +0.000 A 
ATOM      3  N   UNL     1       4.413   2.568  17.462  0.00  0.00    +0.000 N 
ATOM      4  C   UNL     1       4.630   3.893  17.205  0.00  0.00    +0.000 A 
ATOM      5  C   UNL     1       4.020   4.844  17.931  0.00  0.00    +0.000 A 
ATOM      6  N   UNL     1       3.127   4.480  18.952  0.00  0.00    +0.000 N 
ATOM      7  C   UNL     1       2.482   5.454  19.642  0.00  0.00    +0.000 A 
ATOM      8  C   UNL     1       1.557   5.142  20.633  0.00  0.00    +0.000 A 
ATOM      9  C   UNL     1       1.301   3.813  20.940  0.00  0.00    +0.000 A 
ATOM     10  C   UNL     1       1.974   2.818  20.246  0.00  0.00    +0.000 A 
ATOM     11  C   UNL     1       2.880   3.172  19.247  0.00  0.00    +0.000 A 
ATOM     12  H   UNL     1       4.879   1.851  16.907  0.00  0.00    +0.000 HD
ENDROOT
BRANCH   4  13
ATOM     13  C   UNL     1       5.537   4.247  16.109  0.00  0.00    +0.000 A 
ATOM     14  C   UNL     1       6.623   5.101  16.335  0.00  0.00    +0.000 A 
ATOM     15  C   UNL     1       7.453   5.478  15.275  0.00  0.00    +0.000 A 
ATOM     16  C   UNL     1       7.202   5.000  13.992  0.00  0.00    +0.000 A 
ATOM     17 CL   UNL     1       8.206   5.488  12.685  0.00  0.00    +0.000 Cl
ATOM     18  C   UNL     1       6.137   4.132  13.760  0.00  0.00    +0.000 A 
ATOM     19  C   UNL     1       5.304   3.753  14.817  0.00  0.00    +0.000 A 
ENDBRANCH   4  13
TORSDOF 1
ENDMDL
MODEL 4
REMARK VINA RESULT:      -7.4      1.156      1.158
REMARK  Name = 
REMARK  1 active torsions:
REMARK  status: ('A' for Active; 'I' for Inactive)
REMARK    1  A    between atoms: C_4  and  C_5
REMARK                            x       y       z     vdW  Elec       q    Type
REMARK                         _______ _______ _______ _____ _____    ______ ____
ROOT
ATOM      1  O   UNL     1       3.526   0.948  18.702  0.00  0.00    +0.000 OA
ATOM      2  C   UNL     1       3.617   2.140  18.461  0.00  0.00    +0.000 A 
ATOM      3  N   UNL     1       4.417   2.630  17.458  0.00  0.00    +0.000 N 
ATOM      4  C   UNL     1       4.545   3.963  17.183  0.00  0.00    +0.000 A 
ATOM      5  C   UNL     1       3.873   4.881  17.897  0.00  0.00    +0.000 A 
ATOM      6  N   UNL     1       3.007   4.470  18.925  0.00  0.00    +0.000 N 
ATOM      7  C   UNL     1       2.299   5.407  19.603  0.00  0.00    +0.000 A 
ATOM      8  C   UNL     1       1.398   5.047  20.601  0.00  0.00    +0.000 A 
ATOM      9  C   UNL     1       1.233   3.708  20.925  0.00  0.00    +0.000 A 
ATOM     10  C   UNL     1       1.970   2.751  20.243  0.00  0.00    +0.000 A 
ATOM     11  C   UNL     1       2.849   3.153  19.237  0.00  0.00    +0.000 A 
ATOM     12  H   UNL     1       4.930   1.938  16.911  0.00  0.00    +0.000 HD
ENDROOT
BRANCH   4  13
ATOM     13  C   UNL     1       5.424   4.362  16.080  0.00  0.00    +0.000 A 
ATOM     14  C   UNL     1       5.243   3.827  14.799  0.00  0.00    +0.000 A 
ATOM     15  C   UNL     1       6.117   4.170  13.764  0.00  0.00    +0.000 A 
ATOM     16  C   UNL     1       7.168   5.051  14.005  0.00  0.00    +0.000 A 
ATOM     17 CL   UNL     1       8.259   5.449  12.738  0.00  0.00    +0.000 Cl
ATOM     18  C   UNL     1       7.344   5.607  15.271  0.00  0.00    +0.000 A 
ATOM     19  C   UNL     1       6.473   5.265  16.309  0.00  0.00    +0.000 A 
ENDBRANCH   4  13
TORSDOF 1
ENDMDL
MODEL 5
REMARK VINA RESULT:      -7.2      3.435      6.726
REMARK  Name = 
REMARK  1 active torsions:
REMARK  status: ('A' for Active; 'I' for Inactive)
REMARK    1  A    between atoms: C_4  and  C_5
REMARK                            x       y       z     vdW  Elec       q    Type
REMARK                         _______ _______ _______ _____ _____    ______ ____
ROOT
ATOM      1  O   UNL     1       7.734   6.393  16.345  0.00  0.00    +0.000 OA
ATOM      2  C   UNL     1       6.893   5.559  16.054  0.00  0.00    +0.000 A 
ATOM      3  N   UNL     1       5.943   5.129  16.948  0.00  0.00    +0.000 N 
ATOM      4  C   UNL     1       5.001   4.185  16.646  0.00  0.00    +0.000 A 
ATOM      5  C   UNL     1       4.957   3.622  15.428  0.00  0.00    +0.000 A 
ATOM      6  N   UNL     1       5.871   4.022  14.439  0.00  0.00    +0.000 N 
ATOM      7  C   UNL     1       5.781   3.479  13.199  0.00  0.00    +0.000 A 
ATOM      8  C   UNL     1       6.637   3.874  12.175  0.00  0.00    +0.000 A 
ATOM      9  C   UNL     1       7.615   4.825  12.427  0.00  0.00    +0.000 A 
ATOM     10  C   UNL     1       7.719   5.368  13.700  0.00  0.00    +0.000 A 
ATOM     11  C   UNL     1       6.829   4.958  14.693  0.00  0.00    +0.000 A 
ATOM     12  H   UNL     1       5.971   5.553  17.875  0.00  0.00    +0.000 HD
ENDROOT
BRANCH   4  13
ATOM     13  C   UNL     1       4.035   3.814  17.683  0.00  0.00    +0.000 A 
ATOM     14  C   UNL     1       2.687   3.617  17.358  0.00  0.00    +0.000 A 
ATOM     15  C   UNL     1       1.759   3.315  18.359  0.00  0.00    +0.000 A 
ATOM     16  C   UNL     1       2.177   3.205  19.683  0.00  0.00    +0.000 A 
ATOM     17 CL   UNL     1       1.030   2.864  20.917  0.00  0.00    +0.000 Cl
ATOM     18  C   UNL     1       3.519   3.378  20.015  0.00  0.00    +0.000 A 
ATOM     19  C   UNL     1       4.450   3.681  19.016  0.00  0.00    +0.000 A 
ENDBRANCH   4  13
TORSDOF 1
ENDMDL
MODEL 6
REMARK VINA RESULT:      -7.2      3.440      6.812
REMARK  Name = 
REMARK  1 active torsions:
REMARK  status: ('A' for Active; 'I' for Inactive)
REMARK    1  A    between atoms: C_4  and  C_5
REMARK                            x       y       z     vdW  Elec       q    Type
REMARK                         _______ _______ _______ _____ _____    ______ ____
ROOT
ATOM      1  O   UNL     1       7.698   6.526  16.315  0.00  0.00    +0.000 OA
ATOM      2  C   UNL     1       6.854   5.685  16.055  0.00  0.00    +0.000 A 
ATOM      3  N   UNL     1       5.900   5.295  16.962  0.00  0.00    +0.000 N 
ATOM      4  C   UNL     1       4.955   4.343  16.695  0.00  0.00    +0.000 A 
ATOM      5  C   UNL     1       4.913   3.731  15.500  0.00  0.00    +0.000 A 
ATOM      6  N   UNL     1       5.831   4.088  14.499  0.00  0.00    +0.000 N 
ATOM      7  C   UNL     1       5.742   3.496  13.282  0.00  0.00    +0.000 A 
ATOM      8  C   UNL     1       6.603   3.846  12.246  0.00  0.00    +0.000 A 
ATOM      9  C   UNL     1       7.585   4.802  12.463  0.00  0.00    +0.000 A 
ATOM     10  C   UNL     1       7.686   5.396  13.713  0.00  0.00    +0.000 A 
ATOM     11  C   UNL     1       6.792   5.030  14.719  0.00  0.00    +0.000 A 
ATOM     12  H   UNL     1       5.926   5.755  17.872  0.00  0.00    +0.000 HD
ENDROOT
BRANCH   4  13
ATOM     13  C   UNL     1       3.984   4.017  17.743  0.00  0.00    +0.000 A 
ATOM     14  C   UNL     1       4.413   3.744  19.048  0.00  0.00    +0.000 A 
ATOM     15  C   UNL     1       3.487   3.382  20.031  0.00  0.00    +0.000 A 
ATOM     16  C   UNL     1       2.134   3.296  19.713  0.00  0.00    +0.000 A 
ATOM     17 CL   UNL     1       1.001   2.822  20.916  0.00  0.00    +0.000 Cl
ATOM     18  C   UNL     1       1.693   3.587  18.424  0.00  0.00    +0.000 A 
ATOM     19  C   UNL     1       2.616   3.948  17.437  0.00  0.00    +0.000 A 
ENDBRANCH   4  13
TORSDOF 1
ENDMDL
MODEL 7
REMARK VINA RESULT:      -7.2      1.717      2.503
REMARK  Name = 
REMARK  1 active torsions:
REMARK  status: ('A' for Active; 'I' for Inactive)
REMARK    1  A    between atoms: C_4  and  C_5
REMARK                            x       y       z     vdW  Elec       q    Type
REMARK                         _______ _______ _______ _____ _____    ______ ____
ROOT
ATOM      1  O   UNL     1       0.577   4.004  17.408  0.00  0.00    +0.000 OA
ATOM      2  C   UNL     1       1.734   3.836  17.757  0.00  0.00    +0.000 A 
ATOM      3  N   UNL     1       2.798   4.098  16.929  0.00  0.00    +0.000 N 
ATOM      4  C   UNL     1       4.100   3.903  17.296  0.00  0.00    +0.000 A 
ATOM      5  C   UNL     1       4.408   3.437  18.518  0.00  0.00    +0.000 A 
ATOM      6  N   UNL     1       3.386   3.171  19.444  0.00  0.00    +0.000 N 
ATOM      7  C   UNL     1       3.718   2.749  20.689  0.00  0.00    +0.000 A 
ATOM      8  C   UNL     1       2.743   2.511  21.653  0.00  0.00    +0.000 A 
ATOM      9  C   UNL     1       1.404   2.688  21.333  0.00  0.00    +0.000 A 
ATOM     10  C   UNL     1       1.064   3.103  20.054  0.00  0.00    +0.000 A 
ATOM     11  C   UNL     1       2.073   3.348  19.122  0.00  0.00    +0.000 A 
ATOM     12  H   UNL     1       2.571   4.451  16.000  0.00  0.00    +0.000 HD
ENDROOT
BRANCH   4  13
ATOM     13  C   UNL     1       5.150   4.226  16.326  0.00  0.00    +0.000 A 
ATOM     14  C   UNL     1       6.229   5.039  16.694  0.00  0.00    +0.000 A 
ATOM     15  C   UNL     1       7.200   5.388  15.751  0.00  0.00    +0.000 A 
ATOM     16  C   UNL     1       7.096   4.923  14.442  0.00  0.00    +0.000 A 
ATOM     17 CL   UNL     1       8.274   5.377  13.277  0.00  0.00    +0.000 Cl
ATOM     18  C   UNL     1       6.038   4.096  14.071  0.00  0.00    +0.000 A 
ATOM     19  C   UNL     1       5.064   3.745  15.011  0.00  0.00    +0.000 A 
ENDBRANCH   4  13
TORSDOF 1
ENDMDL
MODEL 8
REMARK VINA RESULT:      -7.1      1.798      2.523
REMARK  Name = 
REMARK  1 active torsions:
REMARK  status: ('A' for Active; 'I' for Inactive)
REMARK    1  A    between atoms: C_4  and  C_5
REMARK                            x       y       z     vdW  Elec       q    Type
REMARK                         _______ _______ _______ _____ _____    ______ ____
ROOT
ATOM      1  O   UNL     1       2.451   7.026  19.315  0.00  0.00    +0.000 OA
ATOM      2  C   UNL     1       3.032   5.997  19.015  0.00  0.00    +0.000 A 
ATOM      3  N   UNL     1       3.864   5.911  17.926  0.00  0.00    +0.000 N 
ATOM      4  C   UNL     1       4.513   4.763  17.565  0.00  0.00    +0.000 A 
ATOM      5  C   UNL     1       4.366   3.636  18.281  0.00  0.00    +0.000 A 
ATOM      6  N   UNL     1       3.558   3.637  19.431  0.00  0.00    +0.000 N 
ATOM      7  C   UNL     1       3.462   2.504  20.170  0.00  0.00    +0.000 A 
ATOM      8  C   UNL     1       2.707   2.468  21.338  0.00  0.00    +0.000 A 
ATOM      9  C   UNL     1       2.023   3.603  21.748  0.00  0.00    +0.000 A 
ATOM     10  C   UNL     1       2.109   4.757  20.983  0.00  0.00    +0.000 A 
ATOM     11  C   UNL     1       2.890   4.757  19.828  0.00  0.00    +0.000 A 
ATOM     12  H   UNL     1       3.979   6.763  17.378  0.00  0.00    +0.000 HD
ENDROOT
BRANCH   4  13
ATOM     13  C   UNL     1       5.380   4.798  16.385  0.00  0.00    +0.000 A 
ATOM     14  C   UNL     1       6.585   5.512  16.411  0.00  0.00    +0.000 A 
ATOM     15  C   UNL     1       7.383   5.587  15.266  0.00  0.00    +0.000 A 
ATOM     16  C   UNL     1       6.982   4.946  14.097  0.00  0.00    +0.000 A 
ATOM     17 CL   UNL     1       7.950   5.064  12.682  0.00  0.00    +0.000 Cl
ATOM     18  C   UNL     1       5.797   4.214  14.066  0.00  0.00    +0.000 A 
ATOM     19  C   UNL     1       4.995   4.138  15.209  0.00  0.00    +0.000 A 
ENDBRANCH   4  13
TORSDOF 1
ENDMDL
MODEL 9
REMARK VINA RESULT:      -6.9      4.374      6.645
REMARK  Name = 
REMARK  1 active torsions:
REMARK  status: ('A' for Active; 'I' for Inactive)
REMARK    1  A    between atoms: C_4  and  C_5
REMARK                            x       y       z     vdW  Elec       q    Type
REMARK                         _______ _______ _______ _____ _____    ______ ____
ROOT
ATOM      1  O   UNL     1       3.008   3.224  18.441  0.00  0.00    +0.000 OA
ATOM      2  C   UNL     1       3.271   4.362  18.090  0.00  0.00    +0.000 A 
ATOM      3  N   UNL     1       2.635   5.460  18.615  0.00  0.00    +0.000 N 
ATOM      4  C   UNL     1       2.905   6.742  18.224  0.00  0.00    +0.000 A 
ATOM      5  C   UNL     1       3.833   6.995  17.286  0.00  0.00    +0.000 A 
ATOM      6  N   UNL     1       4.556   5.935  16.715  0.00  0.00    +0.000 N 
ATOM      7  C   UNL     1       5.524   6.212  15.805  0.00  0.00    +0.000 A 
ATOM      8  C   UNL     1       6.295   5.200  15.242  0.00  0.00    +0.000 A 
ATOM      9  C   UNL     1       6.060   3.880  15.599  0.00  0.00    +0.000 A 
ATOM     10  C   UNL     1       5.059   3.595  16.516  0.00  0.00    +0.000 A 
ATOM     11  C   UNL     1       4.320   4.640  17.070  0.00  0.00    +0.000 A 
ATOM     12  H   UNL     1       1.929   5.275  19.327  0.00  0.00    +0.000 HD
ENDROOT
BRANCH   4  13
ATOM     13  C   UNL     1       2.164   7.833  18.864  0.00  0.00    +0.000 A 
ATOM     14  C   UNL     1       1.817   7.755  20.218  0.00  0.00    +0.000 A 
ATOM     15  C   UNL     1       1.065   8.774  20.811  0.00  0.00    +0.000 A 
ATOM     16  C   UNL     1       0.663   9.871  20.053  0.00  0.00    +0.000 A 
ATOM     17 CL   UNL     1      -0.288  11.107  20.776  0.00  0.00    +0.000 Cl
ATOM     18  C   UNL     1       1.021   9.969  18.710  0.00  0.00    +0.000 A 
ATOM     19  C   UNL     1       1.772   8.952  18.114  0.00  0.00    +0.000 A 
ENDBRANCH   4  13
TORSDOF 1
ENDMDL
