MODEL 1
REMARK VINA RESULT:      -8.2      0.000      0.000
REMARK  Name = 
REMARK  6 active torsions:
REMARK  status: ('A' for Active; 'I' for Inactive)
REMARK    1  A    between atoms: C_1  and  N_2
REMARK    2  A    between atoms: C_6  and  C_7
REMARK    3  A    between atoms: N_9  and  C_10
REMARK    4  A    between atoms: C_10  and  C_11
REMARK    5  A    between atoms: C_11  and  C_12
REMARK    6  A    between atoms: C_16  and  C_17
REMARK                            x       y       z     vdW  Elec       q    Type
REMARK                         _______ _______ _______ _____ _____    ______ ____
ROOT
ATOM      1  C   UNL     1       2.963   2.396  18.031  0.00  0.00    +0.000 C 
ENDROOT
BRANCH   1   2
ATOM      2  C   UNL     1       4.088   3.350  17.712  0.00  0.00    +0.000 A 
ATOM      3  N   UNL     1       4.788   3.871  18.732  0.00  0.00    +0.000 NA
ATOM      4  C   UNL     1       5.793   4.724  18.432  0.00  0.00    +0.000 A 
ATOM      5  C   UNL     1       6.117   5.084  17.126  0.00  0.00    +0.000 A 
ATOM      6  C   UNL     1       5.373   4.465  16.121  0.00  0.00    +0.000 A 
ATOM      7  N   UNL     1       4.353   3.606  16.420  0.00  0.00    +0.000 NA
ATOM      8  C   UNL     1       7.256   6.026  16.839  0.00  0.00    +0.000 C 
ATOM      9  C   UNL     1       7.705   6.845  18.042  0.00  0.00    +0.000 C 
ATOM     10  C   UNL     1       7.870   5.939  19.249  0.00  0.00    +0.000 C 
ATOM     11  C   UNL     1       6.524   5.317  19.614  0.00  0.00    +0.000 C 
BRANCH   6  12
ATOM     12  C   UNL     1       5.661   4.682  14.635  0.00  0.00    +0.000 C 
ATOM     13  F   UNL     1       6.940   4.409  14.240  0.00  0.00    +0.000 F 
ATOM     14  F   UNL     1       4.886   3.896  13.831  0.00  0.00    +0.000 F 
ATOM     15  F   UNL     1       5.440   5.966  14.234  0.00  0.00    +0.000 F 
ENDBRANCH   6  12
ENDBRANCH   1   2
BRANCH   1  16
ATOM     16  C   UNL     1       2.151   2.872  19.235  0.00  0.00    +0.000 C 
BRANCH  16  19
ATOM     17  C   UNL     1       2.065   5.092  20.334  0.00  0.00    +0.000 C 
ATOM     18  O   UNL     1       2.466   4.630  21.403  0.00  0.00    +0.000 OA
ATOM     19  N   UNL     1       1.897   4.309  19.221  0.00  0.00    +0.000 N 
ATOM     20  H   UNL     1       1.560   4.745  18.362  0.00  0.00    +0.000 HD
BRANCH  17  26
ATOM     21  C   UNL     1       2.104   9.553  17.891  0.00  0.00    +0.000 C 
ATOM     22  N   UNL     1       1.765   8.728  19.037  0.00  0.00    +0.000 N 
ATOM     23  C   UNL     1       1.108   9.288  20.115  0.00  0.00    +0.000 A 
ATOM     24  C   UNL     1       0.766   8.547  21.172  0.00  0.00    +0.000 A 
ATOM     25  C   UNL     1       1.090   7.143  21.201  0.00  0.00    +0.000 A 
ATOM     26  C   UNL     1       1.747   6.546  20.188  0.00  0.00    +0.000 A 
ATOM     27  C   UNL     1       2.118   7.371  18.993  0.00  0.00    +0.000 A 
ATOM     28  O   UNL     1       2.702   6.863  18.037  0.00  0.00    +0.000 OA
ENDBRANCH  17  26
ENDBRANCH  16  19
ENDBRANCH   1  16
TORSDOF 5
ENDMDL
MODEL 2
REMARK VINA RESULT:      -8.2      0.921      1.659
REMARK  Name = 
REMARK  6 active torsions:
REMARK  status: ('A' for Active; 'I' for Inactive)
REMARK    1  A    between atoms: C_1  and  N_2
REMARK    2  A    between atoms: C_6  and  C_7
REMARK    3  A    between atoms: N_9  and  C_10
REMARK    4  A    between atoms: C_10  and  C_11
REMARK    5  A    between atoms: C_11  and  C_12
REMARK    6  A    between atoms: C_16  and  C_17
REMARK                            x       y       z     vdW  Elec       q    Type
REMARK                         _______ _______ _______ _____ _____    ______ ____
ROOT
ATOM      1  C   UNL     1       3.515   2.301  18.504  0.00  0.00    +0.000 C 
ENDROOT
BRANCH   1   2
ATOM      2  C   UNL     1       4.499   3.362  18.074  0.00  0.00    +0.000 A 
ATOM      3  N   UNL     1       5.281   3.921  19.011  0.00  0.00    +0.000 NA
ATOM      4  C   UNL     1       6.157   4.870  18.611  0.00  0.00    +0.000 A 
ATOM      5  C   UNL     1       6.268   5.291  17.289  0.00  0.00    +0.000 A 
ATOM      6  C   UNL     1       5.452   4.631  16.369  0.00  0.00    +0.000 A 
ATOM      7  N   UNL     1       4.562   3.674  16.769  0.00  0.00    +0.000 NA
ATOM      8  C   UNL     1       7.270   6.341  16.888  0.00  0.00    +0.000 C 
ATOM      9  C   UNL     1       7.804   7.167  18.050  0.00  0.00    +0.000 C 
ATOM     10  C   UNL     1       8.210   6.251  19.191  0.00  0.00    +0.000 C 
ATOM     11  C   UNL     1       6.986   5.498  19.708  0.00  0.00    +0.000 C 
BRANCH   6  12
ATOM     12  C   UNL     1       5.515   4.910  14.867  0.00  0.00    +0.000 C 
ATOM     13  F   UNL     1       4.727   4.110  14.088  0.00  0.00    +0.000 F 
ATOM     14  F   UNL     1       5.121   6.179  14.554  0.00  0.00    +0.000 F 
ATOM     15  F   UNL     1       6.770   4.766  14.354  0.00  0.00    +0.000 F 
ENDBRANCH   6  12
ENDBRANCH   1   2
BRANCH   1  16
ATOM     16  C   UNL     1       2.227   2.919  19.045  0.00  0.00    +0.000 C 
BRANCH  16  19
ATOM     17  C   UNL     1       2.309   5.291  19.761  0.00  0.00    +0.000 C 
ATOM     18  O   UNL     1       2.598   4.981  20.918  0.00  0.00    +0.000 OA
ATOM     19  N   UNL     1       2.124   4.350  18.780  0.00  0.00    +0.000 N 
ATOM     20  H   UNL     1       1.884   4.665  17.840  0.00  0.00    +0.000 HD
BRANCH  17  26
ATOM     21  C   UNL     1       0.758  10.085  20.451  0.00  0.00    +0.000 C 
ATOM     22  N   UNL     1       1.397   9.052  19.655  0.00  0.00    +0.000 N 
ATOM     23  C   UNL     1       1.904   9.362  18.408  0.00  0.00    +0.000 A 
ATOM     24  C   UNL     1       2.515   8.435  17.665  0.00  0.00    +0.000 A 
ATOM     25  C   UNL     1       2.644   7.088  18.159  0.00  0.00    +0.000 A 
ATOM     26  C   UNL     1       2.152   6.722  19.358  0.00  0.00    +0.000 A 
ATOM     27  C   UNL     1       1.480   7.763  20.202  0.00  0.00    +0.000 A 
ATOM     28  O   UNL     1       1.033   7.477  21.311  0.00  0.00    +0.000 OA
ENDBRANCH  17  26
ENDBRANCH  16  19
ENDBRANCH   1  16
TORSDOF 5
ENDMDL
MODEL 3
REMARK VINA RESULT:      -7.6      1.064      1.948
REMARK  Name = 
REMARK  6 active torsions:
REMARK  status: ('A' for Active; 'I' for Inactive)
REMARK    1  A    between atoms: C_1  and  N_2
REMARK    2  A    between atoms: C_6  and  C_7
REMARK    3  A    between atoms: N_9  and  C_10
REMARK    4  A    between atoms: C_10  and  C_11
REMARK    5  A    between atoms: C_11  and  C_12
REMARK    6  A    between atoms: C_16  and  C_17
REMARK                            x       y       z     vdW  Elec       q    Type
REMARK                         _______ _______ _______ _____ _____    ______ ____
ROOT
ATOM      1  C   UNL     1       3.938   1.972  18.409  0.00  0.00    +0.000 C 
ENDROOT
BRANCH   1   2
ATOM      2  C   UNL     1       4.790   3.146  17.992  0.00  0.00    +0.000 A 
ATOM      3  N   UNL     1       5.527   3.761  18.931  0.00  0.00    +0.000 NA
ATOM      4  C   UNL     1       6.286   4.811  18.543  0.00  0.00    +0.000 A 
ATOM      5  C   UNL     1       6.321   5.278  17.232  0.00  0.00    +0.000 A 
ATOM      6  C   UNL     1       5.562   4.559  16.309  0.00  0.00    +0.000 A 
ATOM      7  N   UNL     1       4.790   3.500  16.696  0.00  0.00    +0.000 NA
ATOM      8  C   UNL     1       7.193   6.442  16.844  0.00  0.00    +0.000 C 
ATOM      9  C   UNL     1       7.660   7.290  18.021  0.00  0.00    +0.000 C 
ATOM     10  C   UNL     1       8.189   6.392  19.125  0.00  0.00    +0.000 C 
ATOM     11  C   UNL     1       7.065   5.496  19.643  0.00  0.00    +0.000 C 
BRANCH   6  12
ATOM     12  C   UNL     1       5.561   4.885  14.815  0.00  0.00    +0.000 C 
ATOM     13  F   UNL     1       5.093   6.127  14.486  0.00  0.00    +0.000 F 
ATOM     14  F   UNL     1       6.811   4.841  14.268  0.00  0.00    +0.000 F 
ATOM     15  F   UNL     1       4.798   4.023  14.084  0.00  0.00    +0.000 F 
ENDBRANCH   6  12
ENDBRANCH   1   2
BRANCH   1  16
ATOM     16  C   UNL     1       2.587   2.429  18.959  0.00  0.00    +0.000 C 
BRANCH  16  19
ATOM     17  C   UNL     1       1.880   4.726  18.352  0.00  0.00    +0.000 C 
ATOM     18  O   UNL     1       1.290   4.329  17.346  0.00  0.00    +0.000 OA
ATOM     19  N   UNL     1       2.526   3.867  19.203  0.00  0.00    +0.000 N 
ATOM     20  H   UNL     1       3.000   4.251  20.021  0.00  0.00    +0.000 HD
BRANCH  17  26
ATOM     21  C   UNL     1       1.416   8.656  21.547  0.00  0.00    +0.000 C 
ATOM     22  N   UNL     1       1.678   8.107  20.229  0.00  0.00    +0.000 N 
ATOM     23  C   UNL     1       1.974   8.954  19.180  0.00  0.00    +0.000 A 
ATOM     24  C   UNL     1       2.241   8.473  17.962  0.00  0.00    +0.000 A 
ATOM     25  C   UNL     1       2.214   7.051  17.729  0.00  0.00    +0.000 A 
ATOM     26  C   UNL     1       1.914   6.178  18.709  0.00  0.00    +0.000 A 
ATOM     27  C   UNL     1       1.630   6.713  20.080  0.00  0.00    +0.000 A 
ATOM     28  O   UNL     1       1.369   5.950  21.009  0.00  0.00    +0.000 OA
ENDBRANCH  17  26
ENDBRANCH  16  19
ENDBRANCH   1  16
TORSDOF 5
ENDMDL
MODEL 4
REMARK VINA RESULT:      -7.6      4.599      8.137
REMARK  Name = 
REMARK  6 active torsions:
REMARK  status: ('A' for Active; 'I' for Inactive)
REMARK    1  A    between atoms: C_1  and  N_2
REMARK    2  A    between atoms: C_6  and  C_7
REMARK    3  A    between atoms: N_9  and  C_10
REMARK    4  A    between atoms: C_10  and  C_11
REMARK    5  A    between atoms: C_11  and  C_12
REMARK    6  A    between atoms: C_16  and  C_17
REMARK                            x       y       z     vdW  Elec       q    Type
REMARK                         _______ _______ _______ _____ _____    ______ ____
ROOT
ATOM      1  C   UNL     1       1.653   9.175  17.564  0.00  0.00    +0.000 C 
ENDROOT
BRANCH   1   2
ATOM      2  C   UNL     1       1.068   9.904  18.749  0.00  0.00    +0.000 A 
ATOM      3  N   UNL     1       0.730   9.188  19.833  0.00  0.00    +0.000 NA
ATOM      4  C   UNL     1       0.208   9.854  20.887  0.00  0.00    +0.000 A 
ATOM      5  C   UNL     1      -0.001  11.231  20.885  0.00  0.00    +0.000 A 
ATOM      6  C   UNL     1       0.417  11.909  19.740  0.00  0.00    +0.000 A 
ATOM      7  N   UNL     1       0.942  11.239  18.671  0.00  0.00    +0.000 NA
ATOM      8  C   UNL     1      -0.572  11.932  22.089  0.00  0.00    +0.000 C 
ATOM      9  C   UNL     1      -1.272  11.006  23.075  0.00  0.00    +0.000 C 
ATOM     10  C   UNL     1      -0.399   9.796  23.354  0.00  0.00    +0.000 C 
ATOM     11  C   UNL     1      -0.196   9.000  22.066  0.00  0.00    +0.000 C 
BRANCH   6  12
ATOM     12  C   UNL     1       0.342  13.431  19.614  0.00  0.00    +0.000 C 
ATOM     13  F   UNL     1      -0.911  13.967  19.721  0.00  0.00    +0.000 F 
ATOM     14  F   UNL     1       1.067  14.073  20.577  0.00  0.00    +0.000 F 
ATOM     15  F   UNL     1       0.814  13.888  18.419  0.00  0.00    +0.000 F 
ENDBRANCH   6  12
ENDBRANCH   1   2
BRANCH   1  16
ATOM     16  C   UNL     1       2.866   8.337  17.967  0.00  0.00    +0.000 C 
BRANCH  16  19
ATOM     17  C   UNL     1       3.155   5.876  17.915  0.00  0.00    +0.000 C 
ATOM     18  O   UNL     1       4.087   5.955  17.113  0.00  0.00    +0.000 OA
ATOM     19  N   UNL     1       2.512   6.988  18.395  0.00  0.00    +0.000 N 
ATOM     20  H   UNL     1       1.745   6.862  19.056  0.00  0.00    +0.000 HD
BRANCH  17  26
ATOM     21  C   UNL     1       1.434   2.704  21.498  0.00  0.00    +0.000 C 
ATOM     22  N   UNL     1       1.858   2.983  20.138  0.00  0.00    +0.000 N 
ATOM     23  C   UNL     1       1.853   1.973  19.197  0.00  0.00    +0.000 A 
ATOM     24  C   UNL     1       2.219   2.209  17.933  0.00  0.00    +0.000 A 
ATOM     25  C   UNL     1       2.633   3.532  17.540  0.00  0.00    +0.000 A 
ATOM     26  C   UNL     1       2.676   4.552  18.419  0.00  0.00    +0.000 A 
ATOM     27  C   UNL     1       2.252   4.294  19.833  0.00  0.00    +0.000 A 
ATOM     28  O   UNL     1       2.259   5.202  20.664  0.00  0.00    +0.000 OA
ENDBRANCH  17  26
ENDBRANCH  16  19
ENDBRANCH   1  16
TORSDOF 5
ENDMDL
MODEL 5
REMARK VINA RESULT:      -7.6      3.428      4.926
REMARK  Name = 
REMARK  6 active torsions:
REMARK  status: ('A' for Active; 'I' for Inactive)
REMARK    1  A    between atoms: C_1  and  N_2
REMARK    2  A    between atoms: C_6  and  C_7
REMARK    3  A    between atoms: N_9  and  C_10
REMARK    4  A    between atoms: C_10  and  C_11
REMARK    5  A    between atoms: C_11  and  C_12
REMARK    6  A    between atoms: C_16  and  C_17
REMARK                            x       y       z     vdW  Elec       q    Type
REMARK                         _______ _______ _______ _____ _____    ______ ____
ROOT
ATOM      1  C   UNL     1       1.516   6.571  20.641  0.00  0.00    +0.000 C 
ENDROOT
BRANCH   1   2
ATOM      2  C   UNL     1       2.325   5.851  19.589  0.00  0.00    +0.000 A 
ATOM      3  N   UNL     1       3.150   6.575  18.816  0.00  0.00    +0.000 NA
ATOM      4  C   UNL     1       3.869   5.916  17.879  0.00  0.00    +0.000 A 
ATOM      5  C   UNL     1       3.778   4.541  17.681  0.00  0.00    +0.000 A 
ATOM      6  C   UNL     1       2.932   3.855  18.554  0.00  0.00    +0.000 A 
ATOM      7  N   UNL     1       2.201   4.517  19.500  0.00  0.00    +0.000 NA
ATOM      8  C   UNL     1       4.609   3.849  16.634  0.00  0.00    +0.000 C 
ATOM      9  C   UNL     1       5.188   4.784  15.580  0.00  0.00    +0.000 C 
ATOM     10  C   UNL     1       5.820   5.990  16.252  0.00  0.00    +0.000 C 
ATOM     11  C   UNL     1       4.751   6.779  17.006  0.00  0.00    +0.000 C 
BRANCH   6  12
ATOM     12  C   UNL     1       2.788   2.332  18.530  0.00  0.00    +0.000 C 
ATOM     13  F   UNL     1       2.438   1.796  17.323  0.00  0.00    +0.000 F 
ATOM     14  F   UNL     1       3.947   1.692  18.860  0.00  0.00    +0.000 F 
ATOM     15  F   UNL     1       1.843   1.876  19.400  0.00  0.00    +0.000 F 
ENDBRANCH   6  12
ENDBRANCH   1   2
BRANCH   1  16
ATOM     16  C   UNL     1       1.795   8.074  20.628  0.00  0.00    +0.000 C 
BRANCH  16  19
ATOM     17  C   UNL     1       0.552   9.554  19.076  0.00  0.00    +0.000 C 
ATOM     18  O   UNL     1       1.457   9.517  18.241  0.00  0.00    +0.000 OA
ATOM     19  N   UNL     1       0.627   8.868  20.262  0.00  0.00    +0.000 N 
ATOM     20  H   UNL     1      -0.152   8.937  20.916  0.00  0.00    +0.000 HD
BRANCH  17  26
ATOM     21  C   UNL     1      -3.022  12.940  20.350  0.00  0.00    +0.000 C 
ATOM     22  N   UNL     1      -2.451  11.972  19.432  0.00  0.00    +0.000 N 
ATOM     23  C   UNL     1      -3.079  11.714  18.229  0.00  0.00    +0.000 A 
ATOM     24  C   UNL     1      -2.563  10.843  17.357  0.00  0.00    +0.000 A 
ATOM     25  C   UNL     1      -1.338  10.152  17.670  0.00  0.00    +0.000 A 
ATOM     26  C   UNL     1      -0.692  10.348  18.836  0.00  0.00    +0.000 A 
ATOM     27  C   UNL     1      -1.259  11.336  19.809  0.00  0.00    +0.000 A 
ATOM     28  O   UNL     1      -0.692  11.559  20.878  0.00  0.00    +0.000 OA
ENDBRANCH  17  26
ENDBRANCH  16  19
ENDBRANCH   1  16
TORSDOF 5
ENDMDL
MODEL 6
REMARK VINA RESULT:      -7.5      4.484      6.178
REMARK  Name = 
REMARK  6 active torsions:
REMARK  status: ('A' for Active; 'I' for Inactive)
REMARK    1  A    between atoms: C_1  and  N_2
REMARK    2  A    between atoms: C_6  and  C_7
REMARK    3  A    between atoms: N_9  and  C_10
REMARK    4  A    between atoms: C_10  and  C_11
REMARK    5  A    between atoms: C_11  and  C_12
REMARK    6  A    between atoms: C_16  and  C_17
REMARK                            x       y       z     vdW  Elec       q    Type
REMARK                         _______ _______ _______ _____ _____    ______ ____
ROOT
ATOM      1  C   UNL     1       0.913   8.154  21.168  0.00  0.00    +0.000 C 
ENDROOT
BRANCH   1   2
ATOM      2  C   UNL     1       1.671   7.115  20.378  0.00  0.00    +0.000 A 
ATOM      3  N   UNL     1       2.422   7.525  19.344  0.00  0.00    +0.000 NA
ATOM      4  C   UNL     1       3.095   6.583  18.646  0.00  0.00    +0.000 A 
ATOM      5  C   UNL     1       3.029   5.225  18.946  0.00  0.00    +0.000 A 
ATOM      6  C   UNL     1       2.263   4.884  20.061  0.00  0.00    +0.000 A 
ATOM      7  N   UNL     1       1.578   5.833  20.767  0.00  0.00    +0.000 NA
ATOM      8  C   UNL     1       3.809   4.214  18.149  0.00  0.00    +0.000 C 
ATOM      9  C   UNL     1       4.291   4.723  16.797  0.00  0.00    +0.000 C 
ATOM     10  C   UNL     1       4.932   6.090  16.960  0.00  0.00    +0.000 C 
ATOM     11  C   UNL     1       3.894   7.089  17.466  0.00  0.00    +0.000 C 
BRANCH   6  12
ATOM     12  C   UNL     1       2.159   3.449  20.578  0.00  0.00    +0.000 C 
ATOM     13  F   UNL     1       3.349   2.848  20.881  0.00  0.00    +0.000 F 
ATOM     14  F   UNL     1       1.434   3.359  21.731  0.00  0.00    +0.000 F 
ATOM     15  F   UNL     1       1.562   2.607  19.688  0.00  0.00    +0.000 F 
ENDBRANCH   6  12
ENDBRANCH   1   2
BRANCH   1  16
ATOM     16  C   UNL     1       0.930   9.511  20.466  0.00  0.00    +0.000 C 
BRANCH  16  19
ATOM     17  C   UNL     1      -0.885  10.769  19.342  0.00  0.00    +0.000 C 
ATOM     18  O   UNL     1      -0.729  11.744  20.078  0.00  0.00    +0.000 OA
ATOM     19  N   UNL     1      -0.109   9.643  19.451  0.00  0.00    +0.000 N 
ATOM     20  H   UNL     1      -0.284   8.865  18.816  0.00  0.00    +0.000 HD
BRANCH  17  26
ATOM     21  C   UNL     1      -5.378  12.065  17.341  0.00  0.00    +0.000 C 
ATOM     22  N   UNL     1      -4.110  11.360  17.281  0.00  0.00    +0.000 N 
ATOM     23  C   UNL     1      -3.802  10.594  16.174  0.00  0.00    +0.000 A 
ATOM     24  C   UNL     1      -2.633   9.952  16.086  0.00  0.00    +0.000 A 
ATOM     25  C   UNL     1      -1.678  10.048  17.160  0.00  0.00    +0.000 A 
ATOM     26  C   UNL     1      -1.930  10.764  18.272  0.00  0.00    +0.000 A 
ATOM     27  C   UNL     1      -3.233  11.498  18.368  0.00  0.00    +0.000 A 
ATOM     28  O   UNL     1      -3.498  12.179  19.358  0.00  0.00    +0.000 OA
ENDBRANCH  17  26
ENDBRANCH  16  19
ENDBRANCH   1  16
TORSDOF 5
ENDMDL
MODEL 7
REMARK VINA RESULT:      -7.5      3.834      5.623
REMARK  Name = 
REMARK  6 active torsions:
REMARK  status: ('A' for Active; 'I' for Inactive)
REMARK    1  A    between atoms: C_1  and  N_2
REMARK    2  A    between atoms: C_6  and  C_7
REMARK    3  A    between atoms: N_9  and  C_10
REMARK    4  A    between atoms: C_10  and  C_11
REMARK    5  A    between atoms: C_11  and  C_12
REMARK    6  A    between atoms: C_16  and  C_17
REMARK                            x       y       z     vdW  Elec       q    Type
REMARK                         _______ _______ _______ _____ _____    ______ ____
ROOT
ATOM      1  C   UNL     1       2.597   8.646  17.635  0.00  0.00    +0.000 C 
ENDROOT
BRANCH   1   2
ATOM      2  C   UNL     1       2.827   7.246  18.149  0.00  0.00    +0.000 A 
ATOM      3  N   UNL     1       2.013   6.781  19.111  0.00  0.00    +0.000 NA
ATOM      4  C   UNL     1       2.230   5.525  19.561  0.00  0.00    +0.000 A 
ATOM      5  C   UNL     1       3.256   4.714  19.082  0.00  0.00    +0.000 A 
ATOM      6  C   UNL     1       4.029   5.254  18.053  0.00  0.00    +0.000 A 
ATOM      7  N   UNL     1       3.816   6.524  17.598  0.00  0.00    +0.000 NA
ATOM      8  C   UNL     1       3.450   3.315  19.604  0.00  0.00    +0.000 C 
ATOM      9  C   UNL     1       2.753   3.043  20.930  0.00  0.00    +0.000 C 
ATOM     10  C   UNL     1       1.322   3.547  20.873  0.00  0.00    +0.000 C 
ATOM     11  C   UNL     1       1.316   5.061  20.672  0.00  0.00    +0.000 C 
BRANCH   6  12
ATOM     12  C   UNL     1       5.136   4.462  17.356  0.00  0.00    +0.000 C 
ATOM     13  F   UNL     1       5.739   5.096  16.306  0.00  0.00    +0.000 F 
ATOM     14  F   UNL     1       6.165   4.149  18.197  0.00  0.00    +0.000 F 
ATOM     15  F   UNL     1       4.696   3.278  16.841  0.00  0.00    +0.000 F 
ENDBRANCH   6  12
ENDBRANCH   1   2
BRANCH   1  16
ATOM     16  C   UNL     1       1.662   9.433  18.553  0.00  0.00    +0.000 C 
BRANCH  16  19
ATOM     17  C   UNL     1      -0.722  10.106  18.620  0.00  0.00    +0.000 C 
ATOM     18  O   UNL     1      -0.741  10.092  19.851  0.00  0.00    +0.000 OA
ATOM     19  N   UNL     1       0.411   9.812  17.905  0.00  0.00    +0.000 N 
ATOM     20  H   UNL     1       0.368   9.838  16.887  0.00  0.00    +0.000 HD
BRANCH  17  26
ATOM     21  C   UNL     1      -5.216  12.385  17.931  0.00  0.00    +0.000 C 
ATOM     22  N   UNL     1      -4.133  11.535  17.472  0.00  0.00    +0.000 N 
ATOM     23  C   UNL     1      -4.193  10.967  16.215  0.00  0.00    +0.000 A 
ATOM     24  C   UNL     1      -3.199  10.198  15.760  0.00  0.00    +0.000 A 
ATOM     25  C   UNL     1      -2.048   9.946  16.589  0.00  0.00    +0.000 A 
ATOM     26  C   UNL     1      -1.942  10.458  17.830  0.00  0.00    +0.000 A 
ATOM     27  C   UNL     1      -3.048  11.333  18.337  0.00  0.00    +0.000 A 
ATOM     28  O   UNL     1      -2.984  11.836  19.459  0.00  0.00    +0.000 OA
ENDBRANCH  17  26
ENDBRANCH  16  19
ENDBRANCH   1  16
TORSDOF 5
ENDMDL
MODEL 8
REMARK VINA RESULT:      -7.4      3.451      4.756
REMARK  Name = 
REMARK  6 active torsions:
REMARK  status: ('A' for Active; 'I' for Inactive)
REMARK    1  A    between atoms: C_1  and  N_2
REMARK    2  A    between atoms: C_6  and  C_7
REMARK    3  A    between atoms: N_9  and  C_10
REMARK    4  A    between atoms: C_10  and  C_11
REMARK    5  A    between atoms: C_11  and  C_12
REMARK    6  A    between atoms: C_16  and  C_17
REMARK                            x       y       z     vdW  Elec       q    Type
REMARK                         _______ _______ _______ _____ _____    ______ ____
ROOT
ATOM      1  C   UNL     1       1.399   6.393  20.506  0.00  0.00    +0.000 C 
ENDROOT
BRANCH   1   2
ATOM      2  C   UNL     1       2.258   5.685  19.486  0.00  0.00    +0.000 A 
ATOM      3  N   UNL     1       3.097   6.421  18.740  0.00  0.00    +0.000 NA
ATOM      4  C   UNL     1       3.860   5.773  17.832  0.00  0.00    +0.000 A 
ATOM      5  C   UNL     1       3.801   4.396  17.635  0.00  0.00    +0.000 A 
ATOM      6  C   UNL     1       2.938   3.697  18.480  0.00  0.00    +0.000 A 
ATOM      7  N   UNL     1       2.161   4.348  19.397  0.00  0.00    +0.000 NA
ATOM      8  C   UNL     1       4.682   3.716  16.621  0.00  0.00    +0.000 C 
ATOM      9  C   UNL     1       5.280   4.658  15.585  0.00  0.00    +0.000 C 
ATOM     10  C   UNL     1       5.866   5.878  16.275  0.00  0.00    +0.000 C 
ATOM     11  C   UNL     1       4.757   6.649  16.987  0.00  0.00    +0.000 C 
BRANCH   6  12
ATOM     12  C   UNL     1       2.822   2.172  18.456  0.00  0.00    +0.000 C 
ATOM     13  F   UNL     1       3.970   1.492  18.753  0.00  0.00    +0.000 F 
ATOM     14  F   UNL     1       1.910   1.702  19.356  0.00  0.00    +0.000 F 
ATOM     15  F   UNL     1       2.437   1.690  17.240  0.00  0.00    +0.000 F 
ENDBRANCH   6  12
ENDBRANCH   1   2
BRANCH   1  16
ATOM     16  C   UNL     1       1.906   7.809  20.775  0.00  0.00    +0.000 C 
BRANCH  16  19
ATOM     17  C   UNL     1       0.755   9.652  21.968  0.00  0.00    +0.000 C 
ATOM     18  O   UNL     1       1.609   9.674  22.856  0.00  0.00    +0.000 OA
ATOM     19  N   UNL     1       0.829   8.785  20.908  0.00  0.00    +0.000 N 
ATOM     20  H   UNL     1       0.092   8.811  20.203  0.00  0.00    +0.000 HD
BRANCH  17  26
ATOM     21  C   UNL     1      -2.465  12.996  19.891  0.00  0.00    +0.000 C 
ATOM     22  N   UNL     1      -1.981  12.224  21.021  0.00  0.00    +0.000 N 
ATOM     23  C   UNL     1      -2.605  12.336  22.247  0.00  0.00    +0.000 A 
ATOM     24  C   UNL     1      -2.192  11.620  23.297  0.00  0.00    +0.000 A 
ATOM     25  C   UNL     1      -1.074  10.721  23.159  0.00  0.00    +0.000 A 
ATOM     26  C   UNL     1      -0.413  10.585  21.994  0.00  0.00    +0.000 A 
ATOM     27  C   UNL     1      -0.884  11.374  20.810  0.00  0.00    +0.000 A 
ATOM     28  O   UNL     1      -0.322  11.267  19.721  0.00  0.00    +0.000 OA
ENDBRANCH  17  26
ENDBRANCH  16  19
ENDBRANCH   1  16
TORSDOF 5
ENDMDL
MODEL 9
REMARK VINA RESULT:      -7.4      3.900      5.382
REMARK  Name = 
REMARK  6 active torsions:
REMARK  status: ('A' for Active; 'I' for Inactive)
REMARK    1  A    between atoms: C_1  and  N_2
REMARK    2  A    between atoms: C_6  and  C_7
REMARK    3  A    between atoms: N_9  and  C_10
REMARK    4  A    between atoms: C_10  and  C_11
REMARK    5  A    between atoms: C_11  and  C_12
REMARK    6  A    between atoms: C_16  and  C_17
REMARK                            x       y       z     vdW  Elec       q    Type
REMARK                         _______ _______ _______ _____ _____    ______ ____
ROOT
ATOM      1  C   UNL     1       2.021   8.178  18.927  0.00  0.00    +0.000 C 
ENDROOT
BRANCH   1   2
ATOM      2  C   UNL     1       2.738   6.995  18.323  0.00  0.00    +0.000 A 
ATOM      3  N   UNL     1       3.797   7.229  17.532  0.00  0.00    +0.000 NA
ATOM      4  C   UNL     1       4.429   6.160  16.999  0.00  0.00    +0.000 A 
ATOM      5  C   UNL     1       4.022   4.847  17.224  0.00  0.00    +0.000 A 
ATOM      6  C   UNL     1       2.941   4.686  18.093  0.00  0.00    +0.000 A 
ATOM      7  N   UNL     1       2.297   5.764  18.631  0.00  0.00    +0.000 NA
ATOM      8  C   UNL     1       4.767   3.687  16.620  0.00  0.00    +0.000 C 
ATOM      9  C   UNL     1       5.672   4.067  15.456  0.00  0.00    +0.000 C 
ATOM     10  C   UNL     1       6.505   5.281  15.826  0.00  0.00    +0.000 C 
ATOM     11  C   UNL     1       5.589   6.476  16.083  0.00  0.00    +0.000 C 
BRANCH   6  12
ATOM     12  C   UNL     1       2.427   3.309  18.516  0.00  0.00    +0.000 C 
ATOM     13  F   UNL     1       3.293   2.567  19.270  0.00  0.00    +0.000 F 
ATOM     14  F   UNL     1       1.296   3.384  19.277  0.00  0.00    +0.000 F 
ATOM     15  F   UNL     1       2.118   2.510  17.456  0.00  0.00    +0.000 F 
ENDBRANCH   6  12
ENDBRANCH   1   2
BRANCH   1  16
ATOM     16  C   UNL     1       1.649   9.209  17.862  0.00  0.00    +0.000 C 
BRANCH  16  19
ATOM     17  C   UNL     1       0.050  10.965  18.571  0.00  0.00    +0.000 C 
ATOM     18  O   UNL     1       0.959  11.711  18.937  0.00  0.00    +0.000 OA
ATOM     19  N   UNL     1       0.297   9.733  18.022  0.00  0.00    +0.000 N 
ATOM     20  H   UNL     1      -0.495   9.156  17.738  0.00  0.00    +0.000 HD
BRANCH  17  26
ATOM     21  C   UNL     1      -4.714  11.493  16.870  0.00  0.00    +0.000 C 
ATOM     22  N   UNL     1      -3.699  11.657  17.895  0.00  0.00    +0.000 N 
ATOM     23  C   UNL     1      -4.031  12.245  19.100  0.00  0.00    +0.000 A 
ATOM     24  C   UNL     1      -3.121  12.388  20.068  0.00  0.00    +0.000 A 
ATOM     25  C   UNL     1      -1.770  11.933  19.858  0.00  0.00    +0.000 A 
ATOM     26  C   UNL     1      -1.384  11.370  18.698  0.00  0.00    +0.000 A 
ATOM     27  C   UNL     1      -2.405  11.193  17.615  0.00  0.00    +0.000 A 
ATOM     28  O   UNL     1      -2.100  10.667  16.546  0.00  0.00    +0.000 OA
ENDBRANCH  17  26
ENDBRANCH  16  19
ENDBRANCH   1  16
TORSDOF 5
ENDMDL
