MODEL 1
REMARK VINA RESULT:      -8.2      0.000      0.000
REMARK  Name = 
REMARK  10 active torsions:
REMARK  status: ('A' for Active; 'I' for Inactive)
REMARK    1  A    between atoms: C_1  and  O_2
REMARK    2  A    between atoms: O_2  and  C_3
REMARK    3  A    between atoms: C_5  and  C_6
REMARK    4  A    between atoms: C_11  and  O_12
REMARK    5  A    between atoms: C_14  and  O_15
REMARK    6  A    between atoms: C_16  and  C_17
REMARK    7  A    between atoms: C_17  and  C_18
REMARK    8  A    between atoms: C_19  and  C_20
REMARK    9  A    between atoms: C_19  and  C_21
REMARK   10  A    between atoms: C_26  and  O_27
REMARK                            x       y       z     vdW  Elec       q    Type
REMARK                         _______ _______ _______ _____ _____    ______ ____
ROOT
ATOM      1  C   UNL     1       2.518   6.971  18.193  0.00  0.00    +0.000 C 
ATOM      2  C   UNL     1       2.635   5.962  19.327  0.00  0.00    +0.000 C 
ATOM      3  C   UNL     1       2.861   4.678  18.659  0.00  0.00    +0.000 C 
ATOM      4  O   UNL     1       2.146   3.705  18.692  0.00  0.00    +0.000 OA
ATOM      5  C   UNL     1       4.152   4.705  18.015  0.00  0.00    +0.000 A 
ATOM      6  C   UNL     1       5.165   3.902  18.532  0.00  0.00    +0.000 A 
ATOM      7  C   UNL     1       6.440   4.014  18.021  0.00  0.00    +0.000 A 
ATOM      8  C   UNL     1       6.647   4.815  16.897  0.00  0.00    +0.000 A 
ATOM      9  C   UNL     1       5.615   5.635  16.365  0.00  0.00    +0.000 A 
ATOM     10  C   UNL     1       4.416   5.757  17.127  0.00  0.00    +0.000 A 
ATOM     11  O   UNL     1       3.725   6.985  17.309  0.00  0.00    +0.000 OA
ENDROOT
BRANCH   1  14
ATOM     12  C   UNL     1       0.968   9.536  20.787  0.00  0.00    +0.000 A 
ATOM     13  C   UNL     1       1.665   8.388  20.290  0.00  0.00    +0.000 A 
ATOM     14  C   UNL     1       1.936   8.226  18.917  0.00  0.00    +0.000 A 
ATOM     15  C   UNL     1       1.448   9.249  18.062  0.00  0.00    +0.000 A 
ATOM     16  C   UNL     1       0.732  10.361  18.526  0.00  0.00    +0.000 A 
ATOM     17  C   UNL     1       0.506  10.513  19.883  0.00  0.00    +0.000 A 
BRANCH  12  19
ATOM     18  C   UNL     1      -0.503   9.224  22.667  0.00  0.00    +0.000 C 
ATOM     19  O   UNL     1       0.786   9.553  22.146  0.00  0.00    +0.000 OA
ENDBRANCH  12  19
BRANCH  17  20
ATOM     20  O   UNL     1      -0.196  11.624  20.283  0.00  0.00    +0.000 OA
ATOM     21  H   UNL     1       0.379  12.201  20.803  0.00  0.00    +0.000 HD
ENDBRANCH  17  20
ENDBRANCH   1  14
BRANCH   6  22
ATOM     22  O   UNL     1       5.000   3.097  19.621  0.00  0.00    +0.000 OA
ATOM     23  H   UNL     1       4.481   2.307  19.380  0.00  0.00    +0.000 HD
ENDBRANCH   6  22
BRANCH   8  24
ATOM     24  O   UNL     1       7.845   4.707  16.253  0.00  0.00    +0.000 OA
ATOM     25  H   UNL     1       7.962   3.800  15.932  0.00  0.00    +0.000 HD
ENDBRANCH   8  24
BRANCH   9  26
ATOM     26  C   UNL     1       5.605   5.659  14.820  0.00  0.00    +0.000 C 
BRANCH  26  27
ATOM     27  C   UNL     1       5.509   4.360  14.042  0.00  0.00    +0.000 C 
ATOM     28  C   UNL     1       6.254   3.983  12.986  0.00  0.00    +0.000 C 
ATOM     29  C   UNL     1       7.430   4.760  12.467  0.00  0.00    +0.000 C 
ATOM     30  C   UNL     1       5.953   2.726  12.200  0.00  0.00    +0.000 C 
ENDBRANCH  26  27
ENDBRANCH   9  26
TORSDOF 7
ENDMDL
MODEL 2
REMARK VINA RESULT:      -8.2      1.381      2.439
REMARK  Name = 
REMARK  10 active torsions:
REMARK  status: ('A' for Active; 'I' for Inactive)
REMARK    1  A    between atoms: C_1  and  O_2
REMARK    2  A    between atoms: O_2  and  C_3
REMARK    3  A    between atoms: C_5  and  C_6
REMARK    4  A    between atoms: C_11  and  O_12
REMARK    5  A    between atoms: C_14  and  O_15
REMARK    6  A    between atoms: C_16  and  C_17
REMARK    7  A    between atoms: C_17  and  C_18
REMARK    8  A    between atoms: C_19  and  C_20
REMARK    9  A    between atoms: C_19  and  C_21
REMARK   10  A    between atoms: C_26  and  O_27
REMARK                            x       y       z     vdW  Elec       q    Type
REMARK                         _______ _______ _______ _____ _____    ______ ____
ROOT
ATOM      1  C   UNL     1       3.319   5.770  18.259  0.00  0.00    +0.000 C 
ATOM      2  C   UNL     1       4.431   5.558  19.277  0.00  0.00    +0.000 C 
ATOM      3  C   UNL     1       5.119   4.346  18.827  0.00  0.00    +0.000 C 
ATOM      4  O   UNL     1       5.216   3.300  19.423  0.00  0.00    +0.000 OA
ATOM      5  C   UNL     1       5.776   4.618  17.571  0.00  0.00    +0.000 A 
ATOM      6  C   UNL     1       7.167   4.661  17.548  0.00  0.00    +0.000 A 
ATOM      7  C   UNL     1       7.809   5.054  16.394  0.00  0.00    +0.000 A 
ATOM      8  C   UNL     1       7.055   5.247  15.236  0.00  0.00    +0.000 A 
ATOM      9  C   UNL     1       5.635   5.201  15.253  0.00  0.00    +0.000 A 
ATOM     10  C   UNL     1       4.997   5.139  16.528  0.00  0.00    +0.000 A 
ATOM     11  O   UNL     1       3.834   5.885  16.860  0.00  0.00    +0.000 OA
ENDROOT
BRANCH   1  14
ATOM     12  C   UNL     1       1.395   9.061  19.345  0.00  0.00    +0.000 A 
ATOM     13  C   UNL     1       2.093   8.129  18.511  0.00  0.00    +0.000 A 
ATOM     14  C   UNL     1       2.418   6.835  18.961  0.00  0.00    +0.000 A 
ATOM     15  C   UNL     1       2.044   6.528  20.296  0.00  0.00    +0.000 A 
ATOM     16  C   UNL     1       1.393   7.440  21.140  0.00  0.00    +0.000 A 
ATOM     17  C   UNL     1       1.056   8.695  20.663  0.00  0.00    +0.000 A 
BRANCH  12  19
ATOM     18  C   UNL     1      -0.175  10.547  18.287  0.00  0.00    +0.000 C 
ATOM     19  O   UNL     1       1.145  10.277  18.763  0.00  0.00    +0.000 OA
ENDBRANCH  12  19
BRANCH  17  20
ATOM     20  O   UNL     1       0.415   9.545  21.530  0.00  0.00    +0.000 OA
ATOM     21  H   UNL     1       0.950   9.658  22.328  0.00  0.00    +0.000 HD
ENDBRANCH  17  20
ENDBRANCH   1  14
BRANCH   6  22
ATOM     22  O   UNL     1       7.940   4.468  18.656  0.00  0.00    +0.000 OA
ATOM     23  H   UNL     1       7.388   4.493  19.459  0.00  0.00    +0.000 HD
ENDBRANCH   6  22
BRANCH   8  24
ATOM     24  O   UNL     1       7.727   5.374  14.055  0.00  0.00    +0.000 OA
ATOM     25  H   UNL     1       8.605   4.970  14.133  0.00  0.00    +0.000 HD
ENDBRANCH   8  24
BRANCH   9  26
ATOM     26  C   UNL     1       5.041   4.502  14.010  0.00  0.00    +0.000 C 
BRANCH  26  27
ATOM     27  C   UNL     1       5.894   3.544  13.200  0.00  0.00    +0.000 C 
ATOM     28  C   UNL     1       5.555   2.913  12.059  0.00  0.00    +0.000 C 
ATOM     29  C   UNL     1       4.278   3.161  11.309  0.00  0.00    +0.000 C 
ATOM     30  C   UNL     1       6.441   1.859  11.433  0.00  0.00    +0.000 C 
ENDBRANCH  26  27
ENDBRANCH   9  26
TORSDOF 7
ENDMDL
MODEL 3
REMARK VINA RESULT:      -8.2      0.809      1.739
REMARK  Name = 
REMARK  10 active torsions:
REMARK  status: ('A' for Active; 'I' for Inactive)
REMARK    1  A    between atoms: C_1  and  O_2
REMARK    2  A    between atoms: O_2  and  C_3
REMARK    3  A    between atoms: C_5  and  C_6
REMARK    4  A    between atoms: C_11  and  O_12
REMARK    5  A    between atoms: C_14  and  O_15
REMARK    6  A    between atoms: C_16  and  C_17
REMARK    7  A    between atoms: C_17  and  C_18
REMARK    8  A    between atoms: C_19  and  C_20
REMARK    9  A    between atoms: C_19  and  C_21
REMARK   10  A    between atoms: C_26  and  O_27
REMARK                            x       y       z     vdW  Elec       q    Type
REMARK                         _______ _______ _______ _____ _____    ______ ____
ROOT
ATOM      1  C   UNL     1       2.329   7.046  18.474  0.00  0.00    +0.000 C 
ATOM      2  C   UNL     1       2.454   6.007  19.579  0.00  0.00    +0.000 C 
ATOM      3  C   UNL     1       2.738   4.752  18.879  0.00  0.00    +0.000 C 
ATOM      4  O   UNL     1       2.056   3.755  18.864  0.00  0.00    +0.000 OA
ATOM      5  C   UNL     1       4.043   4.841  18.268  0.00  0.00    +0.000 A 
ATOM      6  C   UNL     1       5.069   4.056  18.785  0.00  0.00    +0.000 A 
ATOM      7  C   UNL     1       6.351   4.226  18.310  0.00  0.00    +0.000 A 
ATOM      8  C   UNL     1       6.558   5.068  17.216  0.00  0.00    +0.000 A 
ATOM      9  C   UNL     1       5.512   5.869  16.683  0.00  0.00    +0.000 A 
ATOM     10  C   UNL     1       4.292   5.928  17.419  0.00  0.00    +0.000 A 
ATOM     11  O   UNL     1       3.555   7.127  17.621  0.00  0.00    +0.000 OA
ENDROOT
BRANCH   1  14
ATOM     12  C   UNL     1       1.021  10.618  19.585  0.00  0.00    +0.000 A 
ATOM     13  C   UNL     1       1.458   9.557  18.728  0.00  0.00    +0.000 A 
ATOM     14  C   UNL     1       1.689   8.258  19.221  0.00  0.00    +0.000 A 
ATOM     15  C   UNL     1       1.496   8.078  20.616  0.00  0.00    +0.000 A 
ATOM     16  C   UNL     1       1.104   9.113  21.476  0.00  0.00    +0.000 A 
ATOM     17  C   UNL     1       0.852  10.374  20.962  0.00  0.00    +0.000 A 
BRANCH  12  19
ATOM     18  C   UNL     1       1.982  12.556  18.529  0.00  0.00    +0.000 C 
ATOM     19  O   UNL     1       0.834  11.822  18.957  0.00  0.00    +0.000 OA
ENDBRANCH  12  19
BRANCH  17  20
ATOM     20  O   UNL     1       0.467  11.349  21.849  0.00  0.00    +0.000 OA
ATOM     21  H   UNL     1       0.215  10.941  22.689  0.00  0.00    +0.000 HD
ENDBRANCH  17  20
ENDBRANCH   1  14
BRANCH   6  22
ATOM     22  O   UNL     1       4.905   3.213  19.846  0.00  0.00    +0.000 OA
ATOM     23  H   UNL     1       4.022   3.336  20.239  0.00  0.00    +0.000 HD
ENDBRANCH   6  22
BRANCH   8  24
ATOM     24  O   UNL     1       7.774   5.019  16.599  0.00  0.00    +0.000 OA
ATOM     25  H   UNL     1       7.815   5.695  15.905  0.00  0.00    +0.000 HD
ENDBRANCH   8  24
BRANCH   9  26
ATOM     26  C   UNL     1       5.538   5.941  15.140  0.00  0.00    +0.000 C 
BRANCH  26  27
ATOM     27  C   UNL     1       5.494   4.664  14.321  0.00  0.00    +0.000 C 
ATOM     28  C   UNL     1       6.346   4.286  13.350  0.00  0.00    +0.000 C 
ATOM     29  C   UNL     1       7.599   5.034  12.994  0.00  0.00    +0.000 C 
ATOM     30  C   UNL     1       6.101   3.059  12.500  0.00  0.00    +0.000 C 
ENDBRANCH  26  27
ENDBRANCH   9  26
TORSDOF 7
ENDMDL
MODEL 4
REMARK VINA RESULT:      -8.1      1.252      1.801
REMARK  Name = 
REMARK  10 active torsions:
REMARK  status: ('A' for Active; 'I' for Inactive)
REMARK    1  A    between atoms: C_1  and  O_2
REMARK    2  A    between atoms: O_2  and  C_3
REMARK    3  A    between atoms: C_5  and  C_6
REMARK    4  A    between atoms: C_11  and  O_12
REMARK    5  A    between atoms: C_14  and  O_15
REMARK    6  A    between atoms: C_16  and  C_17
REMARK    7  A    between atoms: C_17  and  C_18
REMARK    8  A    between atoms: C_19  and  C_20
REMARK    9  A    between atoms: C_19  and  C_21
REMARK   10  A    between atoms: C_26  and  O_27
REMARK                            x       y       z     vdW  Elec       q    Type
REMARK                         _______ _______ _______ _____ _____    ______ ____
ROOT
ATOM      1  C   UNL     1       3.370   6.225  18.150  0.00  0.00    +0.000 C 
ATOM      2  C   UNL     1       4.437   5.981  19.208  0.00  0.00    +0.000 C 
ATOM      3  C   UNL     1       5.022   4.686  18.853  0.00  0.00    +0.000 C 
ATOM      4  O   UNL     1       5.011   3.676  19.515  0.00  0.00    +0.000 OA
ATOM      5  C   UNL     1       5.726   4.817  17.600  0.00  0.00    +0.000 A 
ATOM      6  C   UNL     1       7.116   4.734  17.611  0.00  0.00    +0.000 A 
ATOM      7  C   UNL     1       7.815   4.993  16.452  0.00  0.00    +0.000 A 
ATOM      8  C   UNL     1       7.105   5.177  15.265  0.00  0.00    +0.000 A 
ATOM      9  C   UNL     1       5.687   5.259  15.248  0.00  0.00    +0.000 A 
ATOM     10  C   UNL     1       5.020   5.336  16.507  0.00  0.00    +0.000 A 
ATOM     11  O   UNL     1       3.923   6.203  16.760  0.00  0.00    +0.000 OA
ENDROOT
BRANCH   1  14
ATOM     12  C   UNL     1       1.119   8.578  20.409  0.00  0.00    +0.000 A 
ATOM     13  C   UNL     1       1.991   7.501  20.048  0.00  0.00    +0.000 A 
ATOM     14  C   UNL     1       2.555   7.408  18.760  0.00  0.00    +0.000 A 
ATOM     15  C   UNL     1       2.179   8.424  17.842  0.00  0.00    +0.000 A 
ATOM     16  C   UNL     1       1.298   9.465  18.167  0.00  0.00    +0.000 A 
ATOM     17  C   UNL     1       0.783   9.552  19.448  0.00  0.00    +0.000 A 
BRANCH  12  19
ATOM     18  C   UNL     1       1.321   9.318  22.691  0.00  0.00    +0.000 C 
ATOM     19  O   UNL     1       0.656   8.533  21.699  0.00  0.00    +0.000 OA
ENDBRANCH  12  19
BRANCH  17  20
ATOM     20  O   UNL     1      -0.071  10.595  19.713  0.00  0.00    +0.000 OA
ATOM     21  H   UNL     1       0.441  11.390  19.915  0.00  0.00    +0.000 HD
ENDBRANCH  17  20
ENDBRANCH   1  14
BRANCH   6  22
ATOM     22  O   UNL     1       7.845   4.544  18.749  0.00  0.00    +0.000 OA
ATOM     23  H   UNL     1       7.877   5.369  19.269  0.00  0.00    +0.000 HD
ENDBRANCH   6  22
BRANCH   8  24
ATOM     24  O   UNL     1       7.810   5.168  14.097  0.00  0.00    +0.000 OA
ATOM     25  H   UNL     1       7.353   4.615  13.444  0.00  0.00    +0.000 HD
ENDBRANCH   8  24
BRANCH   9  26
ATOM     26  C   UNL     1       5.058   4.537  14.036  0.00  0.00    +0.000 C 
BRANCH  26  27
ATOM     27  C   UNL     1       5.900   3.599  13.191  0.00  0.00    +0.000 C 
ATOM     28  C   UNL     1       5.543   2.986  12.047  0.00  0.00    +0.000 C 
ATOM     29  C   UNL     1       4.250   3.239  11.326  0.00  0.00    +0.000 C 
ATOM     30  C   UNL     1       6.423   1.950  11.384  0.00  0.00    +0.000 C 
ENDBRANCH  26  27
ENDBRANCH   9  26
TORSDOF 7
ENDMDL
MODEL 5
REMARK VINA RESULT:      -7.4      1.126      1.393
REMARK  Name = 
REMARK  10 active torsions:
REMARK  status: ('A' for Active; 'I' for Inactive)
REMARK    1  A    between atoms: C_1  and  O_2
REMARK    2  A    between atoms: O_2  and  C_3
REMARK    3  A    between atoms: C_5  and  C_6
REMARK    4  A    between atoms: C_11  and  O_12
REMARK    5  A    between atoms: C_14  and  O_15
REMARK    6  A    between atoms: C_16  and  C_17
REMARK    7  A    between atoms: C_17  and  C_18
REMARK    8  A    between atoms: C_19  and  C_20
REMARK    9  A    between atoms: C_19  and  C_21
REMARK   10  A    between atoms: C_26  and  O_27
REMARK                            x       y       z     vdW  Elec       q    Type
REMARK                         _______ _______ _______ _____ _____    ______ ____
ROOT
ATOM      1  C   UNL     1       2.303   7.560  18.272  0.00  0.00    +0.000 C 
ATOM      2  C   UNL     1       1.796   6.382  19.091  0.00  0.00    +0.000 C 
ATOM      3  C   UNL     1       2.188   5.199  18.321  0.00  0.00    +0.000 C 
ATOM      4  O   UNL     1       1.455   4.377  17.825  0.00  0.00    +0.000 OA
ATOM      5  C   UNL     1       3.628   5.095  18.323  0.00  0.00    +0.000 A 
ATOM      6  C   UNL     1       4.214   4.051  19.034  0.00  0.00    +0.000 A 
ATOM      7  C   UNL     1       5.584   4.012  19.164  0.00  0.00    +0.000 A 
ATOM      8  C   UNL     1       6.355   4.930  18.448  0.00  0.00    +0.000 A 
ATOM      9  C   UNL     1       5.762   5.994  17.718  0.00  0.00    +0.000 A 
ATOM     10  C   UNL     1       4.362   6.208  17.893  0.00  0.00    +0.000 A 
ATOM     11  O   UNL     1       3.777   7.497  18.025  0.00  0.00    +0.000 OA
ENDROOT
BRANCH   1  14
ATOM     12  C   UNL     1       0.613  10.131  20.771  0.00  0.00    +0.000 A 
ATOM     13  C   UNL     1       1.469   9.084  20.301  0.00  0.00    +0.000 A 
ATOM     14  C   UNL     1       1.568   8.770  18.931  0.00  0.00    +0.000 A 
ATOM     15  C   UNL     1       0.747   9.531  18.058  0.00  0.00    +0.000 A 
ATOM     16  C   UNL     1      -0.124  10.535  18.504  0.00  0.00    +0.000 A 
ATOM     17  C   UNL     1      -0.179  10.846  19.851  0.00  0.00    +0.000 A 
BRANCH  12  19
ATOM     18  C   UNL     1      -0.401   9.721  22.915  0.00  0.00    +0.000 C 
ATOM     19  O   UNL     1       0.630  10.320  22.129  0.00  0.00    +0.000 OA
ENDBRANCH  12  19
BRANCH  17  20
ATOM     20  O   UNL     1      -1.045  11.842  20.231  0.00  0.00    +0.000 OA
ATOM     21  H   UNL     1      -1.820  11.836  19.652  0.00  0.00    +0.000 HD
ENDBRANCH  17  20
ENDBRANCH   1  14
BRANCH   6  22
ATOM     22  O   UNL     1       3.495   3.129  19.737  0.00  0.00    +0.000 OA
ATOM     23  H   UNL     1       3.298   2.356  19.175  0.00  0.00    +0.000 HD
ENDBRANCH   6  22
BRANCH   8  24
ATOM     24  O   UNL     1       7.701   4.711  18.380  0.00  0.00    +0.000 OA
ATOM     25  H   UNL     1       7.982   4.695  17.452  0.00  0.00    +0.000 HD
ENDBRANCH   8  24
BRANCH   9  26
ATOM     26  C   UNL     1       6.465   6.262  16.369  0.00  0.00    +0.000 C 
BRANCH  26  27
ATOM     27  C   UNL     1       5.847   5.755  15.079  0.00  0.00    +0.000 C 
ATOM     28  C   UNL     1       5.734   4.476  14.673  0.00  0.00    +0.000 C 
ATOM     29  C   UNL     1       6.098   3.291  15.520  0.00  0.00    +0.000 C 
ATOM     30  C   UNL     1       5.238   4.114  13.291  0.00  0.00    +0.000 C 
ENDBRANCH  26  27
ENDBRANCH   9  26
TORSDOF 7
ENDMDL
MODEL 6
REMARK VINA RESULT:      -7.3      2.729      8.602
REMARK  Name = 
REMARK  10 active torsions:
REMARK  status: ('A' for Active; 'I' for Inactive)
REMARK    1  A    between atoms: C_1  and  O_2
REMARK    2  A    between atoms: O_2  and  C_3
REMARK    3  A    between atoms: C_5  and  C_6
REMARK    4  A    between atoms: C_11  and  O_12
REMARK    5  A    between atoms: C_14  and  O_15
REMARK    6  A    between atoms: C_16  and  C_17
REMARK    7  A    between atoms: C_17  and  C_18
REMARK    8  A    between atoms: C_19  and  C_20
REMARK    9  A    between atoms: C_19  and  C_21
REMARK   10  A    between atoms: C_26  and  O_27
REMARK                            x       y       z     vdW  Elec       q    Type
REMARK                         _______ _______ _______ _____ _____    ______ ____
ROOT
ATOM      1  C   UNL     1       1.929   7.931  20.124  0.00  0.00    +0.000 C 
ATOM      2  C   UNL     1       1.087   7.916  21.392  0.00  0.00    +0.000 C 
ATOM      3  C   UNL     1       1.230   9.263  21.948  0.00  0.00    +0.000 C 
ATOM      4  O   UNL     1       1.717   9.563  23.012  0.00  0.00    +0.000 OA
ATOM      5  C   UNL     1       0.596  10.208  21.060  0.00  0.00    +0.000 A 
ATOM      6  C   UNL     1      -0.571  10.835  21.487  0.00  0.00    +0.000 A 
ATOM      7  C   UNL     1      -1.266  11.633  20.606  0.00  0.00    +0.000 A 
ATOM      8  C   UNL     1      -0.701  11.915  19.361  0.00  0.00    +0.000 A 
ATOM      9  C   UNL     1       0.492  11.280  18.922  0.00  0.00    +0.000 A 
ATOM     10  C   UNL     1       0.991  10.203  19.715  0.00  0.00    +0.000 A 
ATOM     11  O   UNL     1       1.507   8.999  19.165  0.00  0.00    +0.000 OA
ENDROOT
BRANCH   1  14
ATOM     12  C   UNL     1       2.361   4.426  18.323  0.00  0.00    +0.000 A 
ATOM     13  C   UNL     1       2.487   5.831  18.570  0.00  0.00    +0.000 A 
ATOM     14  C   UNL     1       2.032   6.414  19.770  0.00  0.00    +0.000 A 
ATOM     15  C   UNL     1       1.414   5.531  20.694  0.00  0.00    +0.000 A 
ATOM     16  C   UNL     1       1.249   4.160  20.454  0.00  0.00    +0.000 A 
ATOM     17  C   UNL     1       1.734   3.606  19.281  0.00  0.00    +0.000 A 
BRANCH  12  19
ATOM     18  C   UNL     1       4.243   3.675  17.024  0.00  0.00    +0.000 C 
ATOM     19  O   UNL     1       2.857   4.010  17.114  0.00  0.00    +0.000 OA
ENDBRANCH  12  19
BRANCH  17  20
ATOM     20  O   UNL     1       1.549   2.257  19.100  0.00  0.00    +0.000 OA
ATOM     21  H   UNL     1       1.156   1.874  19.896  0.00  0.00    +0.000 HD
ENDBRANCH  17  20
ENDBRANCH   1  14
BRANCH   6  22
ATOM     22  O   UNL     1      -1.149  10.595  22.699  0.00  0.00    +0.000 OA
ATOM     23  H   UNL     1      -1.462   9.673  22.746  0.00  0.00    +0.000 HD
ENDBRANCH   6  22
BRANCH   8  24
ATOM     24  O   UNL     1      -1.269  12.907  18.616  0.00  0.00    +0.000 OA
ATOM     25  H   UNL     1      -1.814  12.517  17.915  0.00  0.00    +0.000 HD
ENDBRANCH   8  24
BRANCH   9  26
ATOM     26  C   UNL     1       1.436  12.235  18.159  0.00  0.00    +0.000 C 
BRANCH  26  27
ATOM     27  C   UNL     1       2.480  13.034  18.917  0.00  0.00    +0.000 C 
ATOM     28  C   UNL     1       2.461  14.352  19.190  0.00  0.00    +0.000 C 
ATOM     29  C   UNL     1       1.299  15.256  18.889  0.00  0.00    +0.000 C 
ATOM     30  C   UNL     1       3.641  15.059  19.818  0.00  0.00    +0.000 C 
ENDBRANCH  26  27
ENDBRANCH   9  26
TORSDOF 7
ENDMDL
MODEL 7
REMARK VINA RESULT:      -7.3      1.761      2.175
REMARK  Name = 
REMARK  10 active torsions:
REMARK  status: ('A' for Active; 'I' for Inactive)
REMARK    1  A    between atoms: C_1  and  O_2
REMARK    2  A    between atoms: O_2  and  C_3
REMARK    3  A    between atoms: C_5  and  C_6
REMARK    4  A    between atoms: C_11  and  O_12
REMARK    5  A    between atoms: C_14  and  O_15
REMARK    6  A    between atoms: C_16  and  C_17
REMARK    7  A    between atoms: C_17  and  C_18
REMARK    8  A    between atoms: C_19  and  C_20
REMARK    9  A    between atoms: C_19  and  C_21
REMARK   10  A    between atoms: C_26  and  O_27
REMARK                            x       y       z     vdW  Elec       q    Type
REMARK                         _______ _______ _______ _____ _____    ______ ____
ROOT
ATOM      1  C   UNL     1       2.456   7.787  17.493  0.00  0.00    +0.000 C 
ATOM      2  C   UNL     1       1.891   6.875  18.573  0.00  0.00    +0.000 C 
ATOM      3  C   UNL     1       2.215   5.520  18.122  0.00  0.00    +0.000 C 
ATOM      4  O   UNL     1       1.437   4.641  17.839  0.00  0.00    +0.000 OA
ATOM      5  C   UNL     1       3.647   5.343  18.161  0.00  0.00    +0.000 A 
ATOM      6  C   UNL     1       4.181   4.478  19.112  0.00  0.00    +0.000 A 
ATOM      7  C   UNL     1       5.548   4.399  19.258  0.00  0.00    +0.000 A 
ATOM      8  C   UNL     1       6.363   5.070  18.345  0.00  0.00    +0.000 A 
ATOM      9  C   UNL     1       5.823   5.951  17.370  0.00  0.00    +0.000 A 
ATOM     10  C   UNL     1       4.438   6.275  17.476  0.00  0.00    +0.000 A 
ATOM     11  O   UNL     1       3.923   7.586  17.281  0.00  0.00    +0.000 OA
ENDROOT
BRANCH   1  14
ATOM     12  C   UNL     1       1.663  11.486  18.677  0.00  0.00    +0.000 A 
ATOM     13  C   UNL     1       2.419  10.352  18.235  0.00  0.00    +0.000 A 
ATOM     14  C   UNL     1       1.790   9.159  17.828  0.00  0.00    +0.000 A 
ATOM     15  C   UNL     1       0.373   9.141  17.915  0.00  0.00    +0.000 A 
ATOM     16  C   UNL     1      -0.381  10.228  18.379  0.00  0.00    +0.000 A 
ATOM     17  C   UNL     1       0.258  11.401  18.743  0.00  0.00    +0.000 A 
BRANCH  12  19
ATOM     18  C   UNL     1       2.620  13.609  18.070  0.00  0.00    +0.000 C 
ATOM     19  O   UNL     1       2.417  12.574  19.033  0.00  0.00    +0.000 OA
ENDBRANCH  12  19
BRANCH  17  20
ATOM     20  O   UNL     1      -0.530  12.435  19.185  0.00  0.00    +0.000 OA
ATOM     21  H   UNL     1      -0.097  12.878  19.927  0.00  0.00    +0.000 HD
ENDBRANCH  17  20
ENDBRANCH   1  14
BRANCH   6  22
ATOM     22  O   UNL     1       3.418   3.797  20.016  0.00  0.00    +0.000 OA
ATOM     23  H   UNL     1       2.601   3.476  19.591  0.00  0.00    +0.000 HD
ENDBRANCH   6  22
BRANCH   8  24
ATOM     24  O   UNL     1       7.694   4.769  18.343  0.00  0.00    +0.000 OA
ATOM     25  H   UNL     1       8.038   4.816  17.438  0.00  0.00    +0.000 HD
ENDBRANCH   8  24
BRANCH   9  26
ATOM     26  C   UNL     1       6.532   5.840  16.002  0.00  0.00    +0.000 C 
BRANCH  26  27
ATOM     27  C   UNL     1       6.117   4.762  15.018  0.00  0.00    +0.000 C 
ATOM     28  C   UNL     1       6.626   4.532  13.793  0.00  0.00    +0.000 C 
ATOM     29  C   UNL     1       7.818   5.252  13.231  0.00  0.00    +0.000 C 
ATOM     30  C   UNL     1       6.016   3.522  12.847  0.00  0.00    +0.000 C 
ENDBRANCH  26  27
ENDBRANCH   9  26
TORSDOF 7
ENDMDL
MODEL 8
REMARK VINA RESULT:      -7.3      1.503      1.761
REMARK  Name = 
REMARK  10 active torsions:
REMARK  status: ('A' for Active; 'I' for Inactive)
REMARK    1  A    between atoms: C_1  and  O_2
REMARK    2  A    between atoms: O_2  and  C_3
REMARK    3  A    between atoms: C_5  and  C_6
REMARK    4  A    between atoms: C_11  and  O_12
REMARK    5  A    between atoms: C_14  and  O_15
REMARK    6  A    between atoms: C_16  and  C_17
REMARK    7  A    between atoms: C_17  and  C_18
REMARK    8  A    between atoms: C_19  and  C_20
REMARK    9  A    between atoms: C_19  and  C_21
REMARK   10  A    between atoms: C_26  and  O_27
REMARK                            x       y       z     vdW  Elec       q    Type
REMARK                         _______ _______ _______ _____ _____    ______ ____
ROOT
ATOM      1  C   UNL     1       2.574   7.741  17.719  0.00  0.00    +0.000 C 
ATOM      2  C   UNL     1       1.973   6.768  18.723  0.00  0.00    +0.000 C 
ATOM      3  C   UNL     1       2.193   5.445  18.135  0.00  0.00    +0.000 C 
ATOM      4  O   UNL     1       1.350   4.651  17.792  0.00  0.00    +0.000 OA
ATOM      5  C   UNL     1       3.610   5.171  18.115  0.00  0.00    +0.000 A 
ATOM      6  C   UNL     1       4.104   4.184  18.963  0.00  0.00    +0.000 A 
ATOM      7  C   UNL     1       5.466   4.001  19.061  0.00  0.00    +0.000 A 
ATOM      8  C   UNL     1       6.304   4.702  18.192  0.00  0.00    +0.000 A 
ATOM      9  C   UNL     1       5.804   5.707  17.322  0.00  0.00    +0.000 A 
ATOM     10  C   UNL     1       4.447   6.111  17.499  0.00  0.00    +0.000 A 
ATOM     11  O   UNL     1       4.019   7.465  17.445  0.00  0.00    +0.000 OA
ENDROOT
BRANCH   1  14
ATOM     12  C   UNL     1       0.312  10.720  19.029  0.00  0.00    +0.000 A 
ATOM     13  C   UNL     1       0.763   9.381  18.797  0.00  0.00    +0.000 A 
ATOM     14  C   UNL     1       2.012   9.115  18.202  0.00  0.00    +0.000 A 
ATOM     15  C   UNL     1       2.774  10.251  17.820  0.00  0.00    +0.000 A 
ATOM     16  C   UNL     1       2.333  11.569  18.007  0.00  0.00    +0.000 A 
ATOM     17  C   UNL     1       1.116  11.804  18.623  0.00  0.00    +0.000 A 
BRANCH  12  19
ATOM     18  C   UNL     1      -2.028  11.245  18.828  0.00  0.00    +0.000 C 
ATOM     19  O   UNL     1      -0.920  10.816  19.622  0.00  0.00    +0.000 OA
ENDBRANCH  12  19
BRANCH  17  20
ATOM     20  O   UNL     1       0.736  13.114  18.784  0.00  0.00    +0.000 OA
ATOM     21  H   UNL     1      -0.060  13.155  19.332  0.00  0.00    +0.000 HD
ENDBRANCH  17  20
ENDBRANCH   1  14
BRANCH   6  22
ATOM     22  O   UNL     1       3.317   3.470  19.820  0.00  0.00    +0.000 OA
ATOM     23  H   UNL     1       2.401   3.802  19.790  0.00  0.00    +0.000 HD
ENDBRANCH   6  22
BRANCH   8  24
ATOM     24  O   UNL     1       7.611   4.316  18.122  0.00  0.00    +0.000 OA
ATOM     25  H   UNL     1       8.182   5.099  18.096  0.00  0.00    +0.000 HD
ENDBRANCH   8  24
BRANCH   9  26
ATOM     26  C   UNL     1       6.472   5.683  15.929  0.00  0.00    +0.000 C 
BRANCH  26  27
ATOM     27  C   UNL     1       6.070   4.630  14.914  0.00  0.00    +0.000 C 
ATOM     28  C   UNL     1       6.564   4.459  13.673  0.00  0.00    +0.000 C 
ATOM     29  C   UNL     1       7.726   5.232  13.118  0.00  0.00    +0.000 C 
ATOM     30  C   UNL     1       5.966   3.467  12.700  0.00  0.00    +0.000 C 
ENDBRANCH  26  27
ENDBRANCH   9  26
TORSDOF 7
ENDMDL
MODEL 9
REMARK VINA RESULT:      -7.3      1.243      2.123
REMARK  Name = 
REMARK  10 active torsions:
REMARK  status: ('A' for Active; 'I' for Inactive)
REMARK    1  A    between atoms: C_1  and  O_2
REMARK    2  A    between atoms: O_2  and  C_3
REMARK    3  A    between atoms: C_5  and  C_6
REMARK    4  A    between atoms: C_11  and  O_12
REMARK    5  A    between atoms: C_14  and  O_15
REMARK    6  A    between atoms: C_16  and  C_17
REMARK    7  A    between atoms: C_17  and  C_18
REMARK    8  A    between atoms: C_19  and  C_20
REMARK    9  A    between atoms: C_19  and  C_21
REMARK   10  A    between atoms: C_26  and  O_27
REMARK                            x       y       z     vdW  Elec       q    Type
REMARK                         _______ _______ _______ _____ _____    ______ ____
ROOT
ATOM      1  C   UNL     1       2.280   7.460  18.316  0.00  0.00    +0.000 C 
ATOM      2  C   UNL     1       1.695   6.244  19.021  0.00  0.00    +0.000 C 
ATOM      3  C   UNL     1       2.035   5.113  18.154  0.00  0.00    +0.000 C 
ATOM      4  O   UNL     1       1.267   4.380  17.578  0.00  0.00    +0.000 OA
ATOM      5  C   UNL     1       3.467   4.929  18.163  0.00  0.00    +0.000 A 
ATOM      6  C   UNL     1       3.983   3.796  18.786  0.00  0.00    +0.000 A 
ATOM      7  C   UNL     1       5.347   3.669  18.928  0.00  0.00    +0.000 A 
ATOM      8  C   UNL     1       6.179   4.602  18.306  0.00  0.00    +0.000 A 
ATOM      9  C   UNL     1       5.657   5.758  17.666  0.00  0.00    +0.000 A 
ATOM     10  C   UNL     1       4.268   6.033  17.843  0.00  0.00    +0.000 A 
ATOM     11  O   UNL     1       3.752   7.336  18.081  0.00  0.00    +0.000 OA
ENDROOT
BRANCH   1  14
ATOM     12  C   UNL     1       0.858  10.981  19.452  0.00  0.00    +0.000 A 
ATOM     13  C   UNL     1       1.329   9.941  18.587  0.00  0.00    +0.000 A 
ATOM     14  C   UNL     1       1.601   8.646  19.071  0.00  0.00    +0.000 A 
ATOM     15  C   UNL     1       1.412   8.450  20.465  0.00  0.00    +0.000 A 
ATOM     16  C   UNL     1       0.987   9.466  21.332  0.00  0.00    +0.000 A 
ATOM     17  C   UNL     1       0.696  10.721  20.827  0.00  0.00    +0.000 A 
BRANCH  12  19
ATOM     18  C   UNL     1      -0.692  12.488  18.395  0.00  0.00    +0.000 C 
ATOM     19  O   UNL     1       0.633  12.183  18.832  0.00  0.00    +0.000 OA
ENDBRANCH  12  19
BRANCH  17  20
ATOM     20  O   UNL     1       0.279  11.677  21.721  0.00  0.00    +0.000 OA
ATOM     21  H   UNL     1       1.048  12.099  22.127  0.00  0.00    +0.000 HD
ENDBRANCH  17  20
ENDBRANCH   1  14
BRANCH   6  22
ATOM     22  O   UNL     1       3.204   2.857  19.396  0.00  0.00    +0.000 OA
ATOM     23  H   UNL     1       2.383   2.719  18.887  0.00  0.00    +0.000 HD
ENDBRANCH   6  22
BRANCH   8  24
ATOM     24  O   UNL     1       7.511   4.315  18.234  0.00  0.00    +0.000 OA
ATOM     25  H   UNL     1       7.780   4.240  17.306  0.00  0.00    +0.000 HD
ENDBRANCH   8  24
BRANCH   9  26
ATOM     26  C   UNL     1       6.395   6.104  16.355  0.00  0.00    +0.000 C 
BRANCH  26  27
ATOM     27  C   UNL     1       5.807   5.686  15.020  0.00  0.00    +0.000 C 
ATOM     28  C   UNL     1       5.693   4.436  14.532  0.00  0.00    +0.000 C 
ATOM     29  C   UNL     1       6.026   3.196  15.312  0.00  0.00    +0.000 C 
ATOM     30  C   UNL     1       5.231   4.166  13.118  0.00  0.00    +0.000 C 
ENDBRANCH  26  27
ENDBRANCH   9  26
TORSDOF 7
ENDMDL
