MODEL 1
REMARK VINA RESULT:      -7.8      0.000      0.000
REMARK  Name = 
REMARK  3 active torsions:
REMARK  status: ('A' for Active; 'I' for Inactive)
REMARK    1  A    between atoms: N_11  and  C_12
REMARK    2  A    between atoms: C_12  and  C_13
REMARK    3  A    between atoms: C_13  and  N_14
REMARK                            x       y       z     vdW  Elec       q    Type
REMARK                         _______ _______ _______ _____ _____    ______ ____
ROOT
ATOM      1  O   UNL     1      -0.001   8.892  22.216  0.00  0.00    +0.000 OA
ATOM      2  C   UNL     1       0.074   9.402  21.105  0.00  0.00    +0.000 A 
ATOM      3  N   UNL     1      -0.689  10.483  20.749  0.00  0.00    +0.000 N 
ATOM      4  C   UNL     1      -0.621  11.065  19.520  0.00  0.00    +0.000 A 
ATOM      5  N   UNL     1       0.156  10.671  18.571  0.00  0.00    +0.000 NA
ATOM      6  C   UNL     1       0.989   9.565  18.828  0.00  0.00    +0.000 A 
ATOM      7  C   UNL     1       1.846   9.135  17.807  0.00  0.00    +0.000 A 
ATOM      8  C   UNL     1       2.658   8.028  18.076  0.00  0.00    +0.000 A 
ATOM      9  N   UNL     1       3.596   7.358  17.331  0.00  0.00    +0.000 N 
ATOM     10  C   UNL     1       4.015   6.271  18.051  0.00  0.00    +0.000 A 
ATOM     11  N   UNL     1       4.814   5.353  17.485  0.00  0.00    +0.000 N 
ATOM     12  N   UNL     1       3.467   6.254  19.242  0.00  0.00    +0.000 NA
ATOM     13  C   UNL     1       2.631   7.337  19.282  0.00  0.00    +0.000 A 
ATOM     14  C   UNL     1       1.794   7.779  20.314  0.00  0.00    +0.000 A 
ATOM     15  C   UNL     1       0.984   8.894  20.060  0.00  0.00    +0.000 A 
ATOM     16  H   UNL     1      -1.311  10.840  21.460  0.00  0.00    +0.000 HD
ATOM     17  H   UNL     1       3.859   7.554  16.380  0.00  0.00    +0.000 HD
ATOM     18  H   UNL     1       5.504   5.559  16.767  0.00  0.00    +0.000 HD
ENDROOT
BRANCH  11  19
ATOM     19  C   UNL     1       4.987   4.074  18.157  0.00  0.00    +0.000 C 
BRANCH  19  20
ATOM     20  C   UNL     1       3.862   3.096  17.752  0.00  0.00    +0.000 C 
BRANCH  20  21
ATOM     21  N   UNL     1       2.958   2.670  18.851  0.00  0.00    +0.000 NA
ATOM     22  C   UNL     1       3.570   2.931  20.167  0.00  0.00    +0.000 C 
ATOM     23  C   UNL     1       2.646   2.517  21.312  0.00  0.00    +0.000 C 
ATOM     24  C   UNL     1       1.295   3.213  21.216  0.00  0.00    +0.000 C 
ATOM     25  C   UNL     1       0.693   3.006  19.833  0.00  0.00    +0.000 C 
ATOM     26  C   UNL     1       1.679   3.398  18.731  0.00  0.00    +0.000 C 
ENDBRANCH  20  21
ENDBRANCH  19  20
ENDBRANCH  11  19
TORSDOF 3
ENDMDL
MODEL 2
REMARK VINA RESULT:      -7.7      2.715      7.581
REMARK  Name = 
REMARK  3 active torsions:
REMARK  status: ('A' for Active; 'I' for Inactive)
REMARK    1  A    between atoms: N_11  and  C_12
REMARK    2  A    between atoms: C_12  and  C_13
REMARK    3  A    between atoms: C_13  and  N_14
REMARK                            x       y       z     vdW  Elec       q    Type
REMARK                         _______ _______ _______ _____ _____    ______ ____
ROOT
ATOM      1  O   UNL     1       4.501   4.005  16.310  0.00  0.00    +0.000 OA
ATOM      2  C   UNL     1       4.058   3.596  17.377  0.00  0.00    +0.000 A 
ATOM      3  N   UNL     1       4.148   2.279  17.743  0.00  0.00    +0.000 N 
ATOM      4  C   UNL     1       3.665   1.804  18.924  0.00  0.00    +0.000 A 
ATOM      5  N   UNL     1       3.078   2.528  19.813  0.00  0.00    +0.000 NA
ATOM      6  C   UNL     1       2.933   3.902  19.542  0.00  0.00    +0.000 A 
ATOM      7  C   UNL     1       2.307   4.701  20.507  0.00  0.00    +0.000 A 
ATOM      8  C   UNL     1       2.161   6.061  20.215  0.00  0.00    +0.000 A 
ATOM      9  N   UNL     1       1.617   7.110  20.914  0.00  0.00    +0.000 N 
ATOM     10  C   UNL     1       1.640   8.217  20.107  0.00  0.00    +0.000 A 
ATOM     11  N   UNL     1       1.019   9.344  20.488  0.00  0.00    +0.000 N 
ATOM     12  N   UNL     1       2.242   7.961  18.971  0.00  0.00    +0.000 NA
ATOM     13  C   UNL     1       2.580   6.635  19.022  0.00  0.00    +0.000 A 
ATOM     14  C   UNL     1       3.229   5.845  18.064  0.00  0.00    +0.000 A 
ATOM     15  C   UNL     1       3.391   4.483  18.349  0.00  0.00    +0.000 A 
ATOM     16  H   UNL     1       4.609   1.666  17.085  0.00  0.00    +0.000 HD
ATOM     17  H   UNL     1       1.174   7.066  21.816  0.00  0.00    +0.000 HD
ATOM     18  H   UNL     1       0.915   9.642  21.455  0.00  0.00    +0.000 HD
ENDROOT
BRANCH  11  19
ATOM     19  C   UNL     1       0.796  10.384  19.496  0.00  0.00    +0.000 C 
BRANCH  19  20
ATOM     20  C   UNL     1      -0.504  11.159  19.810  0.00  0.00    +0.000 C 
BRANCH  20  21
ATOM     21  N   UNL     1      -1.699  10.748  19.028  0.00  0.00    +0.000 NA
ATOM     22  C   UNL     1      -2.636  11.876  18.869  0.00  0.00    +0.000 C 
ATOM     23  C   UNL     1      -3.864  11.478  18.051  0.00  0.00    +0.000 C 
ATOM     24  C   UNL     1      -3.469  10.929  16.686  0.00  0.00    +0.000 C 
ATOM     25  C   UNL     1      -2.445   9.813  16.843  0.00  0.00    +0.000 C 
ATOM     26  C   UNL     1      -1.263  10.258  17.706  0.00  0.00    +0.000 C 
ENDBRANCH  20  21
ENDBRANCH  19  20
ENDBRANCH  11  19
TORSDOF 3
ENDMDL
MODEL 3
REMARK VINA RESULT:      -7.6      2.772      7.555
REMARK  Name = 
REMARK  3 active torsions:
REMARK  status: ('A' for Active; 'I' for Inactive)
REMARK    1  A    between atoms: N_11  and  C_12
REMARK    2  A    between atoms: C_12  and  C_13
REMARK    3  A    between atoms: C_13  and  N_14
REMARK                            x       y       z     vdW  Elec       q    Type
REMARK                         _______ _______ _______ _____ _____    ______ ____
ROOT
ATOM      1  O   UNL     1       4.554   4.085  16.381  0.00  0.00    +0.000 OA
ATOM      2  C   UNL     1       4.106   3.715  17.460  0.00  0.00    +0.000 A 
ATOM      3  N   UNL     1       4.209   2.415  17.881  0.00  0.00    +0.000 N 
ATOM      4  C   UNL     1       3.721   1.983  19.076  0.00  0.00    +0.000 A 
ATOM      5  N   UNL     1       3.118   2.736  19.930  0.00  0.00    +0.000 NA
ATOM      6  C   UNL     1       2.958   4.096  19.601  0.00  0.00    +0.000 A 
ATOM      7  C   UNL     1       2.314   4.927  20.527  0.00  0.00    +0.000 A 
ATOM      8  C   UNL     1       2.155   6.272  20.178  0.00  0.00    +0.000 A 
ATOM      9  N   UNL     1       1.592   7.342  20.828  0.00  0.00    +0.000 N 
ATOM     10  C   UNL     1       1.609   8.415  19.977  0.00  0.00    +0.000 A 
ATOM     11  N   UNL     1       0.971   9.549  20.306  0.00  0.00    +0.000 N 
ATOM     12  N   UNL     1       2.224   8.120  18.857  0.00  0.00    +0.000 NA
ATOM     13  C   UNL     1       2.578   6.801  18.965  0.00  0.00    +0.000 A 
ATOM     14  C   UNL     1       3.244   5.980  18.047  0.00  0.00    +0.000 A 
ATOM     15  C   UNL     1       3.420   4.633  18.389  0.00  0.00    +0.000 A 
ATOM     16  H   UNL     1       4.683   1.782  17.253  0.00  0.00    +0.000 HD
ATOM     17  H   UNL     1       1.142   7.329  21.728  0.00  0.00    +0.000 HD
ATOM     18  H   UNL     1       0.856   9.885  21.259  0.00  0.00    +0.000 HD
ENDROOT
BRANCH  11  19
ATOM     19  C   UNL     1       0.744  10.545  19.270  0.00  0.00    +0.000 C 
BRANCH  19  20
ATOM     20  C   UNL     1      -0.615  11.247  19.485  0.00  0.00    +0.000 C 
BRANCH  20  21
ATOM     21  N   UNL     1      -1.508  11.293  18.299  0.00  0.00    +0.000 NA
ATOM     22  C   UNL     1      -1.462  10.019  17.558  0.00  0.00    +0.000 C 
ATOM     23  C   UNL     1      -2.390  10.040  16.343  0.00  0.00    +0.000 C 
ATOM     24  C   UNL     1      -3.824  10.361  16.745  0.00  0.00    +0.000 C 
ATOM     25  C   UNL     1      -3.866  11.637  17.574  0.00  0.00    +0.000 C 
ATOM     26  C   UNL     1      -2.887  11.573  18.747  0.00  0.00    +0.000 C 
ENDBRANCH  20  21
ENDBRANCH  19  20
ENDBRANCH  11  19
TORSDOF 3
ENDMDL
MODEL 4
REMARK VINA RESULT:      -7.6      1.409      2.044
REMARK  Name = 
REMARK  3 active torsions:
REMARK  status: ('A' for Active; 'I' for Inactive)
REMARK    1  A    between atoms: N_11  and  C_12
REMARK    2  A    between atoms: C_12  and  C_13
REMARK    3  A    between atoms: C_13  and  N_14
REMARK                            x       y       z     vdW  Elec       q    Type
REMARK                         _______ _______ _______ _____ _____    ______ ____
ROOT
ATOM      1  O   UNL     1      -0.090   9.539  23.924  0.00  0.00    +0.000 OA
ATOM      2  C   UNL     1      -0.375  10.203  22.935  0.00  0.00    +0.000 A 
ATOM      3  N   UNL     1      -1.224  11.277  23.002  0.00  0.00    +0.000 N 
ATOM      4  C   UNL     1      -1.552  12.030  21.916  0.00  0.00    +0.000 A 
ATOM      5  N   UNL     1      -1.109  11.820  20.725  0.00  0.00    +0.000 NA
ATOM      6  C   UNL     1      -0.224  10.741  20.540  0.00  0.00    +0.000 A 
ATOM      7  C   UNL     1       0.274  10.510  19.251  0.00  0.00    +0.000 A 
ATOM      8  C   UNL     1       1.143   9.427  19.084  0.00  0.00    +0.000 A 
ATOM      9  N   UNL     1       1.807   8.925  17.992  0.00  0.00    +0.000 N 
ATOM     10  C   UNL     1       2.444   7.774  18.373  0.00  0.00    +0.000 A 
ATOM     11  N   UNL     1       3.036   6.994  17.455  0.00  0.00    +0.000 N 
ATOM     12  N   UNL     1       2.299   7.556  19.658  0.00  0.00    +0.000 NA
ATOM     13  C   UNL     1       1.505   8.572  20.118  0.00  0.00    +0.000 A 
ATOM     14  C   UNL     1       1.029   8.814  21.414  0.00  0.00    +0.000 A 
ATOM     15  C   UNL     1       0.167   9.903  21.596  0.00  0.00    +0.000 A 
ATOM     16  H   UNL     1      -1.595  11.492  23.916  0.00  0.00    +0.000 HD
ATOM     17  H   UNL     1       1.755   9.268  17.048  0.00  0.00    +0.000 HD
ATOM     18  H   UNL     1       3.462   7.340  16.599  0.00  0.00    +0.000 HD
ENDROOT
BRANCH  11  19
ATOM     19  C   UNL     1       3.427   5.646  17.837  0.00  0.00    +0.000 C 
BRANCH  19  20
ATOM     20  C   UNL     1       2.196   4.712  17.855  0.00  0.00    +0.000 C 
BRANCH  20  21
ATOM     21  N   UNL     1       2.209   3.655  18.898  0.00  0.00    +0.000 NA
ATOM     22  C   UNL     1       3.537   3.556  19.530  0.00  0.00    +0.000 C 
ATOM     23  C   UNL     1       3.566   2.486  20.621  0.00  0.00    +0.000 C 
ATOM     24  C   UNL     1       2.501   2.743  21.679  0.00  0.00    +0.000 C 
ATOM     25  C   UNL     1       1.138   2.918  21.023  0.00  0.00    +0.000 C 
ATOM     26  C   UNL     1       1.184   3.970  19.914  0.00  0.00    +0.000 C 
ENDBRANCH  20  21
ENDBRANCH  19  20
ENDBRANCH  11  19
TORSDOF 3
ENDMDL
MODEL 5
REMARK VINA RESULT:      -7.5      5.013      8.250
REMARK  Name = 
REMARK  3 active torsions:
REMARK  status: ('A' for Active; 'I' for Inactive)
REMARK    1  A    between atoms: N_11  and  C_12
REMARK    2  A    between atoms: C_12  and  C_13
REMARK    3  A    between atoms: C_13  and  N_14
REMARK                            x       y       z     vdW  Elec       q    Type
REMARK                         _______ _______ _______ _____ _____    ______ ____
ROOT
ATOM      1  O   UNL     1       1.039   4.693  17.116  0.00  0.00    +0.000 OA
ATOM      2  C   UNL     1       1.709   3.999  17.870  0.00  0.00    +0.000 A 
ATOM      3  N   UNL     1       1.195   2.885  18.481  0.00  0.00    +0.000 N 
ATOM      4  C   UNL     1       1.922   2.099  19.322  0.00  0.00    +0.000 A 
ATOM      5  N   UNL     1       3.154   2.311  19.631  0.00  0.00    +0.000 NA
ATOM      6  C   UNL     1       3.787   3.430  19.057  0.00  0.00    +0.000 A 
ATOM      7  C   UNL     1       5.131   3.664  19.378  0.00  0.00    +0.000 A 
ATOM      8  C   UNL     1       5.739   4.786  18.807  0.00  0.00    +0.000 A 
ATOM      9  N   UNL     1       7.008   5.302  18.893  0.00  0.00    +0.000 N 
ATOM     10  C   UNL     1       7.032   6.490  18.211  0.00  0.00    +0.000 A 
ATOM     11  N   UNL     1       8.113   7.283  18.274  0.00  0.00    +0.000 N 
ATOM     12  N   UNL     1       5.883   6.721  17.624  0.00  0.00    +0.000 NA
ATOM     13  C   UNL     1       5.072   5.675  17.972  0.00  0.00    +0.000 A 
ATOM     14  C   UNL     1       3.736   5.431  17.629  0.00  0.00    +0.000 A 
ATOM     15  C   UNL     1       3.118   4.304  18.186  0.00  0.00    +0.000 A 
ATOM     16  H   UNL     1       0.233   2.666  18.266  0.00  0.00    +0.000 HD
ATOM     17  H   UNL     1       7.767   4.942  19.447  0.00  0.00    +0.000 HD
ATOM     18  H   UNL     1       9.066   6.945  18.382  0.00  0.00    +0.000 HD
ENDROOT
BRANCH  11  19
ATOM     19  C   UNL     1       7.996   8.656  17.805  0.00  0.00    +0.000 C 
BRANCH  19  20
ATOM     20  C   UNL     1       8.592   9.633  18.844  0.00  0.00    +0.000 C 
BRANCH  20  21
ATOM     21  N   UNL     1       9.562  10.623  18.309  0.00  0.00    +0.000 NA
ATOM     22  C   UNL     1       8.868  11.836  17.839  0.00  0.00    +0.000 C 
ATOM     23  C   UNL     1       9.852  12.876  17.302  0.00  0.00    +0.000 C 
ATOM     24  C   UNL     1      10.897  13.243  18.347  0.00  0.00    +0.000 C 
ATOM     25  C   UNL     1      11.565  11.986  18.888  0.00  0.00    +0.000 C 
ATOM     26  C   UNL     1      10.530  10.968  19.370  0.00  0.00    +0.000 C 
ENDBRANCH  20  21
ENDBRANCH  19  20
ENDBRANCH  11  19
TORSDOF 3
ENDMDL
MODEL 6
REMARK VINA RESULT:      -7.2      1.650      2.571
REMARK  Name = 
REMARK  3 active torsions:
REMARK  status: ('A' for Active; 'I' for Inactive)
REMARK    1  A    between atoms: N_11  and  C_12
REMARK    2  A    between atoms: C_12  and  C_13
REMARK    3  A    between atoms: C_13  and  N_14
REMARK                            x       y       z     vdW  Elec       q    Type
REMARK                         _______ _______ _______ _____ _____    ______ ____
ROOT
ATOM      1  O   UNL     1      -0.527  10.699  23.489  0.00  0.00    +0.000 OA
ATOM      2  C   UNL     1      -0.965  11.090  22.413  0.00  0.00    +0.000 A 
ATOM      3  N   UNL     1      -2.025  11.955  22.333  0.00  0.00    +0.000 N 
ATOM      4  C   UNL     1      -2.526  12.404  21.149  0.00  0.00    +0.000 A 
ATOM      5  N   UNL     1      -2.067  12.070  19.992  0.00  0.00    +0.000 NA
ATOM      6  C   UNL     1      -0.973  11.185  19.956  0.00  0.00    +0.000 A 
ATOM      7  C   UNL     1      -0.458  10.824  18.704  0.00  0.00    +0.000 A 
ATOM      8  C   UNL     1       0.621   9.935  18.687  0.00  0.00    +0.000 A 
ATOM      9  N   UNL     1       1.360   9.387  17.668  0.00  0.00    +0.000 N 
ATOM     10  C   UNL     1       2.236   8.488  18.214  0.00  0.00    +0.000 A 
ATOM     11  N   UNL     1       2.968   7.690  17.421  0.00  0.00    +0.000 N 
ATOM     12  N   UNL     1       2.163   8.491  19.524  0.00  0.00    +0.000 NA
ATOM     13  C   UNL     1       1.176   9.387  19.837  0.00  0.00    +0.000 A 
ATOM     14  C   UNL     1       0.681   9.764  21.092  0.00  0.00    +0.000 A 
ATOM     15  C   UNL     1      -0.393  10.662  21.122  0.00  0.00    +0.000 A 
ATOM     16  H   UNL     1      -2.418  12.258  23.212  0.00  0.00    +0.000 HD
ATOM     17  H   UNL     1       1.219   9.526  16.682  0.00  0.00    +0.000 HD
ATOM     18  H   UNL     1       3.295   7.949  16.493  0.00  0.00    +0.000 HD
ENDROOT
BRANCH  11  19
ATOM     19  C   UNL     1       3.647   6.550  18.017  0.00  0.00    +0.000 C 
BRANCH  19  20
ATOM     20  C   UNL     1       3.038   5.227  17.500  0.00  0.00    +0.000 C 
BRANCH  20  21
ATOM     21  N   UNL     1       1.996   4.620  18.366  0.00  0.00    +0.000 NA
ATOM     22  C   UNL     1       1.866   3.176  18.098  0.00  0.00    +0.000 C 
ATOM     23  C   UNL     1       0.810   2.528  18.994  0.00  0.00    +0.000 C 
ATOM     24  C   UNL     1       1.114   2.761  20.468  0.00  0.00    +0.000 C 
ATOM     25  C   UNL     1       1.321   4.246  20.735  0.00  0.00    +0.000 C 
ATOM     26  C   UNL     1       2.355   4.845  19.780  0.00  0.00    +0.000 C 
ENDBRANCH  20  21
ENDBRANCH  19  20
ENDBRANCH  11  19
TORSDOF 3
ENDMDL
MODEL 7
REMARK VINA RESULT:      -7.2      2.053      3.601
REMARK  Name = 
REMARK  3 active torsions:
REMARK  status: ('A' for Active; 'I' for Inactive)
REMARK    1  A    between atoms: N_11  and  C_12
REMARK    2  A    between atoms: C_12  and  C_13
REMARK    3  A    between atoms: C_13  and  N_14
REMARK                            x       y       z     vdW  Elec       q    Type
REMARK                         _______ _______ _______ _____ _____    ______ ____
ROOT
ATOM      1  O   UNL     1      -0.074   9.673  23.785  0.00  0.00    +0.000 OA
ATOM      2  C   UNL     1      -0.275  10.237  22.716  0.00  0.00    +0.000 A 
ATOM      3  N   UNL     1      -1.055  11.360  22.624  0.00  0.00    +0.000 N 
ATOM      4  C   UNL     1      -1.291  12.002  21.447  0.00  0.00    +0.000 A 
ATOM      5  N   UNL     1      -0.815  11.632  20.308  0.00  0.00    +0.000 NA
ATOM      6  C   UNL     1       0.004  10.487  20.286  0.00  0.00    +0.000 A 
ATOM      7  C   UNL     1       0.536  10.082  19.055  0.00  0.00    +0.000 A 
ATOM      8  C   UNL     1       1.339   8.936  19.050  0.00  0.00    +0.000 A 
ATOM      9  N   UNL     1       2.011   8.274  18.053  0.00  0.00    +0.000 N 
ATOM     10  C   UNL     1       2.556   7.138  18.589  0.00  0.00    +0.000 A 
ATOM     11  N   UNL     1       3.132   6.225  17.792  0.00  0.00    +0.000 N 
ATOM     12  N   UNL     1       2.347   7.077  19.881  0.00  0.00    +0.000 NA
ATOM     13  C   UNL     1       1.603   8.185  20.189  0.00  0.00    +0.000 A 
ATOM     14  C   UNL     1       1.094   8.601  21.426  0.00  0.00    +0.000 A 
ATOM     15  C   UNL     1       0.298   9.753  21.446  0.00  0.00    +0.000 A 
ATOM     16  H   UNL     1      -1.446  11.700  23.490  0.00  0.00    +0.000 HD
ATOM     17  H   UNL     1       2.018   8.510  17.075  0.00  0.00    +0.000 HD
ATOM     18  H   UNL     1       3.613   6.444  16.923  0.00  0.00    +0.000 HD
ENDROOT
BRANCH  11  19
ATOM     19  C   UNL     1       3.420   4.907  18.338  0.00  0.00    +0.000 C 
BRANCH  19  20
ATOM     20  C   UNL     1       4.516   4.205  17.506  0.00  0.00    +0.000 C 
BRANCH  20  21
ATOM     21  N   UNL     1       5.888   4.751  17.664  0.00  0.00    +0.000 NA
ATOM     22  C   UNL     1       6.099   5.908  16.774  0.00  0.00    +0.000 C 
ATOM     23  C   UNL     1       7.501   6.496  16.935  0.00  0.00    +0.000 C 
ATOM     24  C   UNL     1       7.774   6.891  18.380  0.00  0.00    +0.000 C 
ATOM     25  C   UNL     1       7.487   5.720  19.310  0.00  0.00    +0.000 C 
ATOM     26  C   UNL     1       6.088   5.149  19.072  0.00  0.00    +0.000 C 
ENDBRANCH  20  21
ENDBRANCH  19  20
ENDBRANCH  11  19
TORSDOF 3
ENDMDL
MODEL 8
REMARK VINA RESULT:      -7.2      4.612      7.757
REMARK  Name = 
REMARK  3 active torsions:
REMARK  status: ('A' for Active; 'I' for Inactive)
REMARK    1  A    between atoms: N_11  and  C_12
REMARK    2  A    between atoms: C_12  and  C_13
REMARK    3  A    between atoms: C_13  and  N_14
REMARK                            x       y       z     vdW  Elec       q    Type
REMARK                         _______ _______ _______ _____ _____    ______ ____
ROOT
ATOM      1  O   UNL     1       2.244   3.902  21.318  0.00  0.00    +0.000 OA
ATOM      2  C   UNL     1       2.294   3.462  20.176  0.00  0.00    +0.000 A 
ATOM      3  N   UNL     1       1.528   2.399  19.773  0.00  0.00    +0.000 N 
ATOM      4  C   UNL     1       1.567   1.895  18.509  0.00  0.00    +0.000 A 
ATOM      5  N   UNL     1       2.316   2.354  17.567  0.00  0.00    +0.000 NA
ATOM      6  C   UNL     1       3.145   3.452  17.869  0.00  0.00    +0.000 A 
ATOM      7  C   UNL     1       3.954   3.967  16.848  0.00  0.00    +0.000 A 
ATOM      8  C   UNL     1       4.780   5.049  17.170  0.00  0.00    +0.000 A 
ATOM      9  N   UNL     1       5.673   5.789  16.436  0.00  0.00    +0.000 N 
ATOM     10  C   UNL     1       6.293   6.669  17.282  0.00  0.00    +0.000 A 
ATOM     11  N   UNL     1       7.331   7.403  16.852  0.00  0.00    +0.000 N 
ATOM     12  N   UNL     1       5.790   6.597  18.491  0.00  0.00    +0.000 NA
ATOM     13  C   UNL     1       4.846   5.607  18.441  0.00  0.00    +0.000 A 
ATOM     14  C   UNL     1       4.020   5.111  19.458  0.00  0.00    +0.000 A 
ATOM     15  C   UNL     1       3.181   4.034  19.145  0.00  0.00    +0.000 A 
ATOM     16  H   UNL     1       0.915   2.005  20.472  0.00  0.00    +0.000 HD
ATOM     17  H   UNL     1       5.921   5.647  15.471  0.00  0.00    +0.000 HD
ATOM     18  H   UNL     1       7.445   7.729  15.895  0.00  0.00    +0.000 HD
ENDROOT
BRANCH  11  19
ATOM     19  C   UNL     1       8.155   8.087  17.837  0.00  0.00    +0.000 C 
BRANCH  19  20
ATOM     20  C   UNL     1       7.919   9.612  17.772  0.00  0.00    +0.000 C 
BRANCH  20  21
ATOM     21  N   UNL     1       9.073  10.457  18.172  0.00  0.00    +0.000 NA
ATOM     22  C   UNL     1       8.834  11.871  17.827  0.00  0.00    +0.000 C 
ATOM     23  C   UNL     1      10.004  12.760  18.249  0.00  0.00    +0.000 C 
ATOM     24  C   UNL     1      10.295  12.627  19.738  0.00  0.00    +0.000 C 
ATOM     25  C   UNL     1      10.469  11.161  20.111  0.00  0.00    +0.000 C 
ATOM     26  C   UNL     1       9.289  10.318  19.626  0.00  0.00    +0.000 C 
ENDBRANCH  20  21
ENDBRANCH  19  20
ENDBRANCH  11  19
TORSDOF 3
ENDMDL
MODEL 9
REMARK VINA RESULT:      -7.2      1.953      3.075
REMARK  Name = 
REMARK  3 active torsions:
REMARK  status: ('A' for Active; 'I' for Inactive)
REMARK    1  A    between atoms: N_11  and  C_12
REMARK    2  A    between atoms: C_12  and  C_13
REMARK    3  A    between atoms: C_13  and  N_14
REMARK                            x       y       z     vdW  Elec       q    Type
REMARK                         _______ _______ _______ _____ _____    ______ ____
ROOT
ATOM      1  O   UNL     1      -1.228  11.549  23.444  0.00  0.00    +0.000 OA
ATOM      2  C   UNL     1      -1.634  11.865  22.332  0.00  0.00    +0.000 A 
ATOM      3  N   UNL     1      -2.684  12.729  22.161  0.00  0.00    +0.000 N 
ATOM      4  C   UNL     1      -3.151  13.094  20.936  0.00  0.00    +0.000 A 
ATOM      5  N   UNL     1      -2.665  12.675  19.819  0.00  0.00    +0.000 NA
ATOM      6  C   UNL     1      -1.578  11.782  19.875  0.00  0.00    +0.000 A 
ATOM      7  C   UNL     1      -1.035  11.328  18.666  0.00  0.00    +0.000 A 
ATOM      8  C   UNL     1       0.037  10.433  18.741  0.00  0.00    +0.000 A 
ATOM      9  N   UNL     1       0.796   9.808  17.784  0.00  0.00    +0.000 N 
ATOM     10  C   UNL     1       1.651   8.944  18.416  0.00  0.00    +0.000 A 
ATOM     11  N   UNL     1       2.396   8.086  17.702  0.00  0.00    +0.000 N 
ATOM     12  N   UNL     1       1.545   9.043  19.720  0.00  0.00    +0.000 NA
ATOM     13  C   UNL     1       0.558   9.965  19.942  0.00  0.00    +0.000 A 
ATOM     14  C   UNL     1       0.034  10.435  21.153  0.00  0.00    +0.000 A 
ATOM     15  C   UNL     1      -1.033  11.341  21.091  0.00  0.00    +0.000 A 
ATOM     16  H   UNL     1      -3.097  13.096  23.006  0.00  0.00    +0.000 HD
ATOM     17  H   UNL     1       0.683   9.877  16.787  0.00  0.00    +0.000 HD
ATOM     18  H   UNL     1       2.749   8.276  16.767  0.00  0.00    +0.000 HD
ENDROOT
BRANCH  11  19
ATOM     19  C   UNL     1       3.050   6.988  18.396  0.00  0.00    +0.000 C 
BRANCH  19  20
ATOM     20  C   UNL     1       2.449   5.635  17.953  0.00  0.00    +0.000 C 
BRANCH  20  21
ATOM     21  N   UNL     1       2.466   4.560  18.978  0.00  0.00    +0.000 NA
ATOM     22  C   UNL     1       2.219   5.112  20.323  0.00  0.00    +0.000 C 
ATOM     23  C   UNL     1       2.213   4.017  21.390  0.00  0.00    +0.000 C 
ATOM     24  C   UNL     1       1.189   2.936  21.072  0.00  0.00    +0.000 C 
ATOM     25  C   UNL     1       1.395   2.415  19.656  0.00  0.00    +0.000 C 
ATOM     26  C   UNL     1       1.434   3.559  18.641  0.00  0.00    +0.000 C 
ENDBRANCH  20  21
ENDBRANCH  19  20
ENDBRANCH  11  19
TORSDOF 3
ENDMDL
