MODEL 1
REMARK VINA RESULT:      -8.1      0.000      0.000
REMARK  Name = 
REMARK  11 active torsions:
REMARK  status: ('A' for Active; 'I' for Inactive)
REMARK    1  A    between atoms: C_1  and  O_2
REMARK    2  A    between atoms: O_2  and  C_3
REMARK    3  A    between atoms: C_6  and  C_7
REMARK    4  A    between atoms: C_10  and  C_11
REMARK    5  A    between atoms: C_11  and  C_12
REMARK    6  A    between atoms: C_12  and  C_13
REMARK    7  A    between atoms: C_13  and  C_14
REMARK    8  A    between atoms: N_16  and  C_17
REMARK    9  A    between atoms: C_20  and  S_21
REMARK   10  A    between atoms: S_21  and  N_24
REMARK   11  A    between atoms: C_27  and  C_28
REMARK                            x       y       z     vdW  Elec       q    Type
REMARK                         _______ _______ _______ _____ _____    ______ ____
ROOT
ATOM      1  C   UNL     1       4.642   5.111  18.562  0.00  0.00    +0.000 C 
ATOM      2  O   UNL     1       5.213   5.341  19.620  0.00  0.00    +0.000 OA
ATOM      3  N   UNL     1       3.478   5.722  18.120  0.00  0.00    +0.000 N 
ATOM      4  H   UNL     1       3.147   5.468  17.197  0.00  0.00    +0.000 HD
ENDROOT
BRANCH   3   5
ATOM      5  C   UNL     1       2.716   6.709  18.799  0.00  0.00    +0.000 A 
ATOM      6  C   UNL     1       2.181   6.533  20.082  0.00  0.00    +0.000 A 
ATOM      7  C   UNL     1       1.476   7.573  20.725  0.00  0.00    +0.000 A 
ATOM      8  C   UNL     1       1.306   8.791  20.072  0.00  0.00    +0.000 A 
ATOM      9  C   UNL     1       1.790   8.963  18.769  0.00  0.00    +0.000 A 
ATOM     10  C   UNL     1       2.494   7.927  18.144  0.00  0.00    +0.000 A 
BRANCH   8  11
ATOM     11  S   UNL     1       0.435  10.140  20.853  0.00  0.00    +0.000 S 
ATOM     12  O   UNL     1      -0.880   9.618  21.196  0.00  0.00    +0.000 OA
ATOM     13  O   UNL     1       1.306  10.709  21.862  0.00  0.00    +0.000 OA
BRANCH  11  14
ATOM     14  N   UNL     1       0.274  11.255  19.591  0.00  0.00    +0.000 NA
ATOM     15  C   UNL     1       1.154  12.437  19.545  0.00  0.00    +0.000 C 
ATOM     16  C   UNL     1       0.532  13.615  20.295  0.00  0.00    +0.000 C 
ATOM     17  C   UNL     1      -0.939  13.895  19.936  0.00  0.00    +0.000 C 
ATOM     18  C   UNL     1      -1.582  14.799  21.001  0.00  0.00    +0.000 C 
ATOM     19  C   UNL     1      -1.780  12.621  19.747  0.00  0.00    +0.000 C 
ATOM     20  C   UNL     1      -1.053  11.508  19.006  0.00  0.00    +0.000 C 
ENDBRANCH  11  14
ENDBRANCH   8  11
ENDBRANCH   3   5
BRANCH   1  21
ATOM     21  C   UNL     1       5.208   4.097  17.583  0.00  0.00    +0.000 C 
BRANCH  21  22
ATOM     22  C   UNL     1       6.575   4.552  17.054  0.00  0.00    +0.000 C 
BRANCH  22  23
ATOM     23  C   UNL     1       6.513   5.967  16.475  0.00  0.00    +0.000 C 
BRANCH  23  27
ATOM     24  C   UNL     1       8.236   8.551  18.222  0.00  0.00    +0.000 A 
ATOM     25  N   UNL     1       8.563   7.500  18.992  0.00  0.00    +0.000 NA
ATOM     26  O   UNL     1       7.913   6.428  18.392  0.00  0.00    +0.000 OA
ATOM     27  C   UNL     1       7.252   6.933  17.315  0.00  0.00    +0.000 A 
ATOM     28  N   UNL     1       7.406   8.227  17.166  0.00  0.00    +0.000 NA
BRANCH  24  32
ATOM     29  C   UNL     1       9.688  12.533  18.827  0.00  0.00    +0.000 A 
ATOM     30  C   UNL     1      10.049  11.512  19.707  0.00  0.00    +0.000 A 
ATOM     31  C   UNL     1       9.577  10.208  19.516  0.00  0.00    +0.000 A 
ATOM     32  C   UNL     1       8.720   9.910  18.447  0.00  0.00    +0.000 A 
ATOM     33  C   UNL     1       8.341  10.948  17.584  0.00  0.00    +0.000 A 
ATOM     34  C   UNL     1       8.821  12.251  17.772  0.00  0.00    +0.000 A 
BRANCH  29  36
ATOM     35  C   UNL     1      11.515  13.776  19.693  0.00  0.00    +0.000 C 
ATOM     36  O   UNL     1      10.209  13.763  19.119  0.00  0.00    +0.000 OA
ENDBRANCH  29  36
ENDBRANCH  24  32
ENDBRANCH  23  27
ENDBRANCH  22  23
ENDBRANCH  21  22
ENDBRANCH   1  21
TORSDOF 9
ENDMDL
MODEL 2
REMARK VINA RESULT:      -8.0      1.457      1.928
REMARK  Name = 
REMARK  11 active torsions:
REMARK  status: ('A' for Active; 'I' for Inactive)
REMARK    1  A    between atoms: C_1  and  O_2
REMARK    2  A    between atoms: O_2  and  C_3
REMARK    3  A    between atoms: C_6  and  C_7
REMARK    4  A    between atoms: C_10  and  C_11
REMARK    5  A    between atoms: C_11  and  C_12
REMARK    6  A    between atoms: C_12  and  C_13
REMARK    7  A    between atoms: C_13  and  C_14
REMARK    8  A    between atoms: N_16  and  C_17
REMARK    9  A    between atoms: C_20  and  S_21
REMARK   10  A    between atoms: S_21  and  N_24
REMARK   11  A    between atoms: C_27  and  C_28
REMARK                            x       y       z     vdW  Elec       q    Type
REMARK                         _______ _______ _______ _____ _____    ______ ____
ROOT
ATOM      1  C   UNL     1       4.183   5.896  18.399  0.00  0.00    +0.000 C 
ATOM      2  O   UNL     1       4.169   6.198  17.213  0.00  0.00    +0.000 OA
ATOM      3  N   UNL     1       3.428   6.495  19.396  0.00  0.00    +0.000 N 
ATOM      4  H   UNL     1       3.504   6.105  20.328  0.00  0.00    +0.000 HD
ENDROOT
BRANCH   3   5
ATOM      5  C   UNL     1       2.515   7.572  19.251  0.00  0.00    +0.000 A 
ATOM      6  C   UNL     1       2.271   8.228  18.037  0.00  0.00    +0.000 A 
ATOM      7  C   UNL     1       1.311   9.259  17.947  0.00  0.00    +0.000 A 
ATOM      8  C   UNL     1       0.598   9.632  19.083  0.00  0.00    +0.000 A 
ATOM      9  C   UNL     1       0.869   9.021  20.314  0.00  0.00    +0.000 A 
ATOM     10  C   UNL     1       1.818   7.995  20.390  0.00  0.00    +0.000 A 
BRANCH   8  11
ATOM     11  S   UNL     1      -0.637  10.920  19.013  0.00  0.00    +0.000 S 
ATOM     12  O   UNL     1      -1.455  10.622  17.847  0.00  0.00    +0.000 OA
ATOM     13  O   UNL     1      -1.224  11.047  20.333  0.00  0.00    +0.000 OA
BRANCH  11  14
ATOM     14  N   UNL     1       0.287  12.302  18.700  0.00  0.00    +0.000 NA
ATOM     15  C   UNL     1       1.625  12.437  19.304  0.00  0.00    +0.000 C 
ATOM     16  C   UNL     1       1.547  13.135  20.662  0.00  0.00    +0.000 C 
ATOM     17  C   UNL     1       0.706  14.424  20.670  0.00  0.00    +0.000 C 
ATOM     18  C   UNL     1       0.354  14.819  22.113  0.00  0.00    +0.000 C 
ATOM     19  C   UNL     1      -0.573  14.330  19.821  0.00  0.00    +0.000 C 
ATOM     20  C   UNL     1      -0.382  13.597  18.500  0.00  0.00    +0.000 C 
ENDBRANCH  11  14
ENDBRANCH   8  11
ENDBRANCH   3   5
BRANCH   1  21
ATOM     21  C   UNL     1       5.060   4.761  18.897  0.00  0.00    +0.000 C 
BRANCH  21  22
ATOM     22  C   UNL     1       6.423   5.288  19.363  0.00  0.00    +0.000 C 
BRANCH  22  23
ATOM     23  C   UNL     1       7.360   5.553  18.182  0.00  0.00    +0.000 C 
BRANCH  23  27
ATOM     24  C   UNL     1       8.367   8.970  18.230  0.00  0.00    +0.000 A 
ATOM     25  N   UNL     1       7.472   9.013  17.228  0.00  0.00    +0.000 NA
ATOM     26  O   UNL     1       7.028   7.700  17.120  0.00  0.00    +0.000 OA
ATOM     27  C   UNL     1       7.698   6.987  18.065  0.00  0.00    +0.000 A 
ATOM     28  N   UNL     1       8.537   7.710  18.769  0.00  0.00    +0.000 NA
BRANCH  24  32
ATOM     29  C   UNL     1      10.529  12.370  19.680  0.00  0.00    +0.000 A 
ATOM     30  C   UNL     1       9.856  11.533  20.570  0.00  0.00    +0.000 A 
ATOM     31  C   UNL     1       9.146  10.420  20.103  0.00  0.00    +0.000 A 
ATOM     32  C   UNL     1       9.085  10.139  18.731  0.00  0.00    +0.000 A 
ATOM     33  C   UNL     1       9.742  11.001  17.842  0.00  0.00    +0.000 A 
ATOM     34  C   UNL     1      10.459  12.110  18.311  0.00  0.00    +0.000 A 
BRANCH  29  36
ATOM     35  C   UNL     1      10.475  14.126  21.276  0.00  0.00    +0.000 C 
ATOM     36  O   UNL     1      11.182  13.424  20.255  0.00  0.00    +0.000 OA
ENDBRANCH  29  36
ENDBRANCH  24  32
ENDBRANCH  23  27
ENDBRANCH  22  23
ENDBRANCH  21  22
ENDBRANCH   1  21
TORSDOF 9
ENDMDL
MODEL 3
REMARK VINA RESULT:      -7.9      4.363      5.912
REMARK  Name = 
REMARK  11 active torsions:
REMARK  status: ('A' for Active; 'I' for Inactive)
REMARK    1  A    between atoms: C_1  and  O_2
REMARK    2  A    between atoms: O_2  and  C_3
REMARK    3  A    between atoms: C_6  and  C_7
REMARK    4  A    between atoms: C_10  and  C_11
REMARK    5  A    between atoms: C_11  and  C_12
REMARK    6  A    between atoms: C_12  and  C_13
REMARK    7  A    between atoms: C_13  and  C_14
REMARK    8  A    between atoms: N_16  and  C_17
REMARK    9  A    between atoms: C_20  and  S_21
REMARK   10  A    between atoms: S_21  and  N_24
REMARK   11  A    between atoms: C_27  and  C_28
REMARK                            x       y       z     vdW  Elec       q    Type
REMARK                         _______ _______ _______ _____ _____    ______ ____
ROOT
ATOM      1  C   UNL     1       2.176   5.863  20.611  0.00  0.00    +0.000 C 
ATOM      2  O   UNL     1       2.722   5.995  19.523  0.00  0.00    +0.000 OA
ATOM      3  N   UNL     1       1.478   6.849  21.291  0.00  0.00    +0.000 N 
ATOM      4  H   UNL     1       1.034   6.582  22.162  0.00  0.00    +0.000 HD
ENDROOT
BRANCH   3   5
ATOM      5  C   UNL     1       1.270   8.192  20.880  0.00  0.00    +0.000 A 
ATOM      6  C   UNL     1       1.369   8.624  19.551  0.00  0.00    +0.000 A 
ATOM      7  C   UNL     1       1.098   9.963  19.198  0.00  0.00    +0.000 A 
ATOM      8  C   UNL     1       0.732  10.871  20.188  0.00  0.00    +0.000 A 
ATOM      9  C   UNL     1       0.680  10.466  21.529  0.00  0.00    +0.000 A 
ATOM     10  C   UNL     1       0.943   9.133  21.865  0.00  0.00    +0.000 A 
BRANCH   8  11
ATOM     11  S   UNL     1       0.366  12.572  19.788  0.00  0.00    +0.000 S 
ATOM     12  O   UNL     1       0.173  12.607  18.346  0.00  0.00    +0.000 OA
ATOM     13  O   UNL     1      -0.665  13.033  20.698  0.00  0.00    +0.000 OA
BRANCH  11  14
ATOM     14  N   UNL     1       1.812  13.362  20.170  0.00  0.00    +0.000 NA
ATOM     15  C   UNL     1       1.822  14.396  21.221  0.00  0.00    +0.000 C 
ATOM     16  C   UNL     1       1.546  15.779  20.634  0.00  0.00    +0.000 C 
ATOM     17  C   UNL     1       2.381  16.123  19.387  0.00  0.00    +0.000 C 
ATOM     18  C   UNL     1       1.762  17.320  18.647  0.00  0.00    +0.000 C 
ATOM     19  C   UNL     1       2.560  14.939  18.420  0.00  0.00    +0.000 C 
ATOM     20  C   UNL     1       2.809  13.609  19.117  0.00  0.00    +0.000 C 
ENDBRANCH  11  14
ENDBRANCH   8  11
ENDBRANCH   3   5
BRANCH   1  21
ATOM     21  C   UNL     1       2.204   4.527  21.333  0.00  0.00    +0.000 C 
BRANCH  21  22
ATOM     22  C   UNL     1       1.204   3.546  20.708  0.00  0.00    +0.000 C 
BRANCH  22  23
ATOM     23  C   UNL     1       1.914   2.384  20.010  0.00  0.00    +0.000 C 
BRANCH  23  27
ATOM     24  C   UNL     1       3.704   3.498  17.139  0.00  0.00    +0.000 A 
ATOM     25  N   UNL     1       2.485   3.342  16.598  0.00  0.00    +0.000 NA
ATOM     26  O   UNL     1       1.705   2.885  17.654  0.00  0.00    +0.000 OA
ATOM     27  C   UNL     1       2.528   2.806  18.734  0.00  0.00    +0.000 A 
ATOM     28  N   UNL     1       3.765   3.161  18.477  0.00  0.00    +0.000 NA
BRANCH  24  32
ATOM     29  C   UNL     1       7.096   5.024  15.017  0.00  0.00    +0.000 A 
ATOM     30  C   UNL     1       5.961   4.607  14.321  0.00  0.00    +0.000 A 
ATOM     31  C   UNL     1       4.849   4.105  15.008  0.00  0.00    +0.000 A 
ATOM     32  C   UNL     1       4.864   3.998  16.406  0.00  0.00    +0.000 A 
ATOM     33  C   UNL     1       6.019   4.395  17.094  0.00  0.00    +0.000 A 
ATOM     34  C   UNL     1       7.129   4.903  16.406  0.00  0.00    +0.000 A 
BRANCH  29  36
ATOM     35  C   UNL     1       7.988   5.277  12.832  0.00  0.00    +0.000 C 
ATOM     36  O   UNL     1       8.117   5.490  14.236  0.00  0.00    +0.000 OA
ENDBRANCH  29  36
ENDBRANCH  24  32
ENDBRANCH  23  27
ENDBRANCH  22  23
ENDBRANCH  21  22
ENDBRANCH   1  21
TORSDOF 9
ENDMDL
MODEL 4
REMARK VINA RESULT:      -7.8      3.666      7.648
REMARK  Name = 
REMARK  11 active torsions:
REMARK  status: ('A' for Active; 'I' for Inactive)
REMARK    1  A    between atoms: C_1  and  O_2
REMARK    2  A    between atoms: O_2  and  C_3
REMARK    3  A    between atoms: C_6  and  C_7
REMARK    4  A    between atoms: C_10  and  C_11
REMARK    5  A    between atoms: C_11  and  C_12
REMARK    6  A    between atoms: C_12  and  C_13
REMARK    7  A    between atoms: C_13  and  C_14
REMARK    8  A    between atoms: N_16  and  C_17
REMARK    9  A    between atoms: C_20  and  S_21
REMARK   10  A    between atoms: S_21  and  N_24
REMARK   11  A    between atoms: C_27  and  C_28
REMARK                            x       y       z     vdW  Elec       q    Type
REMARK                         _______ _______ _______ _____ _____    ______ ____
ROOT
ATOM      1  C   UNL     1       8.692   9.717  18.388  0.00  0.00    +0.000 C 
ATOM      2  O   UNL     1       7.722  10.249  17.864  0.00  0.00    +0.000 OA
ATOM      3  N   UNL     1       8.824   8.364  18.662  0.00  0.00    +0.000 N 
ATOM      4  H   UNL     1       9.707   8.058  19.054  0.00  0.00    +0.000 HD
ENDROOT
BRANCH   3   5
ATOM      5  C   UNL     1       7.872   7.341  18.410  0.00  0.00    +0.000 A 
ATOM      6  C   UNL     1       7.804   6.145  19.137  0.00  0.00    +0.000 A 
ATOM      7  C   UNL     1       6.800   5.189  18.872  0.00  0.00    +0.000 A 
ATOM      8  C   UNL     1       5.866   5.437  17.869  0.00  0.00    +0.000 A 
ATOM      9  C   UNL     1       5.954   6.604  17.100  0.00  0.00    +0.000 A 
ATOM     10  C   UNL     1       6.949   7.549  17.377  0.00  0.00    +0.000 A 
BRANCH   8  11
ATOM     11  S   UNL     1       4.569   4.264  17.509  0.00  0.00    +0.000 S 
ATOM     12  O   UNL     1       4.550   4.126  16.060  0.00  0.00    +0.000 OA
ATOM     13  O   UNL     1       4.753   3.115  18.374  0.00  0.00    +0.000 OA
BRANCH  11  14
ATOM     14  N   UNL     1       3.177   5.089  18.003  0.00  0.00    +0.000 NA
ATOM     15  C   UNL     1       3.179   5.823  19.281  0.00  0.00    +0.000 C 
ATOM     16  C   UNL     1       2.719   4.928  20.431  0.00  0.00    +0.000 C 
ATOM     17  C   UNL     1       1.429   4.136  20.147  0.00  0.00    +0.000 C 
ATOM     18  C   UNL     1       1.276   2.991  21.161  0.00  0.00    +0.000 C 
ATOM     19  C   UNL     1       1.347   3.587  18.713  0.00  0.00    +0.000 C 
ATOM     20  C   UNL     1       1.850   4.557  17.653  0.00  0.00    +0.000 C 
ENDBRANCH  11  14
ENDBRANCH   8  11
ENDBRANCH   3   5
BRANCH   1  21
ATOM     21  C   UNL     1       9.906  10.541  18.782  0.00  0.00    +0.000 C 
BRANCH  21  22
ATOM     22  C   UNL     1       9.573  11.484  19.945  0.00  0.00    +0.000 C 
BRANCH  22  23
ATOM     23  C   UNL     1      10.239  12.851  19.771  0.00  0.00    +0.000 C 
BRANCH  23  27
ATOM     24  C   UNL     1       7.586  15.140  19.126  0.00  0.00    +0.000 A 
ATOM     25  N   UNL     1       8.625  15.992  19.123  0.00  0.00    +0.000 NA
ATOM     26  O   UNL     1       9.723  15.182  19.387  0.00  0.00    +0.000 OA
ATOM     27  C   UNL     1       9.244  13.916  19.528  0.00  0.00    +0.000 A 
ATOM     28  N   UNL     1       7.943  13.831  19.387  0.00  0.00    +0.000 NA
BRANCH  24  32
ATOM     29  C   UNL     1       3.523  16.278  18.399  0.00  0.00    +0.000 A 
ATOM     30  C   UNL     1       4.119  15.274  17.636  0.00  0.00    +0.000 A 
ATOM     31  C   UNL     1       5.447  14.898  17.867  0.00  0.00    +0.000 A 
ATOM     32  C   UNL     1       6.206  15.535  18.858  0.00  0.00    +0.000 A 
ATOM     33  C   UNL     1       5.607  16.562  19.602  0.00  0.00    +0.000 A 
ATOM     34  C   UNL     1       4.275  16.933  19.375  0.00  0.00    +0.000 A 
BRANCH  29  36
ATOM     35  C   UNL     1       1.227  16.023  18.945  0.00  0.00    +0.000 C 
ATOM     36  O   UNL     1       2.224  16.560  18.077  0.00  0.00    +0.000 OA
ENDBRANCH  29  36
ENDBRANCH  24  32
ENDBRANCH  23  27
ENDBRANCH  22  23
ENDBRANCH  21  22
ENDBRANCH   1  21
TORSDOF 9
ENDMDL
MODEL 5
REMARK VINA RESULT:      -7.8      2.929      8.432
REMARK  Name = 
REMARK  11 active torsions:
REMARK  status: ('A' for Active; 'I' for Inactive)
REMARK    1  A    between atoms: C_1  and  O_2
REMARK    2  A    between atoms: O_2  and  C_3
REMARK    3  A    between atoms: C_6  and  C_7
REMARK    4  A    between atoms: C_10  and  C_11
REMARK    5  A    between atoms: C_11  and  C_12
REMARK    6  A    between atoms: C_12  and  C_13
REMARK    7  A    between atoms: C_13  and  C_14
REMARK    8  A    between atoms: N_16  and  C_17
REMARK    9  A    between atoms: C_20  and  S_21
REMARK   10  A    between atoms: S_21  and  N_24
REMARK   11  A    between atoms: C_27  and  C_28
REMARK                            x       y       z     vdW  Elec       q    Type
REMARK                         _______ _______ _______ _____ _____    ______ ____
ROOT
ATOM      1  C   UNL     1       8.169   8.071  18.146  0.00  0.00    +0.000 C 
ATOM      2  O   UNL     1       7.813   8.553  17.079  0.00  0.00    +0.000 OA
ATOM      3  N   UNL     1       8.870   8.736  19.141  0.00  0.00    +0.000 N 
ATOM      4  H   UNL     1       9.054   8.224  19.996  0.00  0.00    +0.000 HD
ENDROOT
BRANCH   3   5
ATOM      5  C   UNL     1       9.322  10.082  19.119  0.00  0.00    +0.000 A 
ATOM      6  C   UNL     1      10.120  10.652  20.120  0.00  0.00    +0.000 A 
ATOM      7  C   UNL     1      10.581  11.982  20.014  0.00  0.00    +0.000 A 
ATOM      8  C   UNL     1      10.234  12.740  18.899  0.00  0.00    +0.000 A 
ATOM      9  C   UNL     1       9.394  12.200  17.916  0.00  0.00    +0.000 A 
ATOM     10  C   UNL     1       8.949  10.878  18.028  0.00  0.00    +0.000 A 
BRANCH   8  11
ATOM     11  S   UNL     1      10.807  14.421  18.714  0.00  0.00    +0.000 S 
ATOM     12  O   UNL     1      12.150  14.446  19.274  0.00  0.00    +0.000 OA
ATOM     13  O   UNL     1      10.553  14.831  17.346  0.00  0.00    +0.000 OA
BRANCH  11  14
ATOM     14  N   UNL     1       9.767  15.280  19.734  0.00  0.00    +0.000 NA
ATOM     15  C   UNL     1      10.182  15.575  21.118  0.00  0.00    +0.000 C 
ATOM     16  C   UNL     1       9.748  14.462  22.071  0.00  0.00    +0.000 C 
ATOM     17  C   UNL     1       8.278  14.029  21.920  0.00  0.00    +0.000 C 
ATOM     18  C   UNL     1       8.051  12.672  22.606  0.00  0.00    +0.000 C 
ATOM     19  C   UNL     1       7.801  13.970  20.459  0.00  0.00    +0.000 C 
ATOM     20  C   UNL     1       8.311  15.117  19.598  0.00  0.00    +0.000 C 
ENDBRANCH  11  14
ENDBRANCH   8  11
ENDBRANCH   3   5
BRANCH   1  21
ATOM     21  C   UNL     1       7.834   6.631  18.494  0.00  0.00    +0.000 C 
BRANCH  21  22
ATOM     22  C   UNL     1       7.211   5.909  17.293  0.00  0.00    +0.000 C 
BRANCH  22  23
ATOM     23  C   UNL     1       6.217   4.833  17.734  0.00  0.00    +0.000 C 
BRANCH  23  27
ATOM     24  C   UNL     1       3.151   6.519  18.408  0.00  0.00    +0.000 A 
ATOM     25  N   UNL     1       2.693   5.264  18.268  0.00  0.00    +0.000 NA
ATOM     26  O   UNL     1       3.832   4.520  17.981  0.00  0.00    +0.000 OA
ATOM     27  C   UNL     1       4.872   5.397  17.973  0.00  0.00    +0.000 A 
ATOM     28  N   UNL     1       4.515   6.636  18.220  0.00  0.00    +0.000 NA
BRANCH  24  32
ATOM     29  C   UNL     1       0.632   9.828  19.427  0.00  0.00    +0.000 A 
ATOM     30  C   UNL     1       1.106   9.681  18.123  0.00  0.00    +0.000 A 
ATOM     31  C   UNL     1       1.931   8.602  17.783  0.00  0.00    +0.000 A 
ATOM     32  C   UNL     1       2.309   7.661  18.751  0.00  0.00    +0.000 A 
ATOM     33  C   UNL     1       1.851   7.833  20.065  0.00  0.00    +0.000 A 
ATOM     34  C   UNL     1       1.019   8.909  20.403  0.00  0.00    +0.000 A 
BRANCH  29  36
ATOM     35  C   UNL     1      -0.696  11.071  20.950  0.00  0.00    +0.000 C 
ATOM     36  O   UNL     1      -0.161  10.922  19.637  0.00  0.00    +0.000 OA
ENDBRANCH  29  36
ENDBRANCH  24  32
ENDBRANCH  23  27
ENDBRANCH  22  23
ENDBRANCH  21  22
ENDBRANCH   1  21
TORSDOF 9
ENDMDL
MODEL 6
REMARK VINA RESULT:      -7.7      4.677      7.936
REMARK  Name = 
REMARK  11 active torsions:
REMARK  status: ('A' for Active; 'I' for Inactive)
REMARK    1  A    between atoms: C_1  and  O_2
REMARK    2  A    between atoms: O_2  and  C_3
REMARK    3  A    between atoms: C_6  and  C_7
REMARK    4  A    between atoms: C_10  and  C_11
REMARK    5  A    between atoms: C_11  and  C_12
REMARK    6  A    between atoms: C_12  and  C_13
REMARK    7  A    between atoms: C_13  and  C_14
REMARK    8  A    between atoms: N_16  and  C_17
REMARK    9  A    between atoms: C_20  and  S_21
REMARK   10  A    between atoms: S_21  and  N_24
REMARK   11  A    between atoms: C_27  and  C_28
REMARK                            x       y       z     vdW  Elec       q    Type
REMARK                         _______ _______ _______ _____ _____    ______ ____
ROOT
ATOM      1  C   UNL     1       8.579   9.440  18.380  0.00  0.00    +0.000 C 
ATOM      2  O   UNL     1       7.646   9.967  17.789  0.00  0.00    +0.000 OA
ATOM      3  N   UNL     1       8.671   8.097  18.714  0.00  0.00    +0.000 N 
ATOM      4  H   UNL     1       9.528   7.791  19.159  0.00  0.00    +0.000 HD
ENDROOT
BRANCH   3   5
ATOM      5  C   UNL     1       7.712   7.081  18.456  0.00  0.00    +0.000 A 
ATOM      6  C   UNL     1       7.554   5.940  19.254  0.00  0.00    +0.000 A 
ATOM      7  C   UNL     1       6.546   4.992  18.975  0.00  0.00    +0.000 A 
ATOM      8  C   UNL     1       5.700   5.192  17.887  0.00  0.00    +0.000 A 
ATOM      9  C   UNL     1       5.881   6.301  17.051  0.00  0.00    +0.000 A 
ATOM     10  C   UNL     1       6.879   7.238  17.342  0.00  0.00    +0.000 A 
BRANCH   8  11
ATOM     11  S   UNL     1       4.402   4.028  17.505  0.00  0.00    +0.000 S 
ATOM     12  O   UNL     1       4.395   3.903  16.055  0.00  0.00    +0.000 OA
ATOM     13  O   UNL     1       4.574   2.869  18.361  0.00  0.00    +0.000 OA
BRANCH  11  14
ATOM     14  N   UNL     1       3.008   4.854  17.995  0.00  0.00    +0.000 NA
ATOM     15  C   UNL     1       3.032   5.654  19.232  0.00  0.00    +0.000 C 
ATOM     16  C   UNL     1       2.621   4.811  20.439  0.00  0.00    +0.000 C 
ATOM     17  C   UNL     1       1.338   3.984  20.234  0.00  0.00    +0.000 C 
ATOM     18  C   UNL     1       1.234   2.891  21.309  0.00  0.00    +0.000 C 
ATOM     19  C   UNL     1       1.227   3.360  18.832  0.00  0.00    +0.000 C 
ATOM     20  C   UNL     1       1.683   4.282  17.710  0.00  0.00    +0.000 C 
ENDBRANCH  11  14
ENDBRANCH   8  11
ENDBRANCH   3   5
BRANCH   1  21
ATOM     21  C   UNL     1       9.788  10.257  18.800  0.00  0.00    +0.000 C 
BRANCH  21  22
ATOM     22  C   UNL     1       9.604  10.818  20.215  0.00  0.00    +0.000 C 
BRANCH  22  23
ATOM     23  C   UNL     1       9.816  12.334  20.253  0.00  0.00    +0.000 C 
BRANCH  23  27
ATOM     24  C   UNL     1       8.539  13.423  23.396  0.00  0.00    +0.000 A 
ATOM     25  N   UNL     1       9.181  14.540  23.014  0.00  0.00    +0.000 NA
ATOM     26  O   UNL     1       9.737  14.204  21.785  0.00  0.00    +0.000 OA
ATOM     27  C   UNL     1       9.379  12.914  21.541  0.00  0.00    +0.000 A 
ATOM     28  N   UNL     1       8.653  12.382  22.495  0.00  0.00    +0.000 NA
BRANCH  24  32
ATOM     29  C   UNL     1       6.245  13.034  26.991  0.00  0.00    +0.000 A 
ATOM     30  C   UNL     1       6.115  14.172  26.193  0.00  0.00    +0.000 A 
ATOM     31  C   UNL     1       6.862  14.306  25.017  0.00  0.00    +0.000 A 
ATOM     32  C   UNL     1       7.767  13.308  24.630  0.00  0.00    +0.000 A 
ATOM     33  C   UNL     1       7.912  12.182  25.452  0.00  0.00    +0.000 A 
ATOM     34  C   UNL     1       7.157  12.044  26.625  0.00  0.00    +0.000 A 
BRANCH  29  36
ATOM     35  C   UNL     1       4.131  12.547  27.951  0.00  0.00    +0.000 C 
ATOM     36  O   UNL     1       5.466  13.020  28.114  0.00  0.00    +0.000 OA
ENDBRANCH  29  36
ENDBRANCH  24  32
ENDBRANCH  23  27
ENDBRANCH  22  23
ENDBRANCH  21  22
ENDBRANCH   1  21
TORSDOF 9
ENDMDL
MODEL 7
REMARK VINA RESULT:      -7.7      4.642      6.986
REMARK  Name = 
REMARK  11 active torsions:
REMARK  status: ('A' for Active; 'I' for Inactive)
REMARK    1  A    between atoms: C_1  and  O_2
REMARK    2  A    between atoms: O_2  and  C_3
REMARK    3  A    between atoms: C_6  and  C_7
REMARK    4  A    between atoms: C_10  and  C_11
REMARK    5  A    between atoms: C_11  and  C_12
REMARK    6  A    between atoms: C_12  and  C_13
REMARK    7  A    between atoms: C_13  and  C_14
REMARK    8  A    between atoms: N_16  and  C_17
REMARK    9  A    between atoms: C_20  and  S_21
REMARK   10  A    between atoms: S_21  and  N_24
REMARK   11  A    between atoms: C_27  and  C_28
REMARK                            x       y       z     vdW  Elec       q    Type
REMARK                         _______ _______ _______ _____ _____    ______ ____
ROOT
ATOM      1  C   UNL     1       7.230   7.590  17.307  0.00  0.00    +0.000 C 
ATOM      2  O   UNL     1       7.926   6.777  16.713  0.00  0.00    +0.000 OA
ATOM      3  N   UNL     1       6.055   7.306  17.988  0.00  0.00    +0.000 N 
ATOM      4  H   UNL     1       5.610   8.073  18.478  0.00  0.00    +0.000 HD
ENDROOT
BRANCH   3   5
ATOM      5  C   UNL     1       5.424   6.040  18.119  0.00  0.00    +0.000 A 
ATOM      6  C   UNL     1       4.701   5.420  17.091  0.00  0.00    +0.000 A 
ATOM      7  C   UNL     1       4.142   4.137  17.267  0.00  0.00    +0.000 A 
ATOM      8  C   UNL     1       4.306   3.479  18.483  0.00  0.00    +0.000 A 
ATOM      9  C   UNL     1       4.981   4.108  19.537  0.00  0.00    +0.000 A 
ATOM     10  C   UNL     1       5.539   5.378  19.348  0.00  0.00    +0.000 A 
BRANCH   8  11
ATOM     11  S   UNL     1       3.629   1.848  18.746  0.00  0.00    +0.000 S 
ATOM     12  O   UNL     1       3.432   1.281  17.420  0.00  0.00    +0.000 OA
ATOM     13  O   UNL     1       4.449   1.179  19.737  0.00  0.00    +0.000 OA
BRANCH  11  14
ATOM     14  N   UNL     1       2.120   2.180  19.434  0.00  0.00    +0.000 NA
ATOM     15  C   UNL     1       1.124   2.951  18.667  0.00  0.00    +0.000 C 
ATOM     16  C   UNL     1       1.265   4.449  18.933  0.00  0.00    +0.000 C 
ATOM     17  C   UNL     1       1.362   4.828  20.423  0.00  0.00    +0.000 C 
ATOM     18  C   UNL     1       1.899   6.260  20.573  0.00  0.00    +0.000 C 
ATOM     19  C   UNL     1       2.217   3.853  21.251  0.00  0.00    +0.000 C 
ATOM     20  C   UNL     1       2.010   2.390  20.886  0.00  0.00    +0.000 C 
ENDBRANCH  11  14
ENDBRANCH   8  11
ENDBRANCH   3   5
BRANCH   1  21
ATOM     21  C   UNL     1       7.631   9.053  17.368  0.00  0.00    +0.000 C 
BRANCH  21  22
ATOM     22  C   UNL     1       8.689   9.286  18.454  0.00  0.00    +0.000 C 
BRANCH  22  23
ATOM     23  C   UNL     1       9.381  10.641  18.287  0.00  0.00    +0.000 C 
BRANCH  23  27
ATOM     24  C   UNL     1       9.453  12.223  21.479  0.00  0.00    +0.000 A 
ATOM     25  N   UNL     1      10.670  12.571  21.027  0.00  0.00    +0.000 NA
ATOM     26  O   UNL     1      10.744  11.976  19.772  0.00  0.00    +0.000 OA
ATOM     27  C   UNL     1       9.565  11.322  19.586  0.00  0.00    +0.000 A 
ATOM     28  N   UNL     1       8.739  11.431  20.599  0.00  0.00    +0.000 NA
BRANCH  24  32
ATOM     29  C   UNL     1       7.913  13.500  25.264  0.00  0.00    +0.000 A 
ATOM     30  C   UNL     1       7.960  12.143  24.947  0.00  0.00    +0.000 A 
ATOM     31  C   UNL     1       8.461  11.718  23.710  0.00  0.00    +0.000 A 
ATOM     32  C   UNL     1       8.908  12.650  22.764  0.00  0.00    +0.000 A 
ATOM     33  C   UNL     1       8.831  14.014  23.081  0.00  0.00    +0.000 A 
ATOM     34  C   UNL     1       8.336  14.438  24.322  0.00  0.00    +0.000 A 
BRANCH  29  36
ATOM     35  C   UNL     1       6.833  12.700  27.220  0.00  0.00    +0.000 C 
ATOM     36  O   UNL     1       7.400  13.791  26.498  0.00  0.00    +0.000 OA
ENDBRANCH  29  36
ENDBRANCH  24  32
ENDBRANCH  23  27
ENDBRANCH  22  23
ENDBRANCH  21  22
ENDBRANCH   1  21
TORSDOF 9
ENDMDL
MODEL 8
REMARK VINA RESULT:      -7.6      3.426      7.512
REMARK  Name = 
REMARK  11 active torsions:
REMARK  status: ('A' for Active; 'I' for Inactive)
REMARK    1  A    between atoms: C_1  and  O_2
REMARK    2  A    between atoms: O_2  and  C_3
REMARK    3  A    between atoms: C_6  and  C_7
REMARK    4  A    between atoms: C_10  and  C_11
REMARK    5  A    between atoms: C_11  and  C_12
REMARK    6  A    between atoms: C_12  and  C_13
REMARK    7  A    between atoms: C_13  and  C_14
REMARK    8  A    between atoms: N_16  and  C_17
REMARK    9  A    between atoms: C_20  and  S_21
REMARK   10  A    between atoms: S_21  and  N_24
REMARK   11  A    between atoms: C_27  and  C_28
REMARK                            x       y       z     vdW  Elec       q    Type
REMARK                         _______ _______ _______ _____ _____    ______ ____
ROOT
ATOM      1  C   UNL     1       0.826   9.702  20.350  0.00  0.00    +0.000 C 
ATOM      2  O   UNL     1       1.316   9.490  21.451  0.00  0.00    +0.000 OA
ATOM      3  N   UNL     1       1.133   9.020  19.182  0.00  0.00    +0.000 N 
ATOM      4  H   UNL     1       0.610   9.270  18.351  0.00  0.00    +0.000 HD
ENDROOT
BRANCH   3   5
ATOM      5  C   UNL     1       2.073   7.967  19.025  0.00  0.00    +0.000 A 
ATOM      6  C   UNL     1       2.276   6.957  19.975  0.00  0.00    +0.000 A 
ATOM      7  C   UNL     1       3.189   5.907  19.737  0.00  0.00    +0.000 A 
ATOM      8  C   UNL     1       3.901   5.877  18.541  0.00  0.00    +0.000 A 
ATOM      9  C   UNL     1       3.746   6.908  17.605  0.00  0.00    +0.000 A 
ATOM     10  C   UNL     1       2.832   7.940  17.849  0.00  0.00    +0.000 A 
BRANCH   8  11
ATOM     11  S   UNL     1       5.054   4.560  18.189  0.00  0.00    +0.000 S 
ATOM     12  O   UNL     1       5.787   4.981  17.004  0.00  0.00    +0.000 OA
ATOM     13  O   UNL     1       5.742   4.228  19.422  0.00  0.00    +0.000 OA
BRANCH  11  14
ATOM     14  N   UNL     1       4.033   3.275  17.779  0.00  0.00    +0.000 NA
ATOM     15  C   UNL     1       2.811   3.535  16.998  0.00  0.00    +0.000 C 
ATOM     16  C   UNL     1       1.623   3.822  17.916  0.00  0.00    +0.000 C 
ATOM     17  C   UNL     1       1.447   2.814  19.067  0.00  0.00    +0.000 C 
ATOM     18  C   UNL     1       0.513   3.394  20.141  0.00  0.00    +0.000 C 
ATOM     19  C   UNL     1       2.774   2.371  19.705  0.00  0.00    +0.000 C 
ATOM     20  C   UNL     1       3.892   2.134  18.698  0.00  0.00    +0.000 C 
ENDBRANCH  11  14
ENDBRANCH   8  11
ENDBRANCH   3   5
BRANCH   1  21
ATOM     21  C   UNL     1      -0.233  10.775  20.169  0.00  0.00    +0.000 C 
BRANCH  21  22
ATOM     22  C   UNL     1       0.407  12.167  20.090  0.00  0.00    +0.000 C 
BRANCH  22  23
ATOM     23  C   UNL     1       1.109  12.390  18.748  0.00  0.00    +0.000 C 
BRANCH  23  27
ATOM     24  C   UNL     1       3.720  14.813  18.811  0.00  0.00    +0.000 A 
ATOM     25  N   UNL     1       2.745  15.517  19.410  0.00  0.00    +0.000 NA
ATOM     26  O   UNL     1       1.660  14.647  19.418  0.00  0.00    +0.000 OA
ATOM     27  C   UNL     1       2.082  13.500  18.820  0.00  0.00    +0.000 A 
ATOM     28  N   UNL     1       3.331  13.546  18.421  0.00  0.00    +0.000 NA
BRANCH  24  32
ATOM     29  C   UNL     1       7.674  16.325  18.164  0.00  0.00    +0.000 A 
ATOM     30  C   UNL     1       7.331  15.044  17.730  0.00  0.00    +0.000 A 
ATOM     31  C   UNL     1       6.040  14.543  17.939  0.00  0.00    +0.000 A 
ATOM     32  C   UNL     1       5.076  15.313  18.604  0.00  0.00    +0.000 A 
ATOM     33  C   UNL     1       5.438  16.588  19.061  0.00  0.00    +0.000 A 
ATOM     34  C   UNL     1       6.728  17.092  18.844  0.00  0.00    +0.000 A 
BRANCH  29  36
ATOM     35  C   UNL     1       9.809  16.875  19.040  0.00  0.00    +0.000 C 
ATOM     36  O   UNL     1       8.963  16.700  17.906  0.00  0.00    +0.000 OA
ENDBRANCH  29  36
ENDBRANCH  24  32
ENDBRANCH  23  27
ENDBRANCH  22  23
ENDBRANCH  21  22
ENDBRANCH   1  21
TORSDOF 9
ENDMDL
MODEL 9
REMARK VINA RESULT:      -7.6      1.446      2.045
REMARK  Name = 
REMARK  11 active torsions:
REMARK  status: ('A' for Active; 'I' for Inactive)
REMARK    1  A    between atoms: C_1  and  O_2
REMARK    2  A    between atoms: O_2  and  C_3
REMARK    3  A    between atoms: C_6  and  C_7
REMARK    4  A    between atoms: C_10  and  C_11
REMARK    5  A    between atoms: C_11  and  C_12
REMARK    6  A    between atoms: C_12  and  C_13
REMARK    7  A    between atoms: C_13  and  C_14
REMARK    8  A    between atoms: N_16  and  C_17
REMARK    9  A    between atoms: C_20  and  S_21
REMARK   10  A    between atoms: S_21  and  N_24
REMARK   11  A    between atoms: C_27  and  C_28
REMARK                            x       y       z     vdW  Elec       q    Type
REMARK                         _______ _______ _______ _____ _____    ______ ____
ROOT
ATOM      1  C   UNL     1       4.125   6.184  17.810  0.00  0.00    +0.000 C 
ATOM      2  O   UNL     1       4.305   6.846  16.796  0.00  0.00    +0.000 OA
ATOM      3  N   UNL     1       3.258   6.506  18.843  0.00  0.00    +0.000 N 
ATOM      4  H   UNL     1       3.175   5.837  19.599  0.00  0.00    +0.000 HD
ENDROOT
BRANCH   3   5
ATOM      5  C   UNL     1       2.429   7.655  18.942  0.00  0.00    +0.000 A 
ATOM      6  C   UNL     1       2.157   8.513  17.868  0.00  0.00    +0.000 A 
ATOM      7  C   UNL     1       1.281   9.609  18.017  0.00  0.00    +0.000 A 
ATOM      8  C   UNL     1       0.683   9.845  19.252  0.00  0.00    +0.000 A 
ATOM      9  C   UNL     1       0.987   9.027  20.348  0.00  0.00    +0.000 A 
ATOM     10  C   UNL     1       1.851   7.937  20.186  0.00  0.00    +0.000 A 
BRANCH   8  11
ATOM     11  S   UNL     1      -0.443  11.211  19.484  0.00  0.00    +0.000 S 
ATOM     12  O   UNL     1      -1.189  11.326  18.239  0.00  0.00    +0.000 OA
ATOM     13  O   UNL     1      -1.120  11.021  20.753  0.00  0.00    +0.000 OA
BRANCH  11  14
ATOM     14  N   UNL     1       0.603  12.533  19.625  0.00  0.00    +0.000 NA
ATOM     15  C   UNL     1       0.989  13.017  20.963  0.00  0.00    +0.000 C 
ATOM     16  C   UNL     1       0.018  14.086  21.462  0.00  0.00    +0.000 C 
ATOM     17  C   UNL     1      -0.290  15.197  20.441  0.00  0.00    +0.000 C 
ATOM     18  C   UNL     1      -1.548  15.972  20.864  0.00  0.00    +0.000 C 
ATOM     19  C   UNL     1      -0.445  14.683  19.000  0.00  0.00    +0.000 C 
ATOM     20  C   UNL     1       0.562  13.606  18.619  0.00  0.00    +0.000 C 
ENDBRANCH  11  14
ENDBRANCH   8  11
ENDBRANCH   3   5
BRANCH   1  21
ATOM     21  C   UNL     1       4.863   4.874  18.019  0.00  0.00    +0.000 C 
BRANCH  21  22
ATOM     22  C   UNL     1       6.008   5.045  19.025  0.00  0.00    +0.000 C 
BRANCH  22  23
ATOM     23  C   UNL     1       7.362   5.178  18.324  0.00  0.00    +0.000 C 
BRANCH  23  27
ATOM     24  C   UNL     1       8.315   8.606  18.133  0.00  0.00    +0.000 A 
ATOM     25  N   UNL     1       7.733   8.466  16.930  0.00  0.00    +0.000 NA
ATOM     26  O   UNL     1       7.336   7.134  16.902  0.00  0.00    +0.000 OA
ATOM     27  C   UNL     1       7.719   6.593  18.091  0.00  0.00    +0.000 A 
ATOM     28  N   UNL     1       8.329   7.444  18.881  0.00  0.00    +0.000 NA
BRANCH  24  32
ATOM     29  C   UNL     1       9.875  12.301  19.630  0.00  0.00    +0.000 A 
ATOM     30  C   UNL     1       9.581  12.161  18.273  0.00  0.00    +0.000 A 
ATOM     31  C   UNL     1       9.072  10.955  17.776  0.00  0.00    +0.000 A 
ATOM     32  C   UNL     1       8.866   9.863  18.631  0.00  0.00    +0.000 A 
ATOM     33  C   UNL     1       9.190  10.005  19.987  0.00  0.00    +0.000 A 
ATOM     34  C   UNL     1       9.692  11.215  20.485  0.00  0.00    +0.000 A 
BRANCH  29  36
ATOM     35  C   UNL     1       9.592  14.267  20.929  0.00  0.00    +0.000 C 
ATOM     36  O   UNL     1      10.370  13.523  19.993  0.00  0.00    +0.000 OA
ENDBRANCH  29  36
ENDBRANCH  24  32
ENDBRANCH  23  27
ENDBRANCH  22  23
ENDBRANCH  21  22
ENDBRANCH   1  21
TORSDOF 9
ENDMDL
