MODEL 1
REMARK VINA RESULT:      -6.9      0.000      0.000
REMARK  Name = 
REMARK  10 active torsions:
REMARK  status: ('A' for Active; 'I' for Inactive)
REMARK    1  A    between atoms: C_1  and  C_2
REMARK    2  A    between atoms: C_2  and  O_3
REMARK    3  A    between atoms: O_3  and  C_4
REMARK    4  A    between atoms: N_6  and  C_7
REMARK    5  A    between atoms: C_10  and  C_11
REMARK    6  A    between atoms: C_12  and  O_13
REMARK    7  A    between atoms: O_13  and  C_14
REMARK    8  A    between atoms: C_14  and  C_15
REMARK    9  A    between atoms: C_14  and  C_16
REMARK   10  A    between atoms: C_21  and  C_22
REMARK                            x       y       z     vdW  Elec       q    Type
REMARK                         _______ _______ _______ _____ _____    ______ ____
ROOT
ATOM      1  C   UNL     1       2.091   6.580  20.159  0.00  0.00    +0.000 A 
ATOM      2  C   UNL     1       1.638   5.474  20.873  0.00  0.00    +0.000 A 
ATOM      3  C   UNL     1       1.898   4.186  20.437  0.00  0.00    +0.000 A 
ATOM      4  C   UNL     1       2.601   3.939  19.251  0.00  0.00    +0.000 A 
ATOM      5  C   UNL     1       2.863   2.486  18.976  0.00  0.00    +0.000 C 
ATOM      6  C   UNL     1       2.975   5.042  18.452  0.00  0.00    +0.000 A 
ATOM      7  C   UNL     1       2.704   6.373  18.901  0.00  0.00    +0.000 A 
ATOM      8  C   UNL     1       3.095   7.566  18.055  0.00  0.00    +0.000 C 
ENDROOT
BRANCH   1  11
ATOM      9  C   UNL     1       0.764   8.407  21.189  0.00  0.00    +0.000 C 
ATOM     10  O   UNL     1      -0.305   7.834  21.340  0.00  0.00    +0.000 OA
ATOM     11  N   UNL     1       1.934   7.882  20.695  0.00  0.00    +0.000 N 
ATOM     12  H   UNL     1       2.736   8.483  20.790  0.00  0.00    +0.000 HD
BRANCH   9  13
ATOM     13  O   UNL     1       0.956   9.721  21.501  0.00  0.00    +0.000 OA
BRANCH  13  15
ATOM     14  C   UNL     1      -0.704  10.999  22.654  0.00  0.00    +0.000 C 
ATOM     15  C   UNL     1      -0.210  10.533  21.294  0.00  0.00    +0.000 C 
ENDBRANCH  13  15
ENDBRANCH   9  13
ENDBRANCH   1  11
BRANCH   6  16
ATOM     16  O   UNL     1       3.560   4.980  17.206  0.00  0.00    +0.000 OA
BRANCH  16  17
ATOM     17  C   UNL     1       4.847   4.397  17.035  0.00  0.00    +0.000 C 
ATOM     18  C   UNL     1       5.177   4.400  15.543  0.00  0.00    +0.000 C 
BRANCH  17  19
ATOM     19  C   UNL     1       5.956   5.150  17.772  0.00  0.00    +0.000 C 
ATOM     20  N   UNL     1       6.582   4.622  18.797  0.00  0.00    +0.000 NA
ATOM     21  C   UNL     1       7.517   5.704  19.232  0.00  0.00    +0.000 C 
ATOM     22  C   UNL     1       7.605   6.695  18.066  0.00  0.00    +0.000 C 
ATOM     23  N   UNL     1       6.383   6.393  17.375  0.00  0.00    +0.000 N 
ATOM     24  H   UNL     1       6.242   6.677  16.414  0.00  0.00    +0.000 HD
ENDBRANCH  17  19
ENDBRANCH  16  17
ENDBRANCH   6  16
TORSDOF 6
ENDMDL
MODEL 2
REMARK VINA RESULT:      -6.4      2.422      7.029
REMARK  Name = 
REMARK  10 active torsions:
REMARK  status: ('A' for Active; 'I' for Inactive)
REMARK    1  A    between atoms: C_1  and  C_2
REMARK    2  A    between atoms: C_2  and  O_3
REMARK    3  A    between atoms: O_3  and  C_4
REMARK    4  A    between atoms: N_6  and  C_7
REMARK    5  A    between atoms: C_10  and  C_11
REMARK    6  A    between atoms: C_12  and  O_13
REMARK    7  A    between atoms: O_13  and  C_14
REMARK    8  A    between atoms: C_14  and  C_15
REMARK    9  A    between atoms: C_14  and  C_16
REMARK   10  A    between atoms: C_21  and  C_22
REMARK                            x       y       z     vdW  Elec       q    Type
REMARK                         _______ _______ _______ _____ _____    ______ ____
ROOT
ATOM      1  C   UNL     1       4.542   4.383  17.014  0.00  0.00    +0.000 A 
ATOM      2  C   UNL     1       4.175   3.154  17.557  0.00  0.00    +0.000 A 
ATOM      3  C   UNL     1       3.383   3.080  18.689  0.00  0.00    +0.000 A 
ATOM      4  C   UNL     1       2.939   4.231  19.352  0.00  0.00    +0.000 A 
ATOM      5  C   UNL     1       2.023   3.964  20.512  0.00  0.00    +0.000 C 
ATOM      6  C   UNL     1       3.389   5.487  18.888  0.00  0.00    +0.000 A 
ATOM      7  C   UNL     1       4.209   5.564  17.720  0.00  0.00    +0.000 A 
ATOM      8  C   UNL     1       4.702   6.902  17.211  0.00  0.00    +0.000 C 
ENDROOT
BRANCH   1  11
ATOM      9  C   UNL     1       6.599   4.499  15.632  0.00  0.00    +0.000 C 
ATOM     10  O   UNL     1       7.449   4.431  16.508  0.00  0.00    +0.000 OA
ATOM     11  N   UNL     1       5.235   4.435  15.780  0.00  0.00    +0.000 N 
ATOM     12  H   UNL     1       4.722   4.364  14.916  0.00  0.00    +0.000 HD
BRANCH   9  13
ATOM     13  O   UNL     1       6.903   4.662  14.312  0.00  0.00    +0.000 OA
BRANCH  13  15
ATOM     14  C   UNL     1       6.849   3.820  12.075  0.00  0.00    +0.000 C 
ATOM     15  C   UNL     1       6.201   3.757  13.448  0.00  0.00    +0.000 C 
ENDBRANCH  13  15
ENDBRANCH   9  13
ENDBRANCH   1  11
BRANCH   6  16
ATOM     16  O   UNL     1       3.152   6.706  19.487  0.00  0.00    +0.000 OA
BRANCH  16  17
ATOM     17  C   UNL     1       1.832   7.232  19.568  0.00  0.00    +0.000 C 
ATOM     18  C   UNL     1       1.392   7.189  21.031  0.00  0.00    +0.000 C 
BRANCH  17  19
ATOM     19  C   UNL     1       1.725   8.677  19.079  0.00  0.00    +0.000 C 
ATOM     20  N   UNL     1       2.240   9.055  17.932  0.00  0.00    +0.000 NA
ATOM     21  C   UNL     1       1.961  10.522  17.889  0.00  0.00    +0.000 C 
ATOM     22  C   UNL     1       0.881  10.789  18.943  0.00  0.00    +0.000 C 
ATOM     23  N   UNL     1       1.052   9.641  19.788  0.00  0.00    +0.000 N 
ATOM     24  H   UNL     1       0.330   9.357  20.437  0.00  0.00    +0.000 HD
ENDBRANCH  17  19
ENDBRANCH  16  17
ENDBRANCH   6  16
TORSDOF 6
ENDMDL
MODEL 3
REMARK VINA RESULT:      -6.3      1.969      6.664
REMARK  Name = 
REMARK  10 active torsions:
REMARK  status: ('A' for Active; 'I' for Inactive)
REMARK    1  A    between atoms: C_1  and  C_2
REMARK    2  A    between atoms: C_2  and  O_3
REMARK    3  A    between atoms: O_3  and  C_4
REMARK    4  A    between atoms: N_6  and  C_7
REMARK    5  A    between atoms: C_10  and  C_11
REMARK    6  A    between atoms: C_12  and  O_13
REMARK    7  A    between atoms: O_13  and  C_14
REMARK    8  A    between atoms: C_14  and  C_15
REMARK    9  A    between atoms: C_14  and  C_16
REMARK   10  A    between atoms: C_21  and  C_22
REMARK                            x       y       z     vdW  Elec       q    Type
REMARK                         _______ _______ _______ _____ _____    ______ ____
ROOT
ATOM      1  C   UNL     1       4.719   4.411  18.235  0.00  0.00    +0.000 A 
ATOM      2  C   UNL     1       4.449   3.572  19.314  0.00  0.00    +0.000 A 
ATOM      3  C   UNL     1       3.290   3.714  20.057  0.00  0.00    +0.000 A 
ATOM      4  C   UNL     1       2.355   4.718  19.775  0.00  0.00    +0.000 A 
ATOM      5  C   UNL     1       1.119   4.671  20.629  0.00  0.00    +0.000 C 
ATOM      6  C   UNL     1       2.658   5.650  18.759  0.00  0.00    +0.000 A 
ATOM      7  C   UNL     1       3.857   5.506  17.993  0.00  0.00    +0.000 A 
ATOM      8  C   UNL     1       4.198   6.499  16.903  0.00  0.00    +0.000 C 
ENDROOT
BRANCH   1  11
ATOM      9  C   UNL     1       7.058   4.791  17.498  0.00  0.00    +0.000 C 
ATOM     10  O   UNL     1       7.421   5.593  18.346  0.00  0.00    +0.000 OA
ATOM     11  N   UNL     1       5.841   4.160  17.407  0.00  0.00    +0.000 N 
ATOM     12  H   UNL     1       5.798   3.428  16.718  0.00  0.00    +0.000 HD
BRANCH   9  13
ATOM     13  O   UNL     1       7.853   4.389  16.464  0.00  0.00    +0.000 OA
BRANCH  13  15
ATOM     14  C   UNL     1       7.187   5.272  14.345  0.00  0.00    +0.000 C 
ATOM     15  C   UNL     1       7.121   4.070  15.272  0.00  0.00    +0.000 C 
ENDBRANCH  13  15
ENDBRANCH   9  13
ENDBRANCH   1  11
BRANCH   6  16
ATOM     16  O   UNL     1       1.916   6.765  18.433  0.00  0.00    +0.000 OA
BRANCH  16  17
ATOM     17  C   UNL     1       2.271   8.048  18.937  0.00  0.00    +0.000 C 
ATOM     18  C   UNL     1       2.236   9.041  17.777  0.00  0.00    +0.000 C 
BRANCH  17  19
ATOM     19  C   UNL     1       1.324   8.553  20.027  0.00  0.00    +0.000 C 
ATOM     20  N   UNL     1       1.339   8.049  21.239  0.00  0.00    +0.000 NA
ATOM     21  C   UNL     1       0.237   8.778  21.936  0.00  0.00    +0.000 C 
ATOM     22  C   UNL     1      -0.078  10.008  21.078  0.00  0.00    +0.000 C 
ATOM     23  N   UNL     1       0.443   9.583  19.811  0.00  0.00    +0.000 N 
ATOM     24  H   UNL     1       0.640  10.250  19.076  0.00  0.00    +0.000 HD
ENDBRANCH  17  19
ENDBRANCH  16  17
ENDBRANCH   6  16
TORSDOF 6
ENDMDL
MODEL 4
REMARK VINA RESULT:      -6.3      3.264      7.648
REMARK  Name = 
REMARK  10 active torsions:
REMARK  status: ('A' for Active; 'I' for Inactive)
REMARK    1  A    between atoms: C_1  and  C_2
REMARK    2  A    between atoms: C_2  and  O_3
REMARK    3  A    between atoms: O_3  and  C_4
REMARK    4  A    between atoms: N_6  and  C_7
REMARK    5  A    between atoms: C_10  and  C_11
REMARK    6  A    between atoms: C_12  and  O_13
REMARK    7  A    between atoms: O_13  and  C_14
REMARK    8  A    between atoms: C_14  and  C_15
REMARK    9  A    between atoms: C_14  and  C_16
REMARK   10  A    between atoms: C_21  and  C_22
REMARK                            x       y       z     vdW  Elec       q    Type
REMARK                         _______ _______ _______ _____ _____    ______ ____
ROOT
ATOM      1  C   UNL     1       1.752   8.091  20.119  0.00  0.00    +0.000 A 
ATOM      2  C   UNL     1       1.625   8.088  21.506  0.00  0.00    +0.000 A 
ATOM      3  C   UNL     1       0.883   9.057  22.159  0.00  0.00    +0.000 A 
ATOM      4  C   UNL     1       0.250  10.093  21.460  0.00  0.00    +0.000 A 
ATOM      5  C   UNL     1      -0.579  11.005  22.318  0.00  0.00    +0.000 C 
ATOM      6  C   UNL     1       0.455  10.183  20.065  0.00  0.00    +0.000 A 
ATOM      7  C   UNL     1       1.224   9.184  19.392  0.00  0.00    +0.000 A 
ATOM      8  C   UNL     1       1.456   9.267  17.898  0.00  0.00    +0.000 C 
ENDROOT
BRANCH   1  11
ATOM      9  C   UNL     1       2.241   5.684  19.767  0.00  0.00    +0.000 C 
ATOM     10  O   UNL     1       1.465   5.189  20.570  0.00  0.00    +0.000 OA
ATOM     11  N   UNL     1       2.399   7.015  19.465  0.00  0.00    +0.000 N 
ATOM     12  H   UNL     1       2.990   7.197  18.670  0.00  0.00    +0.000 HD
BRANCH   9  13
ATOM     13  O   UNL     1       3.112   4.945  19.020  0.00  0.00    +0.000 OA
BRANCH  13  15
ATOM     14  C   UNL     1       5.201   5.512  18.006  0.00  0.00    +0.000 C 
ATOM     15  C   UNL     1       4.490   5.214  19.316  0.00  0.00    +0.000 C 
ENDBRANCH  13  15
ENDBRANCH   9  13
ENDBRANCH   1  11
BRANCH   6  16
ATOM     16  O   UNL     1       0.012  11.197  19.244  0.00  0.00    +0.000 OA
BRANCH  16  17
ATOM     17  C   UNL     1      -1.379  11.455  19.092  0.00  0.00    +0.000 C 
ATOM     18  C   UNL     1      -1.600  12.962  19.218  0.00  0.00    +0.000 C 
BRANCH  17  19
ATOM     19  C   UNL     1      -1.935  11.002  17.741  0.00  0.00    +0.000 C 
ATOM     20  N   UNL     1      -2.242   9.748  17.510  0.00  0.00    +0.000 NA
ATOM     21  C   UNL     1      -2.678   9.751  16.080  0.00  0.00    +0.000 C 
ATOM     22  C   UNL     1      -2.959  11.213  15.716  0.00  0.00    +0.000 C 
ATOM     23  N   UNL     1      -2.181  11.885  16.718  0.00  0.00    +0.000 N 
ATOM     24  H   UNL     1      -2.343  12.859  16.940  0.00  0.00    +0.000 HD
ENDBRANCH  17  19
ENDBRANCH  16  17
ENDBRANCH   6  16
TORSDOF 6
ENDMDL
MODEL 5
REMARK VINA RESULT:      -6.2      3.298      7.996
REMARK  Name = 
REMARK  10 active torsions:
REMARK  status: ('A' for Active; 'I' for Inactive)
REMARK    1  A    between atoms: C_1  and  C_2
REMARK    2  A    between atoms: C_2  and  O_3
REMARK    3  A    between atoms: O_3  and  C_4
REMARK    4  A    between atoms: N_6  and  C_7
REMARK    5  A    between atoms: C_10  and  C_11
REMARK    6  A    between atoms: C_12  and  O_13
REMARK    7  A    between atoms: O_13  and  C_14
REMARK    8  A    between atoms: C_14  and  C_15
REMARK    9  A    between atoms: C_14  and  C_16
REMARK   10  A    between atoms: C_21  and  C_22
REMARK                            x       y       z     vdW  Elec       q    Type
REMARK                         _______ _______ _______ _____ _____    ______ ____
ROOT
ATOM      1  C   UNL     1       1.347   8.623  20.732  0.00  0.00    +0.000 A 
ATOM      2  C   UNL     1       1.262   8.663  22.121  0.00  0.00    +0.000 A 
ATOM      3  C   UNL     1       0.407   9.544  22.760  0.00  0.00    +0.000 A 
ATOM      4  C   UNL     1      -0.387  10.448  22.043  0.00  0.00    +0.000 A 
ATOM      5  C   UNL     1      -1.314  11.270  22.893  0.00  0.00    +0.000 C 
ATOM      6  C   UNL     1      -0.237  10.505  20.640  0.00  0.00    +0.000 A 
ATOM      7  C   UNL     1       0.649   9.597  19.980  0.00  0.00    +0.000 A 
ATOM      8  C   UNL     1       0.824   9.647  18.477  0.00  0.00    +0.000 C 
ENDROOT
BRANCH   1  11
ATOM      9  C   UNL     1       1.951   6.267  20.242  0.00  0.00    +0.000 C 
ATOM     10  O   UNL     1       1.062   5.688  20.849  0.00  0.00    +0.000 OA
ATOM     11  N   UNL     1       2.124   7.622  20.098  0.00  0.00    +0.000 N 
ATOM     12  H   UNL     1       2.836   7.887  19.437  0.00  0.00    +0.000 HD
BRANCH   9  13
ATOM     13  O   UNL     1       2.954   5.612  19.588  0.00  0.00    +0.000 OA
BRANCH  13  15
ATOM     14  C   UNL     1       2.093   4.289  17.792  0.00  0.00    +0.000 C 
ATOM     15  C   UNL     1       2.787   5.589  18.162  0.00  0.00    +0.000 C 
ENDBRANCH  13  15
ENDBRANCH   9  13
ENDBRANCH   1  11
BRANCH   6  16
ATOM     16  O   UNL     1      -0.843  11.410  19.795  0.00  0.00    +0.000 OA
BRANCH  16  17
ATOM     17  C   UNL     1      -2.252  11.389  19.596  0.00  0.00    +0.000 C 
ATOM     18  C   UNL     1      -2.793  12.789  19.880  0.00  0.00    +0.000 C 
BRANCH  17  19
ATOM     19  C   UNL     1      -2.658  10.998  18.174  0.00  0.00    +0.000 C 
ATOM     20  N   UNL     1      -2.625   9.750  17.768  0.00  0.00    +0.000 NA
ATOM     21  C   UNL     1      -3.033   9.838  16.333  0.00  0.00    +0.000 C 
ATOM     22  C   UNL     1      -3.681  11.214  16.151  0.00  0.00    +0.000 C 
ATOM     23  N   UNL     1      -3.115  11.919  17.265  0.00  0.00    +0.000 N 
ATOM     24  H   UNL     1      -3.528  12.779  17.604  0.00  0.00    +0.000 HD
ENDBRANCH  17  19
ENDBRANCH  16  17
ENDBRANCH   6  16
TORSDOF 6
ENDMDL
MODEL 6
REMARK VINA RESULT:      -6.2      3.290      7.681
REMARK  Name = 
REMARK  10 active torsions:
REMARK  status: ('A' for Active; 'I' for Inactive)
REMARK    1  A    between atoms: C_1  and  C_2
REMARK    2  A    between atoms: C_2  and  O_3
REMARK    3  A    between atoms: O_3  and  C_4
REMARK    4  A    between atoms: N_6  and  C_7
REMARK    5  A    between atoms: C_10  and  C_11
REMARK    6  A    between atoms: C_12  and  O_13
REMARK    7  A    between atoms: O_13  and  C_14
REMARK    8  A    between atoms: C_14  and  C_15
REMARK    9  A    between atoms: C_14  and  C_16
REMARK   10  A    between atoms: C_21  and  C_22
REMARK                            x       y       z     vdW  Elec       q    Type
REMARK                         _______ _______ _______ _____ _____    ______ ____
ROOT
ATOM      1  C   UNL     1       1.844   7.886  20.072  0.00  0.00    +0.000 A 
ATOM      2  C   UNL     1       1.639   7.976  21.447  0.00  0.00    +0.000 A 
ATOM      3  C   UNL     1       0.891   9.004  21.993  0.00  0.00    +0.000 A 
ATOM      4  C   UNL     1       0.331  10.010  21.195  0.00  0.00    +0.000 A 
ATOM      5  C   UNL     1      -0.516  10.997  21.946  0.00  0.00    +0.000 C 
ATOM      6  C   UNL     1       0.617  10.005  19.812  0.00  0.00    +0.000 A 
ATOM      7  C   UNL     1       1.392   8.944  19.248  0.00  0.00    +0.000 A 
ATOM      8  C   UNL     1       1.711   8.925  17.768  0.00  0.00    +0.000 C 
ENDROOT
BRANCH   1  11
ATOM      9  C   UNL     1       2.176   5.444  19.792  0.00  0.00    +0.000 C 
ATOM     10  O   UNL     1       1.241   5.023  20.457  0.00  0.00    +0.000 OA
ATOM     11  N   UNL     1       2.494   6.753  19.525  0.00  0.00    +0.000 N 
ATOM     12  H   UNL     1       3.218   6.877  18.836  0.00  0.00    +0.000 HD
BRANCH   9  13
ATOM     13  O   UNL     1       3.089   4.626  19.191  0.00  0.00    +0.000 OA
BRANCH  13  15
ATOM     14  C   UNL     1       2.518   3.004  17.530  0.00  0.00    +0.000 C 
ATOM     15  C   UNL     1       2.625   3.279  19.020  0.00  0.00    +0.000 C 
ENDBRANCH  13  15
ENDBRANCH   9  13
ENDBRANCH   1  11
BRANCH   6  16
ATOM     16  O   UNL     1       0.254  10.976  18.905  0.00  0.00    +0.000 OA
BRANCH  16  17
ATOM     17  C   UNL     1      -1.072  11.494  18.886  0.00  0.00    +0.000 C 
ATOM     18  C   UNL     1      -0.986  13.020  18.858  0.00  0.00    +0.000 C 
BRANCH  17  19
ATOM     19  C   UNL     1      -1.882  11.039  17.671  0.00  0.00    +0.000 C 
ATOM     20  N   UNL     1      -1.737   9.841  17.157  0.00  0.00    +0.000 NA
ATOM     21  C   UNL     1      -2.656   9.850  15.979  0.00  0.00    +0.000 C 
ATOM     22  C   UNL     1      -3.604  11.038  16.179  0.00  0.00    +0.000 C 
ATOM     23  N   UNL     1      -2.830  11.840  17.083  0.00  0.00    +0.000 N 
ATOM     24  H   UNL     1      -3.261  12.573  17.631  0.00  0.00    +0.000 HD
ENDBRANCH  17  19
ENDBRANCH  16  17
ENDBRANCH   6  16
TORSDOF 6
ENDMDL
MODEL 7
REMARK VINA RESULT:      -6.2      3.740      7.782
REMARK  Name = 
REMARK  10 active torsions:
REMARK  status: ('A' for Active; 'I' for Inactive)
REMARK    1  A    between atoms: C_1  and  C_2
REMARK    2  A    between atoms: C_2  and  O_3
REMARK    3  A    between atoms: O_3  and  C_4
REMARK    4  A    between atoms: N_6  and  C_7
REMARK    5  A    between atoms: C_10  and  C_11
REMARK    6  A    between atoms: C_12  and  O_13
REMARK    7  A    between atoms: O_13  and  C_14
REMARK    8  A    between atoms: C_14  and  C_15
REMARK    9  A    between atoms: C_14  and  C_16
REMARK   10  A    between atoms: C_21  and  C_22
REMARK                            x       y       z     vdW  Elec       q    Type
REMARK                         _______ _______ _______ _____ _____    ______ ____
ROOT
ATOM      1  C   UNL     1       6.384   4.611  15.644  0.00  0.00    +0.000 A 
ATOM      2  C   UNL     1       7.364   5.549  15.957  0.00  0.00    +0.000 A 
ATOM      3  C   UNL     1       7.612   5.914  17.269  0.00  0.00    +0.000 A 
ATOM      4  C   UNL     1       6.875   5.378  18.332  0.00  0.00    +0.000 A 
ATOM      5  C   UNL     1       7.334   5.823  19.692  0.00  0.00    +0.000 C 
ATOM      6  C   UNL     1       5.802   4.510  18.034  0.00  0.00    +0.000 A 
ATOM      7  C   UNL     1       5.544   4.135  16.678  0.00  0.00    +0.000 A 
ATOM      8  C   UNL     1       4.396   3.208  16.340  0.00  0.00    +0.000 C 
ENDROOT
BRANCH   1  11
ATOM      9  C   UNL     1       6.938   4.625  13.225  0.00  0.00    +0.000 C 
ATOM     10  O   UNL     1       7.850   5.438  13.220  0.00  0.00    +0.000 OA
ATOM     11  N   UNL     1       6.242   4.152  14.311  0.00  0.00    +0.000 N 
ATOM     12  H   UNL     1       5.629   3.378  14.112  0.00  0.00    +0.000 HD
BRANCH   9  13
ATOM     13  O   UNL     1       6.454   4.042  12.090  0.00  0.00    +0.000 OA
BRANCH  13  15
ATOM     14  C   UNL     1       4.307   3.258  11.389  0.00  0.00    +0.000 C 
ATOM     15  C   UNL     1       5.468   3.031  12.343  0.00  0.00    +0.000 C 
ENDBRANCH  13  15
ENDBRANCH   9  13
ENDBRANCH   1  11
BRANCH   6  16
ATOM     16  O   UNL     1       4.903   3.990  18.939  0.00  0.00    +0.000 OA
BRANCH  16  17
ATOM     17  C   UNL     1       3.943   4.827  19.574  0.00  0.00    +0.000 C 
ATOM     18  C   UNL     1       3.534   5.918  18.585  0.00  0.00    +0.000 C 
BRANCH  17  19
ATOM     19  C   UNL     1       2.682   4.081  20.011  0.00  0.00    +0.000 C 
ATOM     20  N   UNL     1       1.800   3.652  19.139  0.00  0.00    +0.000 NA
ATOM     21  C   UNL     1       0.729   3.051  19.990  0.00  0.00    +0.000 C 
ATOM     22  C   UNL     1       1.345   2.842  21.378  0.00  0.00    +0.000 C 
ATOM     23  N   UNL     1       2.427   3.783  21.327  0.00  0.00    +0.000 N 
ATOM     24  H   UNL     1       3.202   3.724  21.975  0.00  0.00    +0.000 HD
ENDBRANCH  17  19
ENDBRANCH  16  17
ENDBRANCH   6  16
TORSDOF 6
ENDMDL
MODEL 8
REMARK VINA RESULT:      -6.2      1.607      1.731
REMARK  Name = 
REMARK  10 active torsions:
REMARK  status: ('A' for Active; 'I' for Inactive)
REMARK    1  A    between atoms: C_1  and  C_2
REMARK    2  A    between atoms: C_2  and  O_3
REMARK    3  A    between atoms: O_3  and  C_4
REMARK    4  A    between atoms: N_6  and  C_7
REMARK    5  A    between atoms: C_10  and  C_11
REMARK    6  A    between atoms: C_12  and  O_13
REMARK    7  A    between atoms: O_13  and  C_14
REMARK    8  A    between atoms: C_14  and  C_15
REMARK    9  A    between atoms: C_14  and  C_16
REMARK   10  A    between atoms: C_21  and  C_22
REMARK                            x       y       z     vdW  Elec       q    Type
REMARK                         _______ _______ _______ _____ _____    ______ ____
ROOT
ATOM      1  C   UNL     1       2.557   6.251  18.616  0.00  0.00    +0.000 A 
ATOM      2  C   UNL     1       1.978   5.149  19.241  0.00  0.00    +0.000 A 
ATOM      3  C   UNL     1       2.393   3.862  18.948  0.00  0.00    +0.000 A 
ATOM      4  C   UNL     1       3.390   3.609  17.997  0.00  0.00    +0.000 A 
ATOM      5  C   UNL     1       3.771   2.162  17.868  0.00  0.00    +0.000 C 
ATOM      6  C   UNL     1       3.914   4.700  17.269  0.00  0.00    +0.000 A 
ATOM      7  C   UNL     1       3.483   6.030  17.570  0.00  0.00    +0.000 A 
ATOM      8  C   UNL     1       4.032   7.211  16.797  0.00  0.00    +0.000 C 
ENDROOT
BRANCH   1  11
ATOM      9  C   UNL     1       1.636   7.894  20.232  0.00  0.00    +0.000 C 
ATOM     10  O   UNL     1       1.403   7.157  21.177  0.00  0.00    +0.000 OA
ATOM     11  N   UNL     1       2.214   7.562  19.030  0.00  0.00    +0.000 N 
ATOM     12  H   UNL     1       2.449   8.348  18.446  0.00  0.00    +0.000 HD
BRANCH   9  13
ATOM     13  O   UNL     1       1.335   9.225  20.234  0.00  0.00    +0.000 OA
BRANCH  13  15
ATOM     14  C   UNL     1       1.269  11.257  18.975  0.00  0.00    +0.000 C 
ATOM     15  C   UNL     1       1.062   9.752  18.927  0.00  0.00    +0.000 C 
ENDBRANCH  13  15
ENDBRANCH   9  13
ENDBRANCH   1  11
BRANCH   6  16
ATOM     16  O   UNL     1       4.804   4.624  16.221  0.00  0.00    +0.000 OA
BRANCH  16  17
ATOM     17  C   UNL     1       6.167   4.280  16.448  0.00  0.00    +0.000 C 
ATOM     18  C   UNL     1       6.946   4.547  15.161  0.00  0.00    +0.000 C 
BRANCH  17  19
ATOM     19  C   UNL     1       6.815   5.085  17.575  0.00  0.00    +0.000 C 
ATOM     20  N   UNL     1       7.086   4.544  18.739  0.00  0.00    +0.000 NA
ATOM     21  C   UNL     1       7.641   5.681  19.534  0.00  0.00    +0.000 C 
ATOM     22  C   UNL     1       8.016   6.772  18.526  0.00  0.00    +0.000 C 
ATOM     23  N   UNL     1       7.186   6.398  17.416  0.00  0.00    +0.000 N 
ATOM     24  H   UNL     1       7.371   6.745  16.484  0.00  0.00    +0.000 HD
ENDBRANCH  17  19
ENDBRANCH  16  17
ENDBRANCH   6  16
TORSDOF 6
ENDMDL
MODEL 9
REMARK VINA RESULT:      -6.2      1.330      2.162
REMARK  Name = 
REMARK  10 active torsions:
REMARK  status: ('A' for Active; 'I' for Inactive)
REMARK    1  A    between atoms: C_1  and  C_2
REMARK    2  A    between atoms: C_2  and  O_3
REMARK    3  A    between atoms: O_3  and  C_4
REMARK    4  A    between atoms: N_6  and  C_7
REMARK    5  A    between atoms: C_10  and  C_11
REMARK    6  A    between atoms: C_12  and  O_13
REMARK    7  A    between atoms: O_13  and  C_14
REMARK    8  A    between atoms: C_14  and  C_15
REMARK    9  A    between atoms: C_14  and  C_16
REMARK   10  A    between atoms: C_21  and  C_22
REMARK                            x       y       z     vdW  Elec       q    Type
REMARK                         _______ _______ _______ _____ _____    ______ ____
ROOT
ATOM      1  C   UNL     1       2.337   6.377  20.067  0.00  0.00    +0.000 A 
ATOM      2  C   UNL     1       1.907   5.210  20.693  0.00  0.00    +0.000 A 
ATOM      3  C   UNL     1       2.236   3.965  20.187  0.00  0.00    +0.000 A 
ATOM      4  C   UNL     1       2.990   3.823  19.015  0.00  0.00    +0.000 A 
ATOM      5  C   UNL     1       3.322   2.402  18.659  0.00  0.00    +0.000 C 
ATOM      6  C   UNL     1       3.343   4.988  18.300  0.00  0.00    +0.000 A 
ATOM      7  C   UNL     1       3.001   6.275  18.822  0.00  0.00    +0.000 A 
ATOM      8  C   UNL     1       3.369   7.535  18.067  0.00  0.00    +0.000 C 
ENDROOT
BRANCH   1  11
ATOM      9  C   UNL     1       0.904   8.072  21.176  0.00  0.00    +0.000 C 
ATOM     10  O   UNL     1      -0.139   7.441  21.269  0.00  0.00    +0.000 OA
ATOM     11  N   UNL     1       2.107   7.635  20.677  0.00  0.00    +0.000 N 
ATOM     12  H   UNL     1       2.877   8.266  20.826  0.00  0.00    +0.000 HD
BRANCH   9  13
ATOM     13  O   UNL     1       1.025   9.372  21.571  0.00  0.00    +0.000 OA
BRANCH  13  15
ATOM     14  C   UNL     1      -0.651  10.739  22.591  0.00  0.00    +0.000 C 
ATOM     15  C   UNL     1       0.384   9.651  22.825  0.00  0.00    +0.000 C 
ENDBRANCH  13  15
ENDBRANCH   9  13
ENDBRANCH   1  11
BRANCH   6  16
ATOM     16  O   UNL     1       3.973   5.030  17.076  0.00  0.00    +0.000 OA
BRANCH  16  17
ATOM     17  C   UNL     1       5.342   5.405  16.974  0.00  0.00    +0.000 C 
ATOM     18  C   UNL     1       6.122   4.653  18.051  0.00  0.00    +0.000 C 
BRANCH  17  19
ATOM     19  C   UNL     1       5.962   5.074  15.616  0.00  0.00    +0.000 C 
ATOM     20  N   UNL     1       7.173   5.466  15.298  0.00  0.00    +0.000 NA
ATOM     21  C   UNL     1       7.341   4.987  13.893  0.00  0.00    +0.000 C 
ATOM     22  C   UNL     1       6.244   3.942  13.659  0.00  0.00    +0.000 C 
ATOM     23  N   UNL     1       5.305   4.316  14.678  0.00  0.00    +0.000 N 
ATOM     24  H   UNL     1       4.582   3.677  14.983  0.00  0.00    +0.000 HD
ENDBRANCH  17  19
ENDBRANCH  16  17
ENDBRANCH   6  16
TORSDOF 6
ENDMDL
