MODEL 1
REMARK VINA RESULT:      -6.7      0.000      0.000
REMARK  Name = 
REMARK  8 active torsions:
REMARK  status: ('A' for Active; 'I' for Inactive)
REMARK    1  A    between atoms: C_1  and  C_2
REMARK    2  A    between atoms: C_2  and  C_3
REMARK    3  A    between atoms: C_7  and  C_8
REMARK    4  A    between atoms: C_8  and  S_9
REMARK    5  A    between atoms: S_9  and  N_12
REMARK    6  A    between atoms: C_26  and  O_27
REMARK    7  A    between atoms: C_26  and  C_28
REMARK    8  A    between atoms: C_28  and  C_29
REMARK                            x       y       z     vdW  Elec       q    Type
REMARK                         _______ _______ _______ _____ _____    ______ ____
ROOT
ATOM      1  S   UNL     1      -0.761  14.428  20.661  0.00  0.00    +0.000 S 
ATOM      2  O   UNL     1      -1.631  15.232  19.839  0.00  0.00    +0.000 OA
ATOM      3  O   UNL     1       0.242  14.996  21.529  0.00  0.00    +0.000 OA
ENDROOT
BRANCH   1   4
ATOM      4  N   UNL     1       0.035  13.392  19.534  0.00  0.00    +0.000 NA
ATOM      5  C   UNL     1       1.449  12.973  19.874  0.00  0.00    +0.000 C 
ATOM      6  C   UNL     1       1.441  11.741  20.762  0.00  0.00    +0.000 C 
ATOM      7  C   UNL     1       0.532  10.578  20.319  0.00  0.00    +0.000 C 
ATOM      8  C   UNL     1       0.330   9.753  21.598  0.00  0.00    +0.000 C 
ATOM      9  C   UNL     1       0.621   8.462  21.437  0.00  0.00    +0.000 C 
ATOM     10  C   UNL     1       1.378   8.348  20.221  0.00  0.00    +0.000 A 
ATOM     11  C   UNL     1       2.186   7.294  19.830  0.00  0.00    +0.000 A 
ATOM     12  C   UNL     1       2.624   7.281  18.515  0.00  0.00    +0.000 A 
ATOM     13  C   UNL     1       2.191   8.286  17.636  0.00  0.00    +0.000 A 
ATOM     14  C   UNL     1       1.477   9.410  18.096  0.00  0.00    +0.000 A 
ATOM     15  C   UNL     1       1.168   9.493  19.441  0.00  0.00    +0.000 A 
ATOM     16  C   UNL     1      -0.826  11.065  19.763  0.00  0.00    +0.000 C 
ATOM     17  C   UNL     1      -0.668  12.273  18.872  0.00  0.00    +0.000 C 
ENDBRANCH   1   4
BRANCH   1  18
ATOM     18  C   UNL     1      -1.728  13.188  21.502  0.00  0.00    +0.000 C 
BRANCH  18  25
ATOM     19  C   UNL     1      -3.378  16.184  22.812  0.00  0.00    +0.000 C 
ATOM     20  C   UNL     1      -3.157  14.720  23.253  0.00  0.00    +0.000 C 
ATOM     21  C   UNL     1      -1.952  14.771  24.220  0.00  0.00    +0.000 C 
ATOM     22  C   UNL     1      -4.526  14.192  23.796  0.00  0.00    +0.000 C 
ATOM     23  C   UNL     1      -4.173  12.837  24.380  0.00  0.00    +0.000 C 
ATOM     24  C   UNL     1      -3.225  12.298  23.313  0.00  0.00    +0.000 C 
ATOM     25  C   UNL     1      -3.039  13.492  22.258  0.00  0.00    +0.000 C 
ATOM     26  C   UNL     1      -4.347  13.600  21.405  0.00  0.00    +0.000 C 
ATOM     27  C   UNL     1      -5.395  13.911  22.508  0.00  0.00    +0.000 C 
BRANCH  26  28
ATOM     28  O   UNL     1      -4.237  14.791  20.599  0.00  0.00    +0.000 OA
ATOM     29  H   UNL     1      -4.690  14.666  19.745  0.00  0.00    +0.000 HD
ENDBRANCH  26  28
BRANCH  26  30
ATOM     30  C   UNL     1      -4.686  12.490  20.382  0.00  0.00    +0.000 C 
BRANCH  30  31
ATOM     31  C   UNL     1      -6.060  12.001  20.283  0.00  0.00    +0.000 C 
ATOM     32  N   UNL     1      -7.167  11.635  20.264  0.00  0.00    +0.000 NA
ENDBRANCH  30  31
ENDBRANCH  26  30
ENDBRANCH  18  25
ENDBRANCH   1  18
TORSDOF 6
ENDMDL
MODEL 2
REMARK VINA RESULT:      -6.7      5.302     10.232
REMARK  Name = 
REMARK  8 active torsions:
REMARK  status: ('A' for Active; 'I' for Inactive)
REMARK    1  A    between atoms: C_1  and  C_2
REMARK    2  A    between atoms: C_2  and  C_3
REMARK    3  A    between atoms: C_7  and  C_8
REMARK    4  A    between atoms: C_8  and  S_9
REMARK    5  A    between atoms: S_9  and  N_12
REMARK    6  A    between atoms: C_26  and  O_27
REMARK    7  A    between atoms: C_26  and  C_28
REMARK    8  A    between atoms: C_28  and  C_29
REMARK                            x       y       z     vdW  Elec       q    Type
REMARK                         _______ _______ _______ _____ _____    ______ ____
ROOT
ATOM      1  S   UNL     1       1.660   6.163  19.341  0.00  0.00    +0.000 S 
ATOM      2  O   UNL     1       1.214   6.136  17.971  0.00  0.00    +0.000 OA
ATOM      3  O   UNL     1       0.798   5.842  20.452  0.00  0.00    +0.000 OA
ENDROOT
BRANCH   1   4
ATOM      4  N   UNL     1       2.231   7.777  19.560  0.00  0.00    +0.000 NA
ATOM      5  C   UNL     1       2.451   8.599  18.308  0.00  0.00    +0.000 C 
ATOM      6  C   UNL     1       1.162   9.278  17.882  0.00  0.00    +0.000 C 
ATOM      7  C   UNL     1       0.374  10.015  18.984  0.00  0.00    +0.000 C 
ATOM      8  C   UNL     1      -1.047  10.130  18.414  0.00  0.00    +0.000 C 
ATOM      9  C   UNL     1      -1.516  11.378  18.432  0.00  0.00    +0.000 C 
ATOM     10  C   UNL     1      -0.392  12.249  18.638  0.00  0.00    +0.000 A 
ATOM     11  C   UNL     1      -0.324  13.607  18.382  0.00  0.00    +0.000 A 
ATOM     12  C   UNL     1       0.769  14.296  18.885  0.00  0.00    +0.000 A 
ATOM     13  C   UNL     1       1.714  13.612  19.667  0.00  0.00    +0.000 A 
ATOM     14  C   UNL     1       1.683  12.209  19.800  0.00  0.00    +0.000 A 
ATOM     15  C   UNL     1       0.671  11.507  19.172  0.00  0.00    +0.000 A 
ATOM     16  C   UNL     1       0.364   9.241  20.322  0.00  0.00    +0.000 C 
ATOM     17  C   UNL     1       1.714   8.647  20.639  0.00  0.00    +0.000 C 
ENDBRANCH   1   4
BRANCH   1  18
ATOM     18  C   UNL     1       3.228   5.324  19.466  0.00  0.00    +0.000 C 
BRANCH  18  25
ATOM     19  C   UNL     1       1.088   2.367  19.162  0.00  0.00    +0.000 C 
ATOM     20  C   UNL     1       2.498   2.703  19.696  0.00  0.00    +0.000 C 
ATOM     21  C   UNL     1       2.318   2.868  21.223  0.00  0.00    +0.000 C 
ATOM     22  C   UNL     1       3.463   1.587  19.176  0.00  0.00    +0.000 C 
ATOM     23  C   UNL     1       4.764   1.882  19.901  0.00  0.00    +0.000 C 
ATOM     24  C   UNL     1       4.815   3.404  19.797  0.00  0.00    +0.000 C 
ATOM     25  C   UNL     1       3.434   3.837  19.106  0.00  0.00    +0.000 C 
ATOM     26  C   UNL     1       3.512   3.474  17.585  0.00  0.00    +0.000 C 
ATOM     27  C   UNL     1       3.710   1.936  17.657  0.00  0.00    +0.000 C 
BRANCH  26  28
ATOM     28  O   UNL     1       2.202   3.693  17.023  0.00  0.00    +0.000 OA
ATOM     29  H   UNL     1       1.515   3.566  17.703  0.00  0.00    +0.000 HD
ENDBRANCH  26  28
BRANCH  26  30
ATOM     30  C   UNL     1       4.453   4.278  16.656  0.00  0.00    +0.000 C 
BRANCH  30  31
ATOM     31  C   UNL     1       5.880   4.343  16.962  0.00  0.00    +0.000 C 
ATOM     32  N   UNL     1       7.005   4.382  17.269  0.00  0.00    +0.000 NA
ENDBRANCH  30  31
ENDBRANCH  26  30
ENDBRANCH  18  25
ENDBRANCH   1  18
TORSDOF 6
ENDMDL
MODEL 3
REMARK VINA RESULT:      -6.7      5.279     10.250
REMARK  Name = 
REMARK  8 active torsions:
REMARK  status: ('A' for Active; 'I' for Inactive)
REMARK    1  A    between atoms: C_1  and  C_2
REMARK    2  A    between atoms: C_2  and  C_3
REMARK    3  A    between atoms: C_7  and  C_8
REMARK    4  A    between atoms: C_8  and  S_9
REMARK    5  A    between atoms: S_9  and  N_12
REMARK    6  A    between atoms: C_26  and  O_27
REMARK    7  A    between atoms: C_26  and  C_28
REMARK    8  A    between atoms: C_28  and  C_29
REMARK                            x       y       z     vdW  Elec       q    Type
REMARK                         _______ _______ _______ _____ _____    ______ ____
ROOT
ATOM      1  S   UNL     1       2.385   6.309  19.133  0.00  0.00    +0.000 S 
ATOM      2  O   UNL     1       1.806   6.346  17.813  0.00  0.00    +0.000 OA
ATOM      3  O   UNL     1       1.762   5.628  20.242  0.00  0.00    +0.000 OA
ENDROOT
BRANCH   1   4
ATOM      4  N   UNL     1       2.556   7.973  19.558  0.00  0.00    +0.000 NA
ATOM      5  C   UNL     1       2.773   8.949  18.422  0.00  0.00    +0.000 C 
ATOM      6  C   UNL     1       1.442   9.395  17.841  0.00  0.00    +0.000 C 
ATOM      7  C   UNL     1       0.364   9.838  18.850  0.00  0.00    +0.000 C 
ATOM      8  C   UNL     1      -0.951   9.723  18.066  0.00  0.00    +0.000 C 
ATOM      9  C   UNL     1      -1.676  10.842  18.098  0.00  0.00    +0.000 C 
ATOM     10  C   UNL     1      -0.808  11.895  18.547  0.00  0.00    +0.000 A 
ATOM     11  C   UNL     1      -0.998  13.259  18.404  0.00  0.00    +0.000 A 
ATOM     12  C   UNL     1      -0.164  14.097  19.127  0.00  0.00    +0.000 A 
ATOM     13  C   UNL     1       0.783  13.539  20.001  0.00  0.00    +0.000 A 
ATOM     14  C   UNL     1       1.037  12.153  20.025  0.00  0.00    +0.000 A 
ATOM     15  C   UNL     1       0.301  11.331  19.192  0.00  0.00    +0.000 A 
ATOM     16  C   UNL     1       0.327   8.942  20.109  0.00  0.00    +0.000 C 
ATOM     17  C   UNL     1       1.714   8.602  20.598  0.00  0.00    +0.000 C 
ENDBRANCH   1   4
BRANCH   1  18
ATOM     18  C   UNL     1       4.116   5.903  19.004  0.00  0.00    +0.000 C 
BRANCH  18  25
ATOM     19  C   UNL     1       7.404   4.596  18.059  0.00  0.00    +0.000 C 
ATOM     20  C   UNL     1       6.352   5.564  17.474  0.00  0.00    +0.000 C 
ATOM     21  C   UNL     1       6.852   6.976  17.858  0.00  0.00    +0.000 C 
ATOM     22  C   UNL     1       6.199   5.214  15.957  0.00  0.00    +0.000 C 
ATOM     23  C   UNL     1       5.311   6.324  15.428  0.00  0.00    +0.000 C 
ATOM     24  C   UNL     1       4.288   6.439  16.555  0.00  0.00    +0.000 C 
ATOM     25  C   UNL     1       4.789   5.431  17.698  0.00  0.00    +0.000 C 
ATOM     26  C   UNL     1       4.488   3.968  17.227  0.00  0.00    +0.000 C 
ATOM     27  C   UNL     1       5.333   3.895  15.927  0.00  0.00    +0.000 C 
BRANCH  26  28
ATOM     28  O   UNL     1       5.113   3.076  18.172  0.00  0.00    +0.000 OA
ATOM     29  H   UNL     1       5.907   3.490  18.557  0.00  0.00    +0.000 HD
ENDBRANCH  26  28
BRANCH  26  30
ATOM     30  C   UNL     1       3.023   3.473  17.163  0.00  0.00    +0.000 C 
BRANCH  30  31
ATOM     31  C   UNL     1       2.503   2.628  18.236  0.00  0.00    +0.000 C 
ATOM     32  N   UNL     1       2.086   1.904  19.049  0.00  0.00    +0.000 NA
ENDBRANCH  30  31
ENDBRANCH  26  30
ENDBRANCH  18  25
ENDBRANCH   1  18
TORSDOF 6
ENDMDL
MODEL 4
REMARK VINA RESULT:      -6.6      7.219     11.256
REMARK  Name = 
REMARK  8 active torsions:
REMARK  status: ('A' for Active; 'I' for Inactive)
REMARK    1  A    between atoms: C_1  and  C_2
REMARK    2  A    between atoms: C_2  and  C_3
REMARK    3  A    between atoms: C_7  and  C_8
REMARK    4  A    between atoms: C_8  and  S_9
REMARK    5  A    between atoms: S_9  and  N_12
REMARK    6  A    between atoms: C_26  and  O_27
REMARK    7  A    between atoms: C_26  and  C_28
REMARK    8  A    between atoms: C_28  and  C_29
REMARK                            x       y       z     vdW  Elec       q    Type
REMARK                         _______ _______ _______ _____ _____    ______ ____
ROOT
ATOM      1  S   UNL     1       7.536  16.421  19.133  0.00  0.00    +0.000 S 
ATOM      2  O   UNL     1       8.057  16.439  20.477  0.00  0.00    +0.000 OA
ATOM      3  O   UNL     1       6.853  17.547  18.542  0.00  0.00    +0.000 OA
ENDROOT
BRANCH   1   4
ATOM      4  N   UNL     1       6.452  15.078  19.126  0.00  0.00    +0.000 NA
ATOM      5  C   UNL     1       5.548  14.924  20.330  0.00  0.00    +0.000 C 
ATOM      6  C   UNL     1       4.283  15.746  20.156  0.00  0.00    +0.000 C 
ATOM      7  C   UNL     1       3.554  15.612  18.804  0.00  0.00    +0.000 C 
ATOM      8  C   UNL     1       2.683  16.873  18.722  0.00  0.00    +0.000 C 
ATOM      9  C   UNL     1       1.401  16.605  18.472  0.00  0.00    +0.000 C 
ATOM     10  C   UNL     1       1.203  15.206  18.731  0.00  0.00    +0.000 A 
ATOM     11  C   UNL     1       0.003  14.554  18.952  0.00  0.00    +0.000 A 
ATOM     12  C   UNL     1       0.018  13.168  18.933  0.00  0.00    +0.000 A 
ATOM     13  C   UNL     1       1.215  12.496  18.640  0.00  0.00    +0.000 A 
ATOM     14  C   UNL     1       2.442  13.184  18.548  0.00  0.00    +0.000 A 
ATOM     15  C   UNL     1       2.446  14.557  18.714  0.00  0.00    +0.000 A 
ATOM     16  C   UNL     1       4.532  15.545  17.608  0.00  0.00    +0.000 C 
ATOM     17  C   UNL     1       5.725  14.670  17.905  0.00  0.00    +0.000 C 
ENDBRANCH   1   4
BRANCH   1  18
ATOM     18  C   UNL     1       8.770  15.754  18.033  0.00  0.00    +0.000 C 
BRANCH  18  25
ATOM     19  C   UNL     1      10.674  15.349  21.135  0.00  0.00    +0.000 C 
ATOM     20  C   UNL     1      10.962  15.383  19.618  0.00  0.00    +0.000 C 
ATOM     21  C   UNL     1      11.435  16.827  19.334  0.00  0.00    +0.000 C 
ATOM     22  C   UNL     1      11.942  14.204  19.311  0.00  0.00    +0.000 C 
ATOM     23  C   UNL     1      12.321  14.431  17.859  0.00  0.00    +0.000 C 
ATOM     24  C   UNL     1      10.970  14.814  17.263  0.00  0.00    +0.000 C 
ATOM     25  C   UNL     1       9.954  14.882  18.503  0.00  0.00    +0.000 C 
ATOM     26  C   UNL     1       9.630  13.418  18.951  0.00  0.00    +0.000 C 
ATOM     27  C   UNL     1      11.043  12.907  19.340  0.00  0.00    +0.000 C 
BRANCH  26  28
ATOM     28  O   UNL     1       8.874  13.501  20.177  0.00  0.00    +0.000 OA
ATOM     29  H   UNL     1       7.943  13.721  19.987  0.00  0.00    +0.000 HD
ENDBRANCH  26  28
BRANCH  26  30
ATOM     30  C   UNL     1       8.763  12.514  18.041  0.00  0.00    +0.000 C 
BRANCH  30  31
ATOM     31  C   UNL     1       8.798  11.065  18.226  0.00  0.00    +0.000 C 
ATOM     32  N   UNL     1       8.802   9.902  18.313  0.00  0.00    +0.000 NA
ENDBRANCH  30  31
ENDBRANCH  26  30
ENDBRANCH  18  25
ENDBRANCH   1  18
TORSDOF 6
ENDMDL
MODEL 5
REMARK VINA RESULT:      -6.5      9.519     12.744
REMARK  Name = 
REMARK  8 active torsions:
REMARK  status: ('A' for Active; 'I' for Inactive)
REMARK    1  A    between atoms: C_1  and  C_2
REMARK    2  A    between atoms: C_2  and  C_3
REMARK    3  A    between atoms: C_7  and  C_8
REMARK    4  A    between atoms: C_8  and  S_9
REMARK    5  A    between atoms: S_9  and  N_12
REMARK    6  A    between atoms: C_26  and  O_27
REMARK    7  A    between atoms: C_26  and  C_28
REMARK    8  A    between atoms: C_28  and  C_29
REMARK                            x       y       z     vdW  Elec       q    Type
REMARK                         _______ _______ _______ _____ _____    ______ ____
ROOT
ATOM      1  S   UNL     1       8.304  15.304  19.603  0.00  0.00    +0.000 S 
ATOM      2  O   UNL     1       8.361  16.579  18.933  0.00  0.00    +0.000 OA
ATOM      3  O   UNL     1       7.448  14.227  19.167  0.00  0.00    +0.000 OA
ENDROOT
BRANCH   1   4
ATOM      4  N   UNL     1       7.869  15.706  21.224  0.00  0.00    +0.000 NA
ATOM      5  C   UNL     1       6.555  15.155  21.735  0.00  0.00    +0.000 C 
ATOM      6  C   UNL     1       6.746  13.757  22.298  0.00  0.00    +0.000 C 
ATOM      7  C   UNL     1       7.927  13.561  23.268  0.00  0.00    +0.000 C 
ATOM      8  C   UNL     1       8.178  12.047  23.249  0.00  0.00    +0.000 C 
ATOM      9  C   UNL     1       8.195  11.506  24.468  0.00  0.00    +0.000 C 
ATOM     10  C   UNL     1       7.605  12.462  25.363  0.00  0.00    +0.000 A 
ATOM     11  C   UNL     1       7.090  12.225  26.625  0.00  0.00    +0.000 A 
ATOM     12  C   UNL     1       6.798  13.329  27.412  0.00  0.00    +0.000 A 
ATOM     13  C   UNL     1       7.084  14.615  26.926  0.00  0.00    +0.000 A 
ATOM     14  C   UNL     1       7.485  14.826  25.592  0.00  0.00    +0.000 A 
ATOM     15  C   UNL     1       7.634  13.729  24.764  0.00  0.00    +0.000 A 
ATOM     16  C   UNL     1       9.193  14.330  22.825  0.00  0.00    +0.000 C 
ATOM     17  C   UNL     1       8.863  15.712  22.319  0.00  0.00    +0.000 C 
ENDBRANCH   1   4
BRANCH   1  18
ATOM     18  C   UNL     1       9.963  14.733  19.923  0.00  0.00    +0.000 C 
BRANCH  18  25
ATOM     19  C   UNL     1       8.940  12.017  17.688  0.00  0.00    +0.000 C 
ATOM     20  C   UNL     1      10.024  12.263  18.760  0.00  0.00    +0.000 C 
ATOM     21  C   UNL     1       9.464  11.621  20.050  0.00  0.00    +0.000 C 
ATOM     22  C   UNL     1      11.373  11.719  18.183  0.00  0.00    +0.000 C 
ATOM     23  C   UNL     1      12.325  11.819  19.360  0.00  0.00    +0.000 C 
ATOM     24  C   UNL     1      11.938  13.179  19.932  0.00  0.00    +0.000 C 
ATOM     25  C   UNL     1      10.683  13.673  19.063  0.00  0.00    +0.000 C 
ATOM     26  C   UNL     1      11.208  14.126  17.660  0.00  0.00    +0.000 C 
ATOM     27  C   UNL     1      11.838  12.807  17.138  0.00  0.00    +0.000 C 
BRANCH  26  28
ATOM     28  O   UNL     1      10.055  14.383  16.832  0.00  0.00    +0.000 OA
ATOM     29  H   UNL     1      10.006  13.735  16.106  0.00  0.00    +0.000 HD
ENDBRANCH  26  28
BRANCH  26  30
ATOM     30  C   UNL     1      12.046  15.422  17.540  0.00  0.00    +0.000 C 
BRANCH  30  31
ATOM     31  C   UNL     1      11.375  16.687  17.250  0.00  0.00    +0.000 C 
ATOM     32  N   UNL     1      10.854  17.716  17.079  0.00  0.00    +0.000 NA
ENDBRANCH  30  31
ENDBRANCH  26  30
ENDBRANCH  18  25
ENDBRANCH   1  18
TORSDOF 6
ENDMDL
MODEL 6
REMARK VINA RESULT:      -6.4      7.209     11.444
REMARK  Name = 
REMARK  8 active torsions:
REMARK  status: ('A' for Active; 'I' for Inactive)
REMARK    1  A    between atoms: C_1  and  C_2
REMARK    2  A    between atoms: C_2  and  C_3
REMARK    3  A    between atoms: C_7  and  C_8
REMARK    4  A    between atoms: C_8  and  S_9
REMARK    5  A    between atoms: S_9  and  N_12
REMARK    6  A    between atoms: C_26  and  O_27
REMARK    7  A    between atoms: C_26  and  C_28
REMARK    8  A    between atoms: C_28  and  C_29
REMARK                            x       y       z     vdW  Elec       q    Type
REMARK                         _______ _______ _______ _____ _____    ______ ____
ROOT
ATOM      1  S   UNL     1       7.651  15.187  20.124  0.00  0.00    +0.000 S 
ATOM      2  O   UNL     1       6.888  14.546  21.165  0.00  0.00    +0.000 OA
ATOM      3  O   UNL     1       8.654  16.190  20.392  0.00  0.00    +0.000 OA
ENDROOT
BRANCH   1   4
ATOM      4  N   UNL     1       6.451  15.894  19.105  0.00  0.00    +0.000 NA
ATOM      5  C   UNL     1       5.506  14.943  18.402  0.00  0.00    +0.000 C 
ATOM      6  C   UNL     1       4.326  14.607  19.296  0.00  0.00    +0.000 C 
ATOM      7  C   UNL     1       3.623  15.793  19.985  0.00  0.00    +0.000 C 
ATOM      8  C   UNL     1       2.871  15.152  21.160  0.00  0.00    +0.000 C 
ATOM      9  C   UNL     1       1.577  15.472  21.188  0.00  0.00    +0.000 C 
ATOM     10  C   UNL     1       1.247  16.011  19.898  0.00  0.00    +0.000 A 
ATOM     11  C   UNL     1      -0.013  16.147  19.341  0.00  0.00    +0.000 A 
ATOM     12  C   UNL     1      -0.122  16.917  18.194  0.00  0.00    +0.000 A 
ATOM     13  C   UNL     1       1.017  17.562  17.686  0.00  0.00    +0.000 A 
ATOM     14  C   UNL     1       2.303  17.298  18.200  0.00  0.00    +0.000 A 
ATOM     15  C   UNL     1       2.426  16.412  19.254  0.00  0.00    +0.000 A 
ATOM     16  C   UNL     1       4.620  16.859  20.492  0.00  0.00    +0.000 C 
ATOM     17  C   UNL     1       5.721  17.120  19.494  0.00  0.00    +0.000 C 
ENDBRANCH   1   4
BRANCH   1  18
ATOM     18  C   UNL     1       8.250  13.951  18.987  0.00  0.00    +0.000 C 
BRANCH  18  25
ATOM     19  C   UNL     1      11.686  14.983  19.725  0.00  0.00    +0.000 C 
ATOM     20  C   UNL     1      10.973  13.983  18.788  0.00  0.00    +0.000 C 
ATOM     21  C   UNL     1      10.884  14.707  17.425  0.00  0.00    +0.000 C 
ATOM     22  C   UNL     1      11.765  12.636  18.866  0.00  0.00    +0.000 C 
ATOM     23  C   UNL     1      11.125  11.789  17.783  0.00  0.00    +0.000 C 
ATOM     24  C   UNL     1       9.649  12.116  17.992  0.00  0.00    +0.000 C 
ATOM     25  C   UNL     1       9.614  13.244  19.132  0.00  0.00    +0.000 C 
ATOM     26  C   UNL     1       9.922  12.561  20.507  0.00  0.00    +0.000 C 
ATOM     27  C   UNL     1      11.343  11.993  20.244  0.00  0.00    +0.000 C 
BRANCH  26  28
ATOM     28  O   UNL     1      10.074  13.610  21.484  0.00  0.00    +0.000 OA
ATOM     29  H   UNL     1       9.432  13.496  22.208  0.00  0.00    +0.000 HD
ENDBRANCH  26  28
BRANCH  26  30
ATOM     30  C   UNL     1       8.874  11.614  21.140  0.00  0.00    +0.000 C 
BRANCH  30  31
ATOM     31  C   UNL     1       8.455  11.831  22.523  0.00  0.00    +0.000 C 
ATOM     32  N   UNL     1       8.111  12.067  23.612  0.00  0.00    +0.000 NA
ENDBRANCH  30  31
ENDBRANCH  26  30
ENDBRANCH  18  25
ENDBRANCH   1  18
TORSDOF 6
ENDMDL
MODEL 7
REMARK VINA RESULT:      -6.4      1.680      2.380
REMARK  Name = 
REMARK  8 active torsions:
REMARK  status: ('A' for Active; 'I' for Inactive)
REMARK    1  A    between atoms: C_1  and  C_2
REMARK    2  A    between atoms: C_2  and  C_3
REMARK    3  A    between atoms: C_7  and  C_8
REMARK    4  A    between atoms: C_8  and  S_9
REMARK    5  A    between atoms: S_9  and  N_12
REMARK    6  A    between atoms: C_26  and  O_27
REMARK    7  A    between atoms: C_26  and  C_28
REMARK    8  A    between atoms: C_28  and  C_29
REMARK                            x       y       z     vdW  Elec       q    Type
REMARK                         _______ _______ _______ _____ _____    ______ ____
ROOT
ATOM      1  S   UNL     1      -0.536  14.529  20.069  0.00  0.00    +0.000 S 
ATOM      2  O   UNL     1      -0.725  15.663  19.199  0.00  0.00    +0.000 OA
ATOM      3  O   UNL     1       0.242  14.593  21.282  0.00  0.00    +0.000 OA
ENDROOT
BRANCH   1   4
ATOM      4  N   UNL     1       0.172  13.334  19.045  0.00  0.00    +0.000 NA
ATOM      5  C   UNL     1       1.591  12.916  19.364  0.00  0.00    +0.000 C 
ATOM      6  C   UNL     1       1.600  11.807  20.402  0.00  0.00    +0.000 C 
ATOM      7  C   UNL     1       0.639  10.627  20.157  0.00  0.00    +0.000 C 
ATOM      8  C   UNL     1       0.485   9.978  21.540  0.00  0.00    +0.000 C 
ATOM      9  C   UNL     1       0.735   8.668  21.531  0.00  0.00    +0.000 C 
ATOM     10  C   UNL     1       1.422   8.377  20.304  0.00  0.00    +0.000 A 
ATOM     11  C   UNL     1       2.181   7.257  20.011  0.00  0.00    +0.000 A 
ATOM     12  C   UNL     1       2.547   7.063  18.688  0.00  0.00    +0.000 A 
ATOM     13  C   UNL     1       2.093   7.962  17.710  0.00  0.00    +0.000 A 
ATOM     14  C   UNL     1       1.433   9.158  18.058  0.00  0.00    +0.000 A 
ATOM     15  C   UNL     1       1.199   9.420  19.395  0.00  0.00    +0.000 A 
ATOM     16  C   UNL     1      -0.734  11.083  19.613  0.00  0.00    +0.000 C 
ATOM     17  C   UNL     1      -0.594  12.162  18.568  0.00  0.00    +0.000 C 
ENDBRANCH   1   4
BRANCH   1  18
ATOM     18  C   UNL     1      -2.106  13.728  20.340  0.00  0.00    +0.000 C 
BRANCH  18  25
ATOM     19  C   UNL     1      -1.650  14.179  23.946  0.00  0.00    +0.000 C 
ATOM     20  C   UNL     1      -2.672  13.510  23.002  0.00  0.00    +0.000 C 
ATOM     21  C   UNL     1      -2.279  12.014  22.982  0.00  0.00    +0.000 C 
ATOM     22  C   UNL     1      -4.097  13.898  23.519  0.00  0.00    +0.000 C 
ATOM     23  C   UNL     1      -5.023  13.049  22.668  0.00  0.00    +0.000 C 
ATOM     24  C   UNL     1      -4.365  13.186  21.298  0.00  0.00    +0.000 C 
ATOM     25  C   UNL     1      -3.022  14.027  21.546  0.00  0.00    +0.000 C 
ATOM     26  C   UNL     1      -3.419  15.522  21.788  0.00  0.00    +0.000 C 
ATOM     27  C   UNL     1      -4.307  15.391  23.055  0.00  0.00    +0.000 C 
BRANCH  26  28
ATOM     28  O   UNL     1      -2.226  16.223  22.196  0.00  0.00    +0.000 OA
ATOM     29  H   UNL     1      -1.436  15.683  22.012  0.00  0.00    +0.000 HD
ENDBRANCH  26  28
BRANCH  26  30
ATOM     30  C   UNL     1      -3.963  16.368  20.612  0.00  0.00    +0.000 C 
BRANCH  30  31
ATOM     31  C   UNL     1      -3.287  17.613  20.252  0.00  0.00    +0.000 C 
ATOM     32  N   UNL     1      -2.766  18.631  20.023  0.00  0.00    +0.000 NA
ENDBRANCH  30  31
ENDBRANCH  26  30
ENDBRANCH  18  25
ENDBRANCH   1  18
TORSDOF 6
ENDMDL
MODEL 8
REMARK VINA RESULT:      -6.2      4.856      9.853
REMARK  Name = 
REMARK  8 active torsions:
REMARK  status: ('A' for Active; 'I' for Inactive)
REMARK    1  A    between atoms: C_1  and  C_2
REMARK    2  A    between atoms: C_2  and  C_3
REMARK    3  A    between atoms: C_7  and  C_8
REMARK    4  A    between atoms: C_8  and  S_9
REMARK    5  A    between atoms: S_9  and  N_12
REMARK    6  A    between atoms: C_26  and  O_27
REMARK    7  A    between atoms: C_26  and  C_28
REMARK    8  A    between atoms: C_28  and  C_29
REMARK                            x       y       z     vdW  Elec       q    Type
REMARK                         _______ _______ _______ _____ _____    ______ ____
ROOT
ATOM      1  S   UNL     1       2.423   7.414  18.366  0.00  0.00    +0.000 S 
ATOM      2  O   UNL     1       3.648   7.664  17.648  0.00  0.00    +0.000 OA
ATOM      3  O   UNL     1       1.177   7.107  17.706  0.00  0.00    +0.000 OA
ENDROOT
BRANCH   1   4
ATOM      4  N   UNL     1       2.191   8.845  19.302  0.00  0.00    +0.000 NA
ATOM      5  C   UNL     1       2.110  10.152  18.543  0.00  0.00    +0.000 C 
ATOM      6  C   UNL     1       0.687  10.411  18.079  0.00  0.00    +0.000 C 
ATOM      7  C   UNL     1      -0.425  10.228  19.131  0.00  0.00    +0.000 C 
ATOM      8  C   UNL     1      -1.701  10.043  18.298  0.00  0.00    +0.000 C 
ATOM      9  C   UNL     1      -2.680  10.875  18.653  0.00  0.00    +0.000 C 
ATOM     10  C   UNL     1      -2.085  11.914  19.447  0.00  0.00    +0.000 A 
ATOM     11  C   UNL     1      -2.615  13.159  19.735  0.00  0.00    +0.000 A 
ATOM     12  C   UNL     1      -1.987  13.906  20.720  0.00  0.00    +0.000 A 
ATOM     13  C   UNL     1      -0.895  13.356  21.410  0.00  0.00    +0.000 A 
ATOM     14  C   UNL     1      -0.303  12.143  21.005  0.00  0.00    +0.000 A 
ATOM     15  C   UNL     1      -0.844  11.471  19.925  0.00  0.00    +0.000 A 
ATOM     16  C   UNL     1      -0.184   9.001  20.040  0.00  0.00    +0.000 C 
ATOM     17  C   UNL     1       1.263   8.882  20.452  0.00  0.00    +0.000 C 
ENDBRANCH   1   4
BRANCH   1  18
ATOM     18  C   UNL     1       2.748   6.286  19.708  0.00  0.00    +0.000 C 
BRANCH  18  25
ATOM     19  C   UNL     1       1.571   3.645  17.459  0.00  0.00    +0.000 C 
ATOM     20  C   UNL     1       1.943   3.789  18.951  0.00  0.00    +0.000 C 
ATOM     21  C   UNL     1       0.594   3.982  19.682  0.00  0.00    +0.000 C 
ATOM     22  C   UNL     1       2.822   2.551  19.327  0.00  0.00    +0.000 C 
ATOM     23  C   UNL     1       2.972   2.670  20.833  0.00  0.00    +0.000 C 
ATOM     24  C   UNL     1       3.208   4.170  20.983  0.00  0.00    +0.000 C 
ATOM     25  C   UNL     1       3.042   4.784  19.510  0.00  0.00    +0.000 C 
ATOM     26  C   UNL     1       4.314   4.407  18.678  0.00  0.00    +0.000 C 
ATOM     27  C   UNL     1       4.243   2.857  18.712  0.00  0.00    +0.000 C 
BRANCH  26  28
ATOM     28  O   UNL     1       4.065   4.799  17.313  0.00  0.00    +0.000 OA
ATOM     29  H   UNL     1       4.822   5.303  16.961  0.00  0.00    +0.000 HD
ENDBRANCH  26  28
BRANCH  26  30
ATOM     30  C   UNL     1       5.671   5.073  19.013  0.00  0.00    +0.000 C 
BRANCH  30  31
ATOM     31  C   UNL     1       6.809   4.871  18.120  0.00  0.00    +0.000 C 
ATOM     32  N   UNL     1       7.710   4.644  17.415  0.00  0.00    +0.000 NA
ENDBRANCH  30  31
ENDBRANCH  26  30
ENDBRANCH  18  25
ENDBRANCH   1  18
TORSDOF 6
ENDMDL
MODEL 9
REMARK VINA RESULT:      -6.2      7.331     11.553
REMARK  Name = 
REMARK  8 active torsions:
REMARK  status: ('A' for Active; 'I' for Inactive)
REMARK    1  A    between atoms: C_1  and  C_2
REMARK    2  A    between atoms: C_2  and  C_3
REMARK    3  A    between atoms: C_7  and  C_8
REMARK    4  A    between atoms: C_8  and  S_9
REMARK    5  A    between atoms: S_9  and  N_12
REMARK    6  A    between atoms: C_26  and  O_27
REMARK    7  A    between atoms: C_26  and  C_28
REMARK    8  A    between atoms: C_28  and  C_29
REMARK                            x       y       z     vdW  Elec       q    Type
REMARK                         _______ _______ _______ _____ _____    ______ ____
ROOT
ATOM      1  S   UNL     1       7.759  15.069  20.299  0.00  0.00    +0.000 S 
ATOM      2  O   UNL     1       7.018  14.134  21.108  0.00  0.00    +0.000 OA
ATOM      3  O   UNL     1       8.718  15.994  20.852  0.00  0.00    +0.000 OA
ENDROOT
BRANCH   1   4
ATOM      4  N   UNL     1       6.537  15.986  19.497  0.00  0.00    +0.000 NA
ATOM      5  C   UNL     1       5.814  15.307  18.354  0.00  0.00    +0.000 C 
ATOM      6  C   UNL     1       4.643  14.491  18.873  0.00  0.00    +0.000 C 
ATOM      7  C   UNL     1       3.707  15.191  19.878  0.00  0.00    +0.000 C 
ATOM      8  C   UNL     1       2.988  14.034  20.586  0.00  0.00    +0.000 C 
ATOM      9  C   UNL     1       1.660  14.156  20.567  0.00  0.00    +0.000 C 
ATOM     10  C   UNL     1       1.340  15.139  19.569  0.00  0.00    +0.000 A 
ATOM     11  C   UNL     1       0.119  15.342  18.951  0.00  0.00    +0.000 A 
ATOM     12  C   UNL     1      -0.032  16.500  18.204  0.00  0.00    +0.000 A 
ATOM     13  C   UNL     1       1.020  17.428  18.153  0.00  0.00    +0.000 A 
ATOM     14  C   UNL     1       2.291  17.131  18.685  0.00  0.00    +0.000 A 
ATOM     15  C   UNL     1       2.481  15.909  19.303  0.00  0.00    +0.000 A 
ATOM     16  C   UNL     1       4.477  16.061  20.898  0.00  0.00    +0.000 C 
ATOM     17  C   UNL     1       5.589  16.842  20.244  0.00  0.00    +0.000 C 
ENDBRANCH   1   4
BRANCH   1  18
ATOM     18  C   UNL     1       8.414  14.222  18.873  0.00  0.00    +0.000 C 
BRANCH  18  25
ATOM     19  C   UNL     1      11.785  15.421  19.655  0.00  0.00    +0.000 C 
ATOM     20  C   UNL     1      11.104  14.569  18.562  0.00  0.00    +0.000 C 
ATOM     21  C   UNL     1      10.862  15.545  17.387  0.00  0.00    +0.000 C 
ATOM     22  C   UNL     1      12.017  13.322  18.317  0.00  0.00    +0.000 C 
ATOM     23  C   UNL     1      11.385  12.655  17.109  0.00  0.00    +0.000 C 
ATOM     24  C   UNL     1       9.903  12.782  17.450  0.00  0.00    +0.000 C 
ATOM     25  C   UNL     1       9.842  13.642  18.803  0.00  0.00    +0.000 C 
ATOM     26  C   UNL     1      10.299  12.724  19.987  0.00  0.00    +0.000 C 
ATOM     27  C   UNL     1      11.745  12.370  19.546  0.00  0.00    +0.000 C 
BRANCH  26  28
ATOM     28  O   UNL     1      10.421  13.560  21.156  0.00  0.00    +0.000 OA
ATOM     29  H   UNL     1      10.412  14.502  20.903  0.00  0.00    +0.000 HD
ENDBRANCH  26  28
BRANCH  26  30
ATOM     30  C   UNL     1       9.384  11.567  20.453  0.00  0.00    +0.000 C 
BRANCH  30  31
ATOM     31  C   UNL     1       9.151  10.433  19.561  0.00  0.00    +0.000 C 
ATOM     32  N   UNL     1       8.959   9.570  18.800  0.00  0.00    +0.000 NA
ENDBRANCH  30  31
ENDBRANCH  26  30
ENDBRANCH  18  25
ENDBRANCH   1  18
TORSDOF 6
ENDMDL
