MODEL 1
REMARK VINA RESULT:      -6.9      0.000      0.000
REMARK  Name = 
REMARK  9 active torsions:
REMARK  status: ('A' for Active; 'I' for Inactive)
REMARK    1  A    between atoms: C_1  and  C_2
REMARK    2  A    between atoms: C_4  and  C_5
REMARK    3  A    between atoms: C_5  and  C_6
REMARK    4  A    between atoms: C_6  and  C_7
REMARK    5  A    between atoms: C_7  and  C_8
REMARK    6  A    between atoms: N_10  and  C_11
REMARK    7  A    between atoms: N_14  and  C_15
REMARK    8  A    between atoms: C_15  and  C_16
REMARK    9  A    between atoms: C_15  and  C_17
REMARK                            x       y       z     vdW  Elec       q    Type
REMARK                         _______ _______ _______ _____ _____    ______ ____
ROOT
ATOM      1  C   UNL     1       6.900   6.314  16.518  0.00  0.00    +0.000 C 
ATOM      2  O   UNL     1       5.809   6.828  16.267  0.00  0.00    +0.000 OA
ATOM      3  N   UNL     1       7.572   5.547  15.598  0.00  0.00    +0.000 N 
ATOM      4  H   UNL     1       8.458   5.106  15.822  0.00  0.00    +0.000 HD
ENDROOT
BRANCH   3   5
ATOM      5  C   UNL     1       6.956   5.294  14.315  0.00  0.00    +0.000 C 
ATOM      6  C   UNL     1       7.963   5.262  13.174  0.00  0.00    +0.000 C 
ATOM      7  C   UNL     1       7.198   4.558  12.071  0.00  0.00    +0.000 C 
ATOM      8  N   UNL     1       6.341   3.632  12.779  0.00  0.00    +0.000 N 
ATOM      9  C   UNL     1       6.233   3.959  14.130  0.00  0.00    +0.000 C 
ATOM     10  O   UNL     1       5.627   3.350  14.999  0.00  0.00    +0.000 OA
BRANCH   8  11
ATOM     11  C   UNL     1       5.618   2.562  12.088  0.00  0.00    +0.000 C 
ATOM     12  C   UNL     1       4.396   3.104  11.350  0.00  0.00    +0.000 C 
ATOM     13  C   UNL     1       6.514   1.773  11.134  0.00  0.00    +0.000 C 
ENDBRANCH   8  11
ENDBRANCH   3   5
BRANCH   1  14
ATOM     14  C   UNL     1       7.595   6.514  17.845  0.00  0.00    +0.000 C 
BRANCH  14  15
ATOM     15  C   UNL     1       6.900   5.714  18.953  0.00  0.00    +0.000 C 
BRANCH  15  16
ATOM     16  C   UNL     1       6.252   4.436  18.408  0.00  0.00    +0.000 C 
BRANCH  16  20
ATOM     17  C   UNL     1       1.948   5.754  20.455  0.00  0.00    +0.000 C 
ATOM     18  C   UNL     1       2.997   4.859  19.899  0.00  0.00    +0.000 A 
ATOM     19  N   UNL     1       4.139   5.276  19.391  0.00  0.00    +0.000 NA
ATOM     20  C   UNL     1       4.896   4.191  18.982  0.00  0.00    +0.000 A 
ATOM     21  C   UNL     1       4.302   2.958  19.179  0.00  0.00    +0.000 A 
ATOM     22  S   UNL     1       2.763   3.158  19.901  0.00  0.00    +0.000 S 
ENDBRANCH  16  20
ENDBRANCH  15  16
ENDBRANCH  14  15
ENDBRANCH   1  14
TORSDOF 6
ENDMDL
MODEL 2
REMARK VINA RESULT:      -6.8      4.762      7.442
REMARK  Name = 
REMARK  9 active torsions:
REMARK  status: ('A' for Active; 'I' for Inactive)
REMARK    1  A    between atoms: C_1  and  C_2
REMARK    2  A    between atoms: C_4  and  C_5
REMARK    3  A    between atoms: C_5  and  C_6
REMARK    4  A    between atoms: C_6  and  C_7
REMARK    5  A    between atoms: C_7  and  C_8
REMARK    6  A    between atoms: N_10  and  C_11
REMARK    7  A    between atoms: N_14  and  C_15
REMARK    8  A    between atoms: C_15  and  C_16
REMARK    9  A    between atoms: C_15  and  C_17
REMARK                            x       y       z     vdW  Elec       q    Type
REMARK                         _______ _______ _______ _____ _____    ______ ____
ROOT
ATOM      1  C   UNL     1       6.601   5.924  18.622  0.00  0.00    +0.000 C 
ATOM      2  O   UNL     1       7.057   5.485  19.680  0.00  0.00    +0.000 OA
ATOM      3  N   UNL     1       5.251   5.979  18.378  0.00  0.00    +0.000 N 
ATOM      4  H   UNL     1       4.886   6.319  17.495  0.00  0.00    +0.000 HD
ENDROOT
BRANCH   3   5
ATOM      5  C   UNL     1       4.339   5.458  19.372  0.00  0.00    +0.000 C 
ATOM      6  C   UNL     1       3.000   6.182  19.379  0.00  0.00    +0.000 C 
ATOM      7  C   UNL     1       2.101   5.217  20.126  0.00  0.00    +0.000 C 
ATOM      8  N   UNL     1       2.620   3.914  19.773  0.00  0.00    +0.000 N 
ATOM      9  C   UNL     1       3.904   3.998  19.234  0.00  0.00    +0.000 C 
ATOM     10  O   UNL     1       4.591   3.088  18.796  0.00  0.00    +0.000 OA
BRANCH   8  11
ATOM     11  C   UNL     1       1.885   2.682  20.064  0.00  0.00    +0.000 C 
ATOM     12  C   UNL     1       1.398   2.655  21.512  0.00  0.00    +0.000 C 
ATOM     13  C   UNL     1       0.721   2.454  19.101  0.00  0.00    +0.000 C 
ENDBRANCH   8  11
ENDBRANCH   3   5
BRANCH   1  14
ATOM     14  C   UNL     1       7.493   6.464  17.529  0.00  0.00    +0.000 C 
BRANCH  14  15
ATOM     15  C   UNL     1       7.647   7.985  17.649  0.00  0.00    +0.000 C 
BRANCH  15  16
ATOM     16  C   UNL     1       8.659   8.368  18.734  0.00  0.00    +0.000 C 
BRANCH  16  20
ATOM     17  C   UNL     1      10.157  12.593  20.821  0.00  0.00    +0.000 C 
ATOM     18  C   UNL     1       9.614  11.684  19.778  0.00  0.00    +0.000 A 
ATOM     19  N   UNL     1       9.485  10.381  19.919  0.00  0.00    +0.000 NA
ATOM     20  C   UNL     1       8.931   9.835  18.773  0.00  0.00    +0.000 A 
ATOM     21  C   UNL     1       8.660  10.744  17.767  0.00  0.00    +0.000 A 
ATOM     22  S   UNL     1       9.099  12.321  18.268  0.00  0.00    +0.000 S 
ENDBRANCH  16  20
ENDBRANCH  15  16
ENDBRANCH  14  15
ENDBRANCH   1  14
TORSDOF 6
ENDMDL
MODEL 3
REMARK VINA RESULT:      -6.8      0.925      1.125
REMARK  Name = 
REMARK  9 active torsions:
REMARK  status: ('A' for Active; 'I' for Inactive)
REMARK    1  A    between atoms: C_1  and  C_2
REMARK    2  A    between atoms: C_4  and  C_5
REMARK    3  A    between atoms: C_5  and  C_6
REMARK    4  A    between atoms: C_6  and  C_7
REMARK    5  A    between atoms: C_7  and  C_8
REMARK    6  A    between atoms: N_10  and  C_11
REMARK    7  A    between atoms: N_14  and  C_15
REMARK    8  A    between atoms: C_15  and  C_16
REMARK    9  A    between atoms: C_15  and  C_17
REMARK                            x       y       z     vdW  Elec       q    Type
REMARK                         _______ _______ _______ _____ _____    ______ ____
ROOT
ATOM      1  C   UNL     1       6.928   6.271  16.539  0.00  0.00    +0.000 C 
ATOM      2  O   UNL     1       5.877   6.854  16.269  0.00  0.00    +0.000 OA
ATOM      3  N   UNL     1       7.566   5.461  15.632  0.00  0.00    +0.000 N 
ATOM      4  H   UNL     1       8.418   4.965  15.872  0.00  0.00    +0.000 HD
ENDROOT
BRANCH   3   5
ATOM      5  C   UNL     1       6.958   5.247  14.338  0.00  0.00    +0.000 C 
ATOM      6  C   UNL     1       7.981   5.154  13.214  0.00  0.00    +0.000 C 
ATOM      7  C   UNL     1       7.194   4.497  12.097  0.00  0.00    +0.000 C 
ATOM      8  N   UNL     1       6.270   3.625  12.789  0.00  0.00    +0.000 N 
ATOM      9  C   UNL     1       6.158   3.957  14.139  0.00  0.00    +0.000 C 
ATOM     10  O   UNL     1       5.502   3.386  14.996  0.00  0.00    +0.000 OA
BRANCH   8  11
ATOM     11  C   UNL     1       5.497   2.601  12.085  0.00  0.00    +0.000 C 
ATOM     12  C   UNL     1       4.333   3.218  11.312  0.00  0.00    +0.000 C 
ATOM     13  C   UNL     1       6.363   1.747  11.160  0.00  0.00    +0.000 C 
ENDBRANCH   8  11
ENDBRANCH   3   5
BRANCH   1  14
ATOM     14  C   UNL     1       7.611   6.428  17.878  0.00  0.00    +0.000 C 
BRANCH  14  15
ATOM     15  C   UNL     1       6.944   5.544  18.939  0.00  0.00    +0.000 C 
BRANCH  15  16
ATOM     16  C   UNL     1       5.931   4.578  18.316  0.00  0.00    +0.000 C 
BRANCH  16  20
ATOM     17  C   UNL     1       2.267   2.809  21.127  0.00  0.00    +0.000 C 
ATOM     18  C   UNL     1       3.005   3.764  20.259  0.00  0.00    +0.000 A 
ATOM     19  N   UNL     1       4.213   3.554  19.779  0.00  0.00    +0.000 NA
ATOM     20  C   UNL     1       4.601   4.626  18.994  0.00  0.00    +0.000 A 
ATOM     21  C   UNL     1       3.674   5.648  18.903  0.00  0.00    +0.000 A 
ATOM     22  S   UNL     1       2.278   5.255  19.813  0.00  0.00    +0.000 S 
ENDBRANCH  16  20
ENDBRANCH  15  16
ENDBRANCH  14  15
ENDBRANCH   1  14
TORSDOF 6
ENDMDL
MODEL 4
REMARK VINA RESULT:      -6.7      4.865      7.550
REMARK  Name = 
REMARK  9 active torsions:
REMARK  status: ('A' for Active; 'I' for Inactive)
REMARK    1  A    between atoms: C_1  and  C_2
REMARK    2  A    between atoms: C_4  and  C_5
REMARK    3  A    between atoms: C_5  and  C_6
REMARK    4  A    between atoms: C_6  and  C_7
REMARK    5  A    between atoms: C_7  and  C_8
REMARK    6  A    between atoms: N_10  and  C_11
REMARK    7  A    between atoms: N_14  and  C_15
REMARK    8  A    between atoms: C_15  and  C_16
REMARK    9  A    between atoms: C_15  and  C_17
REMARK                            x       y       z     vdW  Elec       q    Type
REMARK                         _______ _______ _______ _____ _____    ______ ____
ROOT
ATOM      1  C   UNL     1       7.480   6.976  18.098  0.00  0.00    +0.000 C 
ATOM      2  O   UNL     1       8.104   6.412  19.000  0.00  0.00    +0.000 OA
ATOM      3  N   UNL     1       6.279   6.498  17.634  0.00  0.00    +0.000 N 
ATOM      4  H   UNL     1       5.786   6.954  16.874  0.00  0.00    +0.000 HD
ENDROOT
BRANCH   3   5
ATOM      5  C   UNL     1       5.755   5.269  18.186  0.00  0.00    +0.000 C 
ATOM      6  C   UNL     1       4.867   5.500  19.400  0.00  0.00    +0.000 C 
ATOM      7  C   UNL     1       4.103   4.195  19.510  0.00  0.00    +0.000 C 
ATOM      8  N   UNL     1       3.962   3.758  18.138  0.00  0.00    +0.000 N 
ATOM      9  C   UNL     1       4.847   4.424  17.290  0.00  0.00    +0.000 C 
ATOM     10  O   UNL     1       4.942   4.317  16.077  0.00  0.00    +0.000 OA
BRANCH   8  11
ATOM     11  C   UNL     1       3.056   2.672  17.760  0.00  0.00    +0.000 C 
ATOM     12  C   UNL     1       3.513   1.338  18.349  0.00  0.00    +0.000 C 
ATOM     13  C   UNL     1       1.606   2.959  18.144  0.00  0.00    +0.000 C 
ENDBRANCH   8  11
ENDBRANCH   3   5
BRANCH   1  14
ATOM     14  C   UNL     1       7.976   8.251  17.457  0.00  0.00    +0.000 C 
BRANCH  14  15
ATOM     15  C   UNL     1       8.701   9.132  18.481  0.00  0.00    +0.000 C 
BRANCH  15  16
ATOM     16  C   UNL     1       8.638  10.615  18.099  0.00  0.00    +0.000 C 
BRANCH  16  20
ATOM     17  C   UNL     1      12.332  13.778  17.207  0.00  0.00    +0.000 C 
ATOM     18  C   UNL     1      11.522  12.773  17.943  0.00  0.00    +0.000 A 
ATOM     19  N   UNL     1      10.388  12.264  17.505  0.00  0.00    +0.000 NA
ATOM     20  C   UNL     1       9.901  11.344  18.417  0.00  0.00    +0.000 A 
ATOM     21  C   UNL     1      10.677  11.179  19.550  0.00  0.00    +0.000 A 
ATOM     22  S   UNL     1      12.055  12.192  19.469  0.00  0.00    +0.000 S 
ENDBRANCH  16  20
ENDBRANCH  15  16
ENDBRANCH  14  15
ENDBRANCH   1  14
TORSDOF 6
ENDMDL
MODEL 5
REMARK VINA RESULT:      -6.6      2.839      6.999
REMARK  Name = 
REMARK  9 active torsions:
REMARK  status: ('A' for Active; 'I' for Inactive)
REMARK    1  A    between atoms: C_1  and  C_2
REMARK    2  A    between atoms: C_4  and  C_5
REMARK    3  A    between atoms: C_5  and  C_6
REMARK    4  A    between atoms: C_6  and  C_7
REMARK    5  A    between atoms: C_7  and  C_8
REMARK    6  A    between atoms: N_10  and  C_11
REMARK    7  A    between atoms: N_14  and  C_15
REMARK    8  A    between atoms: C_15  and  C_16
REMARK    9  A    between atoms: C_15  and  C_17
REMARK                            x       y       z     vdW  Elec       q    Type
REMARK                         _______ _______ _______ _____ _____    ______ ____
ROOT
ATOM      1  C   UNL     1       6.260   5.599  18.751  0.00  0.00    +0.000 C 
ATOM      2  O   UNL     1       6.661   5.146  19.825  0.00  0.00    +0.000 OA
ATOM      3  N   UNL     1       4.935   5.883  18.529  0.00  0.00    +0.000 N 
ATOM      4  H   UNL     1       4.610   6.231  17.634  0.00  0.00    +0.000 HD
ENDROOT
BRANCH   3   5
ATOM      5  C   UNL     1       3.974   5.593  19.571  0.00  0.00    +0.000 C 
ATOM      6  C   UNL     1       2.805   6.568  19.581  0.00  0.00    +0.000 C 
ATOM      7  C   UNL     1       1.761   5.831  20.396  0.00  0.00    +0.000 C 
ATOM      8  N   UNL     1       2.000   4.438  20.090  0.00  0.00    +0.000 N 
ATOM      9  C   UNL     1       3.255   4.244  19.512  0.00  0.00    +0.000 C 
ATOM     10  O   UNL     1       3.733   3.199  19.098  0.00  0.00    +0.000 OA
BRANCH   8  11
ATOM     11  C   UNL     1       1.047   3.389  20.457  0.00  0.00    +0.000 C 
ATOM     12  C   UNL     1       0.664   2.538  19.248  0.00  0.00    +0.000 C 
ATOM     13  C   UNL     1       1.560   2.506  21.594  0.00  0.00    +0.000 C 
ENDBRANCH   8  11
ENDBRANCH   3   5
BRANCH   1  14
ATOM     14  C   UNL     1       7.200   5.905  17.609  0.00  0.00    +0.000 C 
BRANCH  14  15
ATOM     15  C   UNL     1       7.343   4.695  16.678  0.00  0.00    +0.000 C 
BRANCH  15  16
ATOM     16  C   UNL     1       6.024   4.365  15.971  0.00  0.00    +0.000 C 
BRANCH  16  20
ATOM     17  C   UNL     1       4.618   3.075  11.409  0.00  0.00    +0.000 C 
ATOM     18  C   UNL     1       5.485   3.627  12.483  0.00  0.00    +0.000 A 
ATOM     19  N   UNL     1       5.146   3.691  13.754  0.00  0.00    +0.000 NA
ATOM     20  C   UNL     1       6.183   4.237  14.492  0.00  0.00    +0.000 A 
ATOM     21  C   UNL     1       7.297   4.594  13.755  0.00  0.00    +0.000 A 
ATOM     22  S   UNL     1       7.047   4.229  12.101  0.00  0.00    +0.000 S 
ENDBRANCH  16  20
ENDBRANCH  15  16
ENDBRANCH  14  15
ENDBRANCH   1  14
TORSDOF 6
ENDMDL
MODEL 6
REMARK VINA RESULT:      -6.6      3.422      5.673
REMARK  Name = 
REMARK  9 active torsions:
REMARK  status: ('A' for Active; 'I' for Inactive)
REMARK    1  A    between atoms: C_1  and  C_2
REMARK    2  A    between atoms: C_4  and  C_5
REMARK    3  A    between atoms: C_5  and  C_6
REMARK    4  A    between atoms: C_6  and  C_7
REMARK    5  A    between atoms: C_7  and  C_8
REMARK    6  A    between atoms: N_10  and  C_11
REMARK    7  A    between atoms: N_14  and  C_15
REMARK    8  A    between atoms: C_15  and  C_16
REMARK    9  A    between atoms: C_15  and  C_17
REMARK                            x       y       z     vdW  Elec       q    Type
REMARK                         _______ _______ _______ _____ _____    ______ ____
ROOT
ATOM      1  C   UNL     1       3.022   2.704  19.532  0.00  0.00    +0.000 C 
ATOM      2  O   UNL     1       3.935   2.140  20.139  0.00  0.00    +0.000 OA
ATOM      3  N   UNL     1       3.253   3.467  18.414  0.00  0.00    +0.000 N 
ATOM      4  H   UNL     1       2.499   3.949  17.936  0.00  0.00    +0.000 HD
ENDROOT
BRANCH   3   5
ATOM      5  C   UNL     1       4.615   3.656  17.966  0.00  0.00    +0.000 C 
ATOM      6  C   UNL     1       4.712   3.917  16.469  0.00  0.00    +0.000 C 
ATOM      7  C   UNL     1       6.097   4.515  16.322  0.00  0.00    +0.000 C 
ATOM      8  N   UNL     1       6.296   5.240  17.557  0.00  0.00    +0.000 N 
ATOM      9  C   UNL     1       5.389   4.845  18.540  0.00  0.00    +0.000 C 
ATOM     10  O   UNL     1       5.266   5.297  19.668  0.00  0.00    +0.000 OA
BRANCH   8  11
ATOM     11  C   UNL     1       7.398   6.188  17.730  0.00  0.00    +0.000 C 
ATOM     12  C   UNL     1       6.948   7.620  17.443  0.00  0.00    +0.000 C 
ATOM     13  C   UNL     1       8.039   6.094  19.114  0.00  0.00    +0.000 C 
ENDBRANCH   8  11
ENDBRANCH   3   5
BRANCH   1  14
ATOM     14  C   UNL     1       1.577   2.573  19.954  0.00  0.00    +0.000 C 
BRANCH  14  15
ATOM     15  C   UNL     1       0.957   3.949  20.220  0.00  0.00    +0.000 C 
BRANCH  15  16
ATOM     16  C   UNL     1       1.944   4.889  20.921  0.00  0.00    +0.000 C 
BRANCH  16  20
ATOM     17  C   UNL     1       2.674   8.549  17.676  0.00  0.00    +0.000 C 
ATOM     18  C   UNL     1       2.219   7.877  18.922  0.00  0.00    +0.000 A 
ATOM     19  N   UNL     1       2.359   6.591  19.169  0.00  0.00    +0.000 NA
ATOM     20  C   UNL     1       1.851   6.293  20.422  0.00  0.00    +0.000 A 
ATOM     21  C   UNL     1       1.316   7.371  21.105  0.00  0.00    +0.000 A 
ATOM     22  S   UNL     1       1.461   8.793  20.162  0.00  0.00    +0.000 S 
ENDBRANCH  16  20
ENDBRANCH  15  16
ENDBRANCH  14  15
ENDBRANCH   1  14
TORSDOF 6
ENDMDL
MODEL 7
REMARK VINA RESULT:      -6.5      0.985      1.087
REMARK  Name = 
REMARK  9 active torsions:
REMARK  status: ('A' for Active; 'I' for Inactive)
REMARK    1  A    between atoms: C_1  and  C_2
REMARK    2  A    between atoms: C_4  and  C_5
REMARK    3  A    between atoms: C_5  and  C_6
REMARK    4  A    between atoms: C_6  and  C_7
REMARK    5  A    between atoms: C_7  and  C_8
REMARK    6  A    between atoms: N_10  and  C_11
REMARK    7  A    between atoms: N_14  and  C_15
REMARK    8  A    between atoms: C_15  and  C_16
REMARK    9  A    between atoms: C_15  and  C_17
REMARK                            x       y       z     vdW  Elec       q    Type
REMARK                         _______ _______ _______ _____ _____    ______ ____
ROOT
ATOM      1  C   UNL     1       6.916   6.314  16.454  0.00  0.00    +0.000 C 
ATOM      2  O   UNL     1       5.833   6.843  16.199  0.00  0.00    +0.000 OA
ATOM      3  N   UNL     1       7.580   5.534  15.539  0.00  0.00    +0.000 N 
ATOM      4  H   UNL     1       8.459   5.082  15.767  0.00  0.00    +0.000 HD
ENDROOT
BRANCH   3   5
ATOM      5  C   UNL     1       6.963   5.285  14.255  0.00  0.00    +0.000 C 
ATOM      6  C   UNL     1       7.976   5.198  13.122  0.00  0.00    +0.000 C 
ATOM      7  C   UNL     1       7.192   4.506  12.024  0.00  0.00    +0.000 C 
ATOM      8  N   UNL     1       6.297   3.624  12.740  0.00  0.00    +0.000 N 
ATOM      9  C   UNL     1       6.192   3.975  14.086  0.00  0.00    +0.000 C 
ATOM     10  O   UNL     1       5.558   3.403  14.959  0.00  0.00    +0.000 OA
BRANCH   8  11
ATOM     11  C   UNL     1       5.540   2.571  12.060  0.00  0.00    +0.000 C 
ATOM     12  C   UNL     1       4.345   3.147  11.303  0.00  0.00    +0.000 C 
ATOM     13  C   UNL     1       6.413   1.733  11.127  0.00  0.00    +0.000 C 
ENDBRANCH   8  11
ENDBRANCH   3   5
BRANCH   1  14
ATOM     14  C   UNL     1       7.611   6.510  17.782  0.00  0.00    +0.000 C 
BRANCH  14  15
ATOM     15  C   UNL     1       6.928   5.689  18.883  0.00  0.00    +0.000 C 
BRANCH  15  16
ATOM     16  C   UNL     1       6.166   4.491  18.306  0.00  0.00    +0.000 C 
BRANCH  16  20
ATOM     17  C   UNL     1       1.300   4.259  17.459  0.00  0.00    +0.000 C 
ATOM     18  C   UNL     1       2.564   4.380  18.232  0.00  0.00    +0.000 A 
ATOM     19  N   UNL     1       3.769   4.318  17.706  0.00  0.00    +0.000 NA
ATOM     20  C   UNL     1       4.725   4.488  18.693  0.00  0.00    +0.000 A 
ATOM     21  C   UNL     1       4.220   4.666  19.968  0.00  0.00    +0.000 A 
ATOM     22  S   UNL     1       2.508   4.628  19.931  0.00  0.00    +0.000 S 
ENDBRANCH  16  20
ENDBRANCH  15  16
ENDBRANCH  14  15
ENDBRANCH   1  14
TORSDOF 6
ENDMDL
MODEL 8
REMARK VINA RESULT:      -6.5      4.716      7.344
REMARK  Name = 
REMARK  9 active torsions:
REMARK  status: ('A' for Active; 'I' for Inactive)
REMARK    1  A    between atoms: C_1  and  C_2
REMARK    2  A    between atoms: C_4  and  C_5
REMARK    3  A    between atoms: C_5  and  C_6
REMARK    4  A    between atoms: C_6  and  C_7
REMARK    5  A    between atoms: C_7  and  C_8
REMARK    6  A    between atoms: N_10  and  C_11
REMARK    7  A    between atoms: N_14  and  C_15
REMARK    8  A    between atoms: C_15  and  C_16
REMARK    9  A    between atoms: C_15  and  C_17
REMARK                            x       y       z     vdW  Elec       q    Type
REMARK                         _______ _______ _______ _____ _____    ______ ____
ROOT
ATOM      1  C   UNL     1       7.060   6.582  17.979  0.00  0.00    +0.000 C 
ATOM      2  O   UNL     1       7.753   5.744  18.559  0.00  0.00    +0.000 OA
ATOM      3  N   UNL     1       5.688   6.518  17.977  0.00  0.00    +0.000 N 
ATOM      4  H   UNL     1       5.127   7.198  17.476  0.00  0.00    +0.000 HD
ENDROOT
BRANCH   3   5
ATOM      5  C   UNL     1       5.040   5.405  18.633  0.00  0.00    +0.000 C 
ATOM      6  C   UNL     1       3.760   5.809  19.353  0.00  0.00    +0.000 C 
ATOM      7  C   UNL     1       3.053   4.483  19.551  0.00  0.00    +0.000 C 
ATOM      8  N   UNL     1       3.440   3.707  18.393  0.00  0.00    +0.000 N 
ATOM      9  C   UNL     1       4.551   4.254  17.751  0.00  0.00    +0.000 C 
ATOM     10  O   UNL     1       5.088   3.864  16.725  0.00  0.00    +0.000 OA
BRANCH   8  11
ATOM     11  C   UNL     1       2.772   2.451  18.044  0.00  0.00    +0.000 C 
ATOM     12  C   UNL     1       3.573   1.244  18.527  0.00  0.00    +0.000 C 
ATOM     13  C   UNL     1       1.337   2.387  18.565  0.00  0.00    +0.000 C 
ENDBRANCH   8  11
ENDBRANCH   3   5
BRANCH   1  14
ATOM     14  C   UNL     1       7.667   7.760  17.253  0.00  0.00    +0.000 C 
BRANCH  14  15
ATOM     15  C   UNL     1       8.449   8.656  18.221  0.00  0.00    +0.000 C 
BRANCH  15  16
ATOM     16  C   UNL     1       7.986  10.115  18.142  0.00  0.00    +0.000 C 
BRANCH  16  20
ATOM     17  C   UNL     1      12.320  11.769  19.854  0.00  0.00    +0.000 C 
ATOM     18  C   UNL     1      11.061  11.756  19.064  0.00  0.00    +0.000 A 
ATOM     19  N   UNL     1      10.186  10.772  19.073  0.00  0.00    +0.000 NA
ATOM     20  C   UNL     1       9.119  11.082  18.248  0.00  0.00    +0.000 A 
ATOM     21  C   UNL     1       9.213  12.305  17.609  0.00  0.00    +0.000 A 
ATOM     22  S   UNL     1      10.666  13.091  18.058  0.00  0.00    +0.000 S 
ENDBRANCH  16  20
ENDBRANCH  15  16
ENDBRANCH  14  15
ENDBRANCH   1  14
TORSDOF 6
ENDMDL
MODEL 9
REMARK VINA RESULT:      -6.2      2.854      7.155
REMARK  Name = 
REMARK  9 active torsions:
REMARK  status: ('A' for Active; 'I' for Inactive)
REMARK    1  A    between atoms: C_1  and  C_2
REMARK    2  A    between atoms: C_4  and  C_5
REMARK    3  A    between atoms: C_5  and  C_6
REMARK    4  A    between atoms: C_6  and  C_7
REMARK    5  A    between atoms: C_7  and  C_8
REMARK    6  A    between atoms: N_10  and  C_11
REMARK    7  A    between atoms: N_14  and  C_15
REMARK    8  A    between atoms: C_15  and  C_16
REMARK    9  A    between atoms: C_15  and  C_17
REMARK                            x       y       z     vdW  Elec       q    Type
REMARK                         _______ _______ _______ _____ _____    ______ ____
ROOT
ATOM      1  C   UNL     1       6.407   4.671  17.433  0.00  0.00    +0.000 C 
ATOM      2  O   UNL     1       6.963   4.463  18.513  0.00  0.00    +0.000 OA
ATOM      3  N   UNL     1       5.096   5.071  17.354  0.00  0.00    +0.000 N 
ATOM      4  H   UNL     1       4.639   5.216  16.460  0.00  0.00    +0.000 HD
ENDROOT
BRANCH   3   5
ATOM      5  C   UNL     1       4.331   5.203  18.574  0.00  0.00    +0.000 C 
ATOM      6  C   UNL     1       3.318   6.338  18.514  0.00  0.00    +0.000 C 
ATOM      7  C   UNL     1       2.371   6.002  19.649  0.00  0.00    +0.000 C 
ATOM      8  N   UNL     1       2.368   4.556  19.683  0.00  0.00    +0.000 N 
ATOM      9  C   UNL     1       3.450   4.021  18.984  0.00  0.00    +0.000 C 
ATOM     10  O   UNL     1       3.702   2.842  18.788  0.00  0.00    +0.000 OA
BRANCH   8  11
ATOM     11  C   UNL     1       1.382   3.801  20.459  0.00  0.00    +0.000 C 
ATOM     12  C   UNL     1       0.647   2.787  19.585  0.00  0.00    +0.000 C 
ATOM     13  C   UNL     1       1.998   3.114  21.676  0.00  0.00    +0.000 C 
ENDBRANCH   8  11
ENDBRANCH   3   5
BRANCH   1  14
ATOM     14  C   UNL     1       7.136   4.533  16.116  0.00  0.00    +0.000 C 
BRANCH  14  15
ATOM     15  C   UNL     1       6.164   4.658  14.937  0.00  0.00    +0.000 C 
BRANCH  15  16
ATOM     16  C   UNL     1       6.895   4.597  13.591  0.00  0.00    +0.000 C 
BRANCH  16  20
ATOM     17  C   UNL     1       3.198   2.953  10.748  0.00  0.00    +0.000 C 
ATOM     18  C   UNL     1       4.542   2.990  11.383  0.00  0.00    +0.000 A 
ATOM     19  N   UNL     1       4.956   3.939  12.196  0.00  0.00    +0.000 NA
ATOM     20  C   UNL     1       6.243   3.663  12.626  0.00  0.00    +0.000 A 
ATOM     21  C   UNL     1       6.791   2.501  12.115  0.00  0.00    +0.000 A 
ATOM     22  S   UNL     1       5.669   1.729  11.078  0.00  0.00    +0.000 S 
ENDBRANCH  16  20
ENDBRANCH  15  16
ENDBRANCH  14  15
ENDBRANCH   1  14
TORSDOF 6
ENDMDL
