MODEL 1
REMARK VINA RESULT:      -7.9      0.000      0.000
REMARK  Name = 
REMARK  7 active torsions:
REMARK  status: ('A' for Active; 'I' for Inactive)
REMARK    1  A    between atoms: C_1  and  C_2
REMARK    2  A    between atoms: C_2  and  C_3
REMARK    3  A    between atoms: C_9  and  C_10
REMARK    4  A    between atoms: C_13  and  S_14
REMARK    5  A    between atoms: S_14  and  C_15
REMARK    6  A    between atoms: C_15  and  C_16
REMARK    7  A    between atoms: C_22  and  C_24
REMARK                            x       y       z     vdW  Elec       q    Type
REMARK                         _______ _______ _______ _____ _____    ______ ____
ROOT
ATOM      1  C   UNL     1       1.002   9.963  18.653  0.00  0.00    +0.000 C 
ENDROOT
BRANCH   1   2
ATOM      2  C   UNL     1       1.312   8.872  19.706  0.00  0.00    +0.000 C 
ATOM      3  O   UNL     1       0.895   8.976  20.860  0.00  0.00    +0.000 OA
ATOM      4  N   UNL     1       2.040   7.745  19.319  0.00  0.00    +0.000 N 
ATOM      5  C   UNL     1       2.193   6.680  20.317  0.00  0.00    +0.000 C 
ATOM      6  C   UNL     1       2.283   5.301  19.665  0.00  0.00    +0.000 C 
ATOM      7  N   UNL     1       3.344   5.285  18.663  0.00  0.00    +0.000 N 
ATOM      8  C   UNL     1       4.224   4.197  18.633  0.00  0.00    +0.000 C 
ATOM      9  O   UNL     1       4.094   3.249  19.404  0.00  0.00    +0.000 OA
ATOM     10  C   UNL     1       3.201   6.327  17.633  0.00  0.00    +0.000 C 
ATOM     11  C   UNL     1       3.051   7.727  18.255  0.00  0.00    +0.000 C 
BRANCH   8  12
ATOM     12  C   UNL     1       5.291   4.232  17.651  0.00  0.00    +0.000 A 
ATOM     13  C   UNL     1       6.586   4.719  17.708  0.00  0.00    +0.000 A 
ATOM     14  C   UNL     1       7.155   4.506  16.427  0.00  0.00    +0.000 A 
ATOM     15  C   UNL     1       6.188   3.895  15.672  0.00  0.00    +0.000 A 
ATOM     16  O   UNL     1       5.052   3.758  16.390  0.00  0.00    +0.000 OA
ENDBRANCH   8  12
ENDBRANCH   1   2
BRANCH   1  17
ATOM     17  S   UNL     1       0.658  11.520  19.565  0.00  0.00    +0.000 S 
BRANCH  17  28
ATOM     18  C   UNL     1      -1.739  12.177  20.759  0.00  0.00    +0.000 A 
ATOM     19  C   UNL     1      -3.100  12.508  20.695  0.00  0.00    +0.000 A 
ATOM     20  C   UNL     1      -3.814  12.299  19.511  0.00  0.00    +0.000 A 
ATOM     21  C   UNL     1      -5.179  12.644  19.431  0.00  0.00    +0.000 A 
ATOM     22  C   UNL     1      -5.890  12.394  18.262  0.00  0.00    +0.000 A 
ATOM     23  C   UNL     1      -5.251  11.797  17.187  0.00  0.00    +0.000 A 
ATOM     24  C   UNL     1      -3.883  11.462  17.263  0.00  0.00    +0.000 A 
ATOM     25  C   UNL     1      -3.216  10.796  16.095  0.00  0.00    +0.000 C 
ATOM     26  C   UNL     1      -3.141  11.728  18.423  0.00  0.00    +0.000 A 
ATOM     27  N   UNL     1      -1.810  11.441  18.458  0.00  0.00    +0.000 NA
ATOM     28  C   UNL     1      -1.124  11.699  19.595  0.00  0.00    +0.000 A 
BRANCH  18  30
ATOM     29  C   UNL     1      -1.167  11.095  22.959  0.00  0.00    +0.000 C 
ATOM     30  C   UNL     1      -1.026  12.334  22.086  0.00  0.00    +0.000 C 
ENDBRANCH  18  30
ENDBRANCH  17  28
ENDBRANCH   1  17
TORSDOF 5
ENDMDL
MODEL 2
REMARK VINA RESULT:      -7.9      1.288      2.204
REMARK  Name = 
REMARK  7 active torsions:
REMARK  status: ('A' for Active; 'I' for Inactive)
REMARK    1  A    between atoms: C_1  and  C_2
REMARK    2  A    between atoms: C_2  and  C_3
REMARK    3  A    between atoms: C_9  and  C_10
REMARK    4  A    between atoms: C_13  and  S_14
REMARK    5  A    between atoms: S_14  and  C_15
REMARK    6  A    between atoms: C_15  and  C_16
REMARK    7  A    between atoms: C_22  and  C_24
REMARK                            x       y       z     vdW  Elec       q    Type
REMARK                         _______ _______ _______ _____ _____    ______ ____
ROOT
ATOM      1  C   UNL     1       0.994   9.462  19.822  0.00  0.00    +0.000 C 
ENDROOT
BRANCH   1   2
ATOM      2  C   UNL     1       1.784   9.164  18.525  0.00  0.00    +0.000 C 
ATOM      3  O   UNL     1       1.785   9.967  17.592  0.00  0.00    +0.000 OA
ATOM      4  N   UNL     1       2.528   7.986  18.441  0.00  0.00    +0.000 N 
ATOM      5  C   UNL     1       3.363   7.812  17.247  0.00  0.00    +0.000 C 
ATOM      6  C   UNL     1       4.620   6.996  17.548  0.00  0.00    +0.000 C 
ATOM      7  N   UNL     1       4.259   5.725  18.167  0.00  0.00    +0.000 N 
ATOM      8  C   UNL     1       4.882   4.556  17.714  0.00  0.00    +0.000 C 
ATOM      9  O   UNL     1       5.743   4.589  16.838  0.00  0.00    +0.000 OA
ATOM     10  C   UNL     1       3.443   5.870  19.384  0.00  0.00    +0.000 C 
ATOM     11  C   UNL     1       2.195   6.735  19.134  0.00  0.00    +0.000 C 
BRANCH   8  12
ATOM     12  C   UNL     1       4.472   3.305  18.324  0.00  0.00    +0.000 A 
ATOM     13  C   UNL     1       3.566   2.335  17.928  0.00  0.00    +0.000 A 
ATOM     14  C   UNL     1       3.559   1.348  18.946  0.00  0.00    +0.000 A 
ATOM     15  C   UNL     1       4.461   1.762  19.891  0.00  0.00    +0.000 A 
ATOM     16  O   UNL     1       4.989   2.956  19.542  0.00  0.00    +0.000 OA
ENDBRANCH   8  12
ENDBRANCH   1   2
BRANCH   1  17
ATOM     17  S   UNL     1       0.703  11.276  19.879  0.00  0.00    +0.000 S 
BRANCH  17  28
ATOM     18  C   UNL     1      -1.782  12.119  20.724  0.00  0.00    +0.000 A 
ATOM     19  C   UNL     1      -3.114  12.479  20.474  0.00  0.00    +0.000 A 
ATOM     20  C   UNL     1      -3.703  12.164  19.246  0.00  0.00    +0.000 A 
ATOM     21  C   UNL     1      -5.038  12.536  18.978  0.00  0.00    +0.000 A 
ATOM     22  C   UNL     1      -5.626  12.184  17.770  0.00  0.00    +0.000 A 
ATOM     23  C   UNL     1      -4.899  11.459  16.839  0.00  0.00    +0.000 A 
ATOM     24  C   UNL     1      -3.560  11.097  17.102  0.00  0.00    +0.000 A 
ATOM     25  C   UNL     1      -2.797  10.293  16.089  0.00  0.00    +0.000 C 
ATOM     26  C   UNL     1      -2.939  11.464  18.303  0.00  0.00    +0.000 A 
ATOM     27  N   UNL     1      -1.631  11.147  18.517  0.00  0.00    +0.000 NA
ATOM     28  C   UNL     1      -1.064  11.504  19.691  0.00  0.00    +0.000 A 
BRANCH  18  30
ATOM     29  C   UNL     1      -1.445  11.237  23.057  0.00  0.00    +0.000 C 
ATOM     30  C   UNL     1      -1.211  12.397  22.098  0.00  0.00    +0.000 C 
ENDBRANCH  18  30
ENDBRANCH  17  28
ENDBRANCH   1  17
TORSDOF 5
ENDMDL
MODEL 3
REMARK VINA RESULT:      -7.6      2.336      3.219
REMARK  Name = 
REMARK  7 active torsions:
REMARK  status: ('A' for Active; 'I' for Inactive)
REMARK    1  A    between atoms: C_1  and  C_2
REMARK    2  A    between atoms: C_2  and  C_3
REMARK    3  A    between atoms: C_9  and  C_10
REMARK    4  A    between atoms: C_13  and  S_14
REMARK    5  A    between atoms: S_14  and  C_15
REMARK    6  A    between atoms: C_15  and  C_16
REMARK    7  A    between atoms: C_22  and  C_24
REMARK                            x       y       z     vdW  Elec       q    Type
REMARK                         _______ _______ _______ _____ _____    ______ ____
ROOT
ATOM      1  C   UNL     1       0.312  11.646  21.050  0.00  0.00    +0.000 C 
ENDROOT
BRANCH   1   2
ATOM      2  C   UNL     1       0.607  11.058  19.650  0.00  0.00    +0.000 C 
ATOM      3  O   UNL     1       0.463  11.743  18.637  0.00  0.00    +0.000 OA
ATOM      4  N   UNL     1       1.078   9.747  19.553  0.00  0.00    +0.000 N 
ATOM      5  C   UNL     1       1.469   9.280  18.218  0.00  0.00    +0.000 C 
ATOM      6  C   UNL     1       2.599   8.253  18.285  0.00  0.00    +0.000 C 
ATOM      7  N   UNL     1       2.230   7.157  19.174  0.00  0.00    +0.000 N 
ATOM      8  C   UNL     1       2.476   5.842  18.759  0.00  0.00    +0.000 C 
ATOM      9  O   UNL     1       3.025   5.604  17.686  0.00  0.00    +0.000 OA
ATOM     10  C   UNL     1       1.860   7.594  20.531  0.00  0.00    +0.000 C 
ATOM     11  C   UNL     1       0.761   8.672  20.501  0.00  0.00    +0.000 C 
BRANCH   8  12
ATOM     12  C   UNL     1       2.063   4.775  19.650  0.00  0.00    +0.000 A 
ATOM     13  C   UNL     1       2.402   4.478  20.960  0.00  0.00    +0.000 A 
ATOM     14  C   UNL     1       1.707   3.291  21.299  0.00  0.00    +0.000 A 
ATOM     15  C   UNL     1       0.980   2.939  20.192  0.00  0.00    +0.000 A 
ATOM     16  O   UNL     1       1.215   3.808  19.184  0.00  0.00    +0.000 OA
ENDBRANCH   8  12
ENDBRANCH   1   2
BRANCH   1  17
ATOM     17  S   UNL     1      -0.634  13.202  20.799  0.00  0.00    +0.000 S 
BRANCH  17  28
ATOM     18  C   UNL     1      -3.215  12.899  21.719  0.00  0.00    +0.000 A 
ATOM     19  C   UNL     1      -4.589  12.718  21.503  0.00  0.00    +0.000 A 
ATOM     20  C   UNL     1      -5.051  12.310  20.248  0.00  0.00    +0.000 A 
ATOM     21  C   UNL     1      -6.432  12.140  20.016  0.00  0.00    +0.000 A 
ATOM     22  C   UNL     1      -6.877  11.696  18.777  0.00  0.00    +0.000 A 
ATOM     23  C   UNL     1      -5.957  11.412  17.780  0.00  0.00    +0.000 A 
ATOM     24  C   UNL     1      -4.576  11.593  18.008  0.00  0.00    +0.000 A 
ATOM     25  C   UNL     1      -3.595  11.260  16.922  0.00  0.00    +0.000 C 
ATOM     26  C   UNL     1      -4.107  12.064  19.242  0.00  0.00    +0.000 A 
ATOM     27  N   UNL     1      -2.774  12.278  19.426  0.00  0.00    +0.000 NA
ATOM     28  C   UNL     1      -2.352  12.722  20.631  0.00  0.00    +0.000 A 
BRANCH  18  30
ATOM     29  C   UNL     1      -3.620  12.606  24.186  0.00  0.00    +0.000 C 
ATOM     30  C   UNL     1      -2.750  13.253  23.116  0.00  0.00    +0.000 C 
ENDBRANCH  18  30
ENDBRANCH  17  28
ENDBRANCH   1  17
TORSDOF 5
ENDMDL
MODEL 4
REMARK VINA RESULT:      -7.6      3.000     10.352
REMARK  Name = 
REMARK  7 active torsions:
REMARK  status: ('A' for Active; 'I' for Inactive)
REMARK    1  A    between atoms: C_1  and  C_2
REMARK    2  A    between atoms: C_2  and  C_3
REMARK    3  A    between atoms: C_9  and  C_10
REMARK    4  A    between atoms: C_13  and  S_14
REMARK    5  A    between atoms: S_14  and  C_15
REMARK    6  A    between atoms: C_15  and  C_16
REMARK    7  A    between atoms: C_22  and  C_24
REMARK                            x       y       z     vdW  Elec       q    Type
REMARK                         _______ _______ _______ _____ _____    ______ ____
ROOT
ATOM      1  C   UNL     1       1.346   8.207  17.928  0.00  0.00    +0.000 C 
ENDROOT
BRANCH   1   2
ATOM      2  C   UNL     1       1.722   9.701  18.072  0.00  0.00    +0.000 C 
ATOM      3  O   UNL     1       2.800  10.121  17.651  0.00  0.00    +0.000 OA
ATOM      4  N   UNL     1       0.803  10.577  18.653  0.00  0.00    +0.000 N 
ATOM      5  C   UNL     1       1.150  12.002  18.647  0.00  0.00    +0.000 C 
ATOM      6  C   UNL     1      -0.093  12.888  18.567  0.00  0.00    +0.000 C 
ATOM      7  N   UNL     1      -1.025  12.545  19.635  0.00  0.00    +0.000 N 
ATOM      8  C   UNL     1      -1.622  13.580  20.366  0.00  0.00    +0.000 C 
ATOM      9  O   UNL     1      -1.402  14.759  20.098  0.00  0.00    +0.000 OA
ATOM     10  C   UNL     1      -1.413  11.125  19.649  0.00  0.00    +0.000 C 
ATOM     11  C   UNL     1      -0.184  10.199  19.672  0.00  0.00    +0.000 C 
BRANCH   8  12
ATOM     12  C   UNL     1      -2.513  13.204  21.446  0.00  0.00    +0.000 A 
ATOM     13  C   UNL     1      -3.895  13.133  21.525  0.00  0.00    +0.000 A 
ATOM     14  C   UNL     1      -4.204  12.733  22.849  0.00  0.00    +0.000 A 
ATOM     15  C   UNL     1      -3.006  12.571  23.494  0.00  0.00    +0.000 A 
ATOM     16  O   UNL     1      -1.984  12.886  22.667  0.00  0.00    +0.000 OA
ENDBRANCH   8  12
ENDBRANCH   1   2
BRANCH   1  17
ATOM     17  S   UNL     1       2.299   7.280  19.196  0.00  0.00    +0.000 S 
BRANCH  17  28
ATOM     18  C   UNL     1       2.787   4.897  17.899  0.00  0.00    +0.000 A 
ATOM     19  C   UNL     1       3.538   4.100  17.022  0.00  0.00    +0.000 A 
ATOM     20  C   UNL     1       4.814   4.509  16.626  0.00  0.00    +0.000 A 
ATOM     21  C   UNL     1       5.571   3.723  15.732  0.00  0.00    +0.000 A 
ATOM     22  C   UNL     1       6.855   4.119  15.375  0.00  0.00    +0.000 A 
ATOM     23  C   UNL     1       7.386   5.281  15.912  0.00  0.00    +0.000 A 
ATOM     24  C   UNL     1       6.625   6.074  16.797  0.00  0.00    +0.000 A 
ATOM     25  C   UNL     1       7.228   7.317  17.384  0.00  0.00    +0.000 C 
ATOM     26  C   UNL     1       5.319   5.707  17.150  0.00  0.00    +0.000 A 
ATOM     27  N   UNL     1       4.584   6.511  17.968  0.00  0.00    +0.000 NA
ATOM     28  C   UNL     1       3.332   6.123  18.299  0.00  0.00    +0.000 A 
BRANCH  18  30
ATOM     29  C   UNL     1       1.584   3.517  19.625  0.00  0.00    +0.000 C 
ATOM     30  C   UNL     1       1.448   4.373  18.374  0.00  0.00    +0.000 C 
ENDBRANCH  18  30
ENDBRANCH  17  28
ENDBRANCH   1  17
TORSDOF 5
ENDMDL
MODEL 5
REMARK VINA RESULT:      -7.6      1.304      2.967
REMARK  Name = 
REMARK  7 active torsions:
REMARK  status: ('A' for Active; 'I' for Inactive)
REMARK    1  A    between atoms: C_1  and  C_2
REMARK    2  A    between atoms: C_2  and  C_3
REMARK    3  A    between atoms: C_9  and  C_10
REMARK    4  A    between atoms: C_13  and  S_14
REMARK    5  A    between atoms: S_14  and  C_15
REMARK    6  A    between atoms: C_15  and  C_16
REMARK    7  A    between atoms: C_22  and  C_24
REMARK                            x       y       z     vdW  Elec       q    Type
REMARK                         _______ _______ _______ _____ _____    ______ ____
ROOT
ATOM      1  C   UNL     1       0.751  10.607  19.066  0.00  0.00    +0.000 C 
ENDROOT
BRANCH   1   2
ATOM      2  C   UNL     1       1.050   9.565  20.170  0.00  0.00    +0.000 C 
ATOM      3  O   UNL     1       0.753   9.791  21.344  0.00  0.00    +0.000 OA
ATOM      4  N   UNL     1       1.626   8.346  19.812  0.00  0.00    +0.000 N 
ATOM      5  C   UNL     1       1.768   7.341  20.872  0.00  0.00    +0.000 C 
ATOM      6  C   UNL     1       1.663   5.919  20.323  0.00  0.00    +0.000 C 
ATOM      7  N   UNL     1       2.621   5.725  19.239  0.00  0.00    +0.000 N 
ATOM      8  C   UNL     1       3.385   4.552  19.218  0.00  0.00    +0.000 C 
ATOM      9  O   UNL     1       3.235   3.678  20.069  0.00  0.00    +0.000 OA
ATOM     10  C   UNL     1       2.484   6.703  18.147  0.00  0.00    +0.000 C 
ATOM     11  C   UNL     1       2.528   8.151  18.669  0.00  0.00    +0.000 C 
BRANCH   8  12
ATOM     12  C   UNL     1       4.355   4.409  18.149  0.00  0.00    +0.000 A 
ATOM     13  C   UNL     1       4.270   3.832  16.893  0.00  0.00    +0.000 A 
ATOM     14  C   UNL     1       5.551   3.963  16.301  0.00  0.00    +0.000 A 
ATOM     15  C   UNL     1       6.335   4.617  17.215  0.00  0.00    +0.000 A 
ATOM     16  O   UNL     1       5.632   4.858  18.345  0.00  0.00    +0.000 OA
ENDBRANCH   8  12
ENDBRANCH   1   2
BRANCH   1  17
ATOM     17  S   UNL     1      -0.433   9.834  17.892  0.00  0.00    +0.000 S 
BRANCH  17  28
ATOM     18  C   UNL     1      -3.034  10.441  17.208  0.00  0.00    +0.000 A 
ATOM     19  C   UNL     1      -4.294  10.979  17.505  0.00  0.00    +0.000 A 
ATOM     20  C   UNL     1      -4.453  11.814  18.615  0.00  0.00    +0.000 A 
ATOM     21  C   UNL     1      -5.720  12.347  18.931  0.00  0.00    +0.000 A 
ATOM     22  C   UNL     1      -5.860  13.208  20.013  0.00  0.00    +0.000 A 
ATOM     23  C   UNL     1      -4.747  13.544  20.768  0.00  0.00    +0.000 A 
ATOM     24  C   UNL     1      -3.482  13.001  20.460  0.00  0.00    +0.000 A 
ATOM     25  C   UNL     1      -2.287  13.395  21.277  0.00  0.00    +0.000 C 
ATOM     26  C   UNL     1      -3.323  12.112  19.388  0.00  0.00    +0.000 A 
ATOM     27  N   UNL     1      -2.103  11.561  19.136  0.00  0.00    +0.000 NA
ATOM     28  C   UNL     1      -1.980  10.716  18.089  0.00  0.00    +0.000 A 
BRANCH  18  30
ATOM     29  C   UNL     1      -3.313  10.391  14.707  0.00  0.00    +0.000 C 
ATOM     30  C   UNL     1      -2.886   9.616  15.947  0.00  0.00    +0.000 C 
ENDBRANCH  18  30
ENDBRANCH  17  28
ENDBRANCH   1  17
TORSDOF 5
ENDMDL
MODEL 6
REMARK VINA RESULT:      -7.6      2.799     10.278
REMARK  Name = 
REMARK  7 active torsions:
REMARK  status: ('A' for Active; 'I' for Inactive)
REMARK    1  A    between atoms: C_1  and  C_2
REMARK    2  A    between atoms: C_2  and  C_3
REMARK    3  A    between atoms: C_9  and  C_10
REMARK    4  A    between atoms: C_13  and  S_14
REMARK    5  A    between atoms: S_14  and  C_15
REMARK    6  A    between atoms: C_15  and  C_16
REMARK    7  A    between atoms: C_22  and  C_24
REMARK                            x       y       z     vdW  Elec       q    Type
REMARK                         _______ _______ _______ _____ _____    ______ ____
ROOT
ATOM      1  C   UNL     1       2.461   7.184  20.696  0.00  0.00    +0.000 C 
ENDROOT
BRANCH   1   2
ATOM      2  C   UNL     1       1.881   8.084  19.579  0.00  0.00    +0.000 C 
ATOM      3  O   UNL     1       2.164   7.882  18.398  0.00  0.00    +0.000 OA
ATOM      4  N   UNL     1       0.998   9.109  19.926  0.00  0.00    +0.000 N 
ATOM      5  C   UNL     1       0.374   9.848  18.823  0.00  0.00    +0.000 C 
ATOM      6  C   UNL     1      -1.023  10.347  19.194  0.00  0.00    +0.000 C 
ATOM      7  N   UNL     1      -0.969  11.124  20.428  0.00  0.00    +0.000 N 
ATOM      8  C   UNL     1      -1.665  12.337  20.489  0.00  0.00    +0.000 C 
ATOM      9  O   UNL     1      -2.342  12.733  19.543  0.00  0.00    +0.000 OA
ATOM     10  C   UNL     1      -0.371  10.396  21.560  0.00  0.00    +0.000 C 
ATOM     11  C   UNL     1       1.015   9.830  21.205  0.00  0.00    +0.000 C 
BRANCH   8  12
ATOM     12  C   UNL     1      -1.559  13.103  21.716  0.00  0.00    +0.000 A 
ATOM     13  C   UNL     1      -2.351  13.148  22.852  0.00  0.00    +0.000 A 
ATOM     14  C   UNL     1      -1.768  14.111  23.714  0.00  0.00    +0.000 A 
ATOM     15  C   UNL     1      -0.658  14.587  23.067  0.00  0.00    +0.000 A 
ATOM     16  O   UNL     1      -0.544  14.011  21.849  0.00  0.00    +0.000 OA
ENDBRANCH   8  12
ENDBRANCH   1   2
BRANCH   1  17
ATOM     17  S   UNL     1       1.927   5.461  20.340  0.00  0.00    +0.000 S 
BRANCH  17  28
ATOM     18  C   UNL     1       2.531   4.122  18.007  0.00  0.00    +0.000 A 
ATOM     19  C   UNL     1       3.394   3.826  16.942  0.00  0.00    +0.000 A 
ATOM     20  C   UNL     1       4.742   4.187  17.015  0.00  0.00    +0.000 A 
ATOM     21  C   UNL     1       5.615   3.909  15.942  0.00  0.00    +0.000 A 
ATOM     22  C   UNL     1       6.962   4.237  16.040  0.00  0.00    +0.000 A 
ATOM     23  C   UNL     1       7.440   4.826  17.200  0.00  0.00    +0.000 A 
ATOM     24  C   UNL     1       6.565   5.116  18.269  0.00  0.00    +0.000 A 
ATOM     25  C   UNL     1       7.108   5.735  19.524  0.00  0.00    +0.000 C 
ATOM     26  C   UNL     1       5.199   4.817  18.181  0.00  0.00    +0.000 A 
ATOM     27  N   UNL     1       4.363   5.148  19.204  0.00  0.00    +0.000 NA
ATOM     28  C   UNL     1       3.052   4.836  19.093  0.00  0.00    +0.000 A 
BRANCH  18  30
ATOM     29  C   UNL     1       0.903   2.327  18.685  0.00  0.00    +0.000 C 
ATOM     30  C   UNL     1       1.101   3.633  17.927  0.00  0.00    +0.000 C 
ENDBRANCH  18  30
ENDBRANCH  17  28
ENDBRANCH   1  17
TORSDOF 5
ENDMDL
MODEL 7
REMARK VINA RESULT:      -7.6      1.437      2.313
REMARK  Name = 
REMARK  7 active torsions:
REMARK  status: ('A' for Active; 'I' for Inactive)
REMARK    1  A    between atoms: C_1  and  C_2
REMARK    2  A    between atoms: C_2  and  C_3
REMARK    3  A    between atoms: C_9  and  C_10
REMARK    4  A    between atoms: C_13  and  S_14
REMARK    5  A    between atoms: S_14  and  C_15
REMARK    6  A    between atoms: C_15  and  C_16
REMARK    7  A    between atoms: C_22  and  C_24
REMARK                            x       y       z     vdW  Elec       q    Type
REMARK                         _______ _______ _______ _____ _____    ______ ____
ROOT
ATOM      1  C   UNL     1       0.707   9.909  20.731  0.00  0.00    +0.000 C 
ENDROOT
BRANCH   1   2
ATOM      2  C   UNL     1       1.217   9.693  19.287  0.00  0.00    +0.000 C 
ATOM      3  O   UNL     1       1.064  10.563  18.429  0.00  0.00    +0.000 OA
ATOM      4  N   UNL     1       1.891   8.511  18.977  0.00  0.00    +0.000 N 
ATOM      5  C   UNL     1       2.470   8.409  17.632  0.00  0.00    +0.000 C 
ATOM      6  C   UNL     1       3.734   7.549  17.623  0.00  0.00    +0.000 C 
ATOM      7  N   UNL     1       3.458   6.243  18.211  0.00  0.00    +0.000 N 
ATOM      8  C   UNL     1       3.941   5.098  17.565  0.00  0.00    +0.000 C 
ATOM      9  O   UNL     1       4.616   5.180  16.541  0.00  0.00    +0.000 OA
ATOM     10  C   UNL     1       2.901   6.313  19.573  0.00  0.00    +0.000 C 
ATOM     11  C   UNL     1       1.657   7.218  19.633  0.00  0.00    +0.000 C 
BRANCH   8  12
ATOM     12  C   UNL     1       3.616   3.814  18.156  0.00  0.00    +0.000 A 
ATOM     13  C   UNL     1       2.516   2.983  18.018  0.00  0.00    +0.000 A 
ATOM     14  C   UNL     1       2.740   1.872  18.870  0.00  0.00    +0.000 A 
ATOM     15  C   UNL     1       3.957   2.080  19.464  0.00  0.00    +0.000 A 
ATOM     16  O   UNL     1       4.475   3.263  19.067  0.00  0.00    +0.000 OA
ENDBRANCH   8  12
ENDBRANCH   1   2
BRANCH   1  17
ATOM     17  S   UNL     1       0.273  11.688  20.896  0.00  0.00    +0.000 S 
BRANCH  17  28
ATOM     18  C   UNL     1      -2.359  12.327  21.410  0.00  0.00    +0.000 A 
ATOM     19  C   UNL     1      -3.663  12.621  20.987  0.00  0.00    +0.000 A 
ATOM     20  C   UNL     1      -4.048  12.350  19.670  0.00  0.00    +0.000 A 
ATOM     21  C   UNL     1      -5.352  12.657  19.230  0.00  0.00    +0.000 A 
ATOM     22  C   UNL     1      -5.736  12.346  17.931  0.00  0.00    +0.000 A 
ATOM     23  C   UNL     1      -4.835  11.725  17.081  0.00  0.00    +0.000 A 
ATOM     24  C   UNL     1      -3.527  11.429  17.517  0.00  0.00    +0.000 A 
ATOM     25  C   UNL     1      -2.574  10.737  16.586  0.00  0.00    +0.000 C 
ATOM     26  C   UNL     1      -3.110  11.756  18.815  0.00  0.00    +0.000 A 
ATOM     27  N   UNL     1      -1.828  11.505  19.201  0.00  0.00    +0.000 NA
ATOM     28  C   UNL     1      -1.460  11.822  20.463  0.00  0.00    +0.000 A 
BRANCH  18  30
ATOM     29  C   UNL     1      -3.253  12.756  23.724  0.00  0.00    +0.000 C 
ATOM     30  C   UNL     1      -2.011  12.552  22.867  0.00  0.00    +0.000 C 
ENDBRANCH  18  30
ENDBRANCH  17  28
ENDBRANCH   1  17
TORSDOF 5
ENDMDL
MODEL 8
REMARK VINA RESULT:      -7.5      1.512      1.780
REMARK  Name = 
REMARK  7 active torsions:
REMARK  status: ('A' for Active; 'I' for Inactive)
REMARK    1  A    between atoms: C_1  and  C_2
REMARK    2  A    between atoms: C_2  and  C_3
REMARK    3  A    between atoms: C_9  and  C_10
REMARK    4  A    between atoms: C_13  and  S_14
REMARK    5  A    between atoms: S_14  and  C_15
REMARK    6  A    between atoms: C_15  and  C_16
REMARK    7  A    between atoms: C_22  and  C_24
REMARK                            x       y       z     vdW  Elec       q    Type
REMARK                         _______ _______ _______ _____ _____    ______ ____
ROOT
ATOM      1  C   UNL     1      -0.157  10.965  19.148  0.00  0.00    +0.000 C 
ENDROOT
BRANCH   1   2
ATOM      2  C   UNL     1       0.456  10.031  20.218  0.00  0.00    +0.000 C 
ATOM      3  O   UNL     1       0.245  10.224  21.416  0.00  0.00    +0.000 OA
ATOM      4  N   UNL     1       1.221   8.939  19.806  0.00  0.00    +0.000 N 
ATOM      5  C   UNL     1       1.668   8.010  20.849  0.00  0.00    +0.000 C 
ATOM      6  C   UNL     1       1.790   6.580  20.322  0.00  0.00    +0.000 C 
ATOM      7  N   UNL     1       2.649   6.551  19.142  0.00  0.00    +0.000 N 
ATOM      8  C   UNL     1       3.624   5.550  19.045  0.00  0.00    +0.000 C 
ATOM      9  O   UNL     1       3.740   4.686  19.911  0.00  0.00    +0.000 OA
ATOM     10  C   UNL     1       2.208   7.454  18.067  0.00  0.00    +0.000 C 
ATOM     11  C   UNL     1       2.020   8.895  18.574  0.00  0.00    +0.000 C 
BRANCH   8  12
ATOM     12  C   UNL     1       4.485   5.572  17.879  0.00  0.00    +0.000 A 
ATOM     13  C   UNL     1       4.506   4.803  16.727  0.00  0.00    +0.000 A 
ATOM     14  C   UNL     1       5.600   5.263  15.952  0.00  0.00    +0.000 A 
ATOM     15  C   UNL     1       6.173   6.285  16.662  0.00  0.00    +0.000 A 
ATOM     16  O   UNL     1       5.530   6.455  17.839  0.00  0.00    +0.000 OA
ENDBRANCH   8  12
ENDBRANCH   1   2
BRANCH   1  17
ATOM     17  S   UNL     1      -0.748  12.474  20.014  0.00  0.00    +0.000 S 
BRANCH  17  28
ATOM     18  C   UNL     1      -3.169  12.610  21.327  0.00  0.00    +0.000 A 
ATOM     19  C   UNL     1      -4.568  12.695  21.329  0.00  0.00    +0.000 A 
ATOM     20  C   UNL     1      -5.285  12.440  20.156  0.00  0.00    +0.000 A 
ATOM     21  C   UNL     1      -6.692  12.540  20.144  0.00  0.00    +0.000 A 
ATOM     22  C   UNL     1      -7.398  12.245  18.983  0.00  0.00    +0.000 A 
ATOM     23  C   UNL     1      -6.711  11.845  17.848  0.00  0.00    +0.000 A 
ATOM     24  C   UNL     1      -5.303  11.756  17.856  0.00  0.00    +0.000 A 
ATOM     25  C   UNL     1      -4.581  11.300  16.622  0.00  0.00    +0.000 C 
ATOM     26  C   UNL     1      -4.570  12.073  19.008  0.00  0.00    +0.000 A 
ATOM     27  N   UNL     1      -3.209  12.028  18.982  0.00  0.00    +0.000 NA
ATOM     28  C   UNL     1      -2.531  12.328  20.112  0.00  0.00    +0.000 A 
BRANCH  18  30
ATOM     29  C   UNL     1      -3.318  12.473  23.836  0.00  0.00    +0.000 C 
ATOM     30  C   UNL     1      -2.437  12.804  22.638  0.00  0.00    +0.000 C 
ENDBRANCH  18  30
ENDBRANCH  17  28
ENDBRANCH   1  17
TORSDOF 5
ENDMDL
MODEL 9
REMARK VINA RESULT:      -7.5      2.771     10.237
REMARK  Name = 
REMARK  7 active torsions:
REMARK  status: ('A' for Active; 'I' for Inactive)
REMARK    1  A    between atoms: C_1  and  C_2
REMARK    2  A    between atoms: C_2  and  C_3
REMARK    3  A    between atoms: C_9  and  C_10
REMARK    4  A    between atoms: C_13  and  S_14
REMARK    5  A    between atoms: S_14  and  C_15
REMARK    6  A    between atoms: C_15  and  C_16
REMARK    7  A    between atoms: C_22  and  C_24
REMARK                            x       y       z     vdW  Elec       q    Type
REMARK                         _______ _______ _______ _____ _____    ______ ____
ROOT
ATOM      1  C   UNL     1       2.568   7.495  19.846  0.00  0.00    +0.000 C 
ENDROOT
BRANCH   1   2
ATOM      2  C   UNL     1       1.869   8.461  18.860  0.00  0.00    +0.000 C 
ATOM      3  O   UNL     1       2.119   8.419  17.655  0.00  0.00    +0.000 OA
ATOM      4  N   UNL     1       0.920   9.359  19.352  0.00  0.00    +0.000 N 
ATOM      5  C   UNL     1       0.191  10.161  18.363  0.00  0.00    +0.000 C 
ATOM      6  C   UNL     1      -1.226  10.490  18.833  0.00  0.00    +0.000 C 
ATOM      7  N   UNL     1      -1.185  11.125  20.147  0.00  0.00    +0.000 N 
ATOM      8  C   UNL     1      -1.977  12.258  20.371  0.00  0.00    +0.000 C 
ATOM      9  O   UNL     1      -2.723  12.697  19.499  0.00  0.00    +0.000 OA
ATOM     10  C   UNL     1      -0.482  10.329  21.167  0.00  0.00    +0.000 C 
ATOM     11  C   UNL     1       0.930   9.930  20.705  0.00  0.00    +0.000 C 
BRANCH   8  12
ATOM     12  C   UNL     1      -1.883  12.887  21.675  0.00  0.00    +0.000 A 
ATOM     13  C   UNL     1      -0.927  13.716  22.237  0.00  0.00    +0.000 A 
ATOM     14  C   UNL     1      -1.357  13.992  23.559  0.00  0.00    +0.000 A 
ATOM     15  C   UNL     1      -2.546  13.331  23.724  0.00  0.00    +0.000 A 
ATOM     16  O   UNL     1      -2.853  12.635  22.607  0.00  0.00    +0.000 OA
ENDBRANCH   8  12
ENDBRANCH   1   2
BRANCH   1  17
ATOM     17  S   UNL     1       1.936   5.805  19.494  0.00  0.00    +0.000 S 
BRANCH  17  28
ATOM     18  C   UNL     1       2.805   3.816  17.794  0.00  0.00    +0.000 A 
ATOM     19  C   UNL     1       3.637   3.347  16.767  0.00  0.00    +0.000 A 
ATOM     20  C   UNL     1       4.771   4.077  16.399  0.00  0.00    +0.000 A 
ATOM     21  C   UNL     1       5.605   3.621  15.356  0.00  0.00    +0.000 A 
ATOM     22  C   UNL     1       6.752   4.333  15.025  0.00  0.00    +0.000 A 
ATOM     23  C   UNL     1       7.072   5.483  15.730  0.00  0.00    +0.000 A 
ATOM     24  C   UNL     1       6.231   5.945  16.765  0.00  0.00    +0.000 A 
ATOM     25  C   UNL     1       6.608   7.180  17.530  0.00  0.00    +0.000 C 
ATOM     26  C   UNL     1       5.057   5.256  17.099  0.00  0.00    +0.000 A 
ATOM     27  N   UNL     1       4.235   5.745  18.068  0.00  0.00    +0.000 NA
ATOM     28  C   UNL     1       3.115   5.052  18.376  0.00  0.00    +0.000 A 
BRANCH  18  30
ATOM     29  C   UNL     1       2.013   2.020  19.369  0.00  0.00    +0.000 C 
ATOM     30  C   UNL     1       1.639   2.951  18.223  0.00  0.00    +0.000 C 
ENDBRANCH  18  30
ENDBRANCH  17  28
ENDBRANCH   1  17
TORSDOF 5
ENDMDL
