MODEL 1
REMARK VINA RESULT:      -8.1      0.000      0.000
REMARK  Name = 
REMARK  3 active torsions:
REMARK  status: ('A' for Active; 'I' for Inactive)
REMARK    1  A    between atoms: C_2  and  C_3
REMARK    2  A    between atoms: C_2  and  C_17
REMARK    3  A    between atoms: N_8  and  C_9
REMARK                            x       y       z     vdW  Elec       q    Type
REMARK                         _______ _______ _______ _____ _____    ______ ____
ROOT
ATOM      1  C   UNL     1       3.035   3.523  19.346  0.00  0.00    +0.000 C 
ATOM      2  O   UNL     1       3.139   2.841  20.361  0.00  0.00    +0.000 OA
ATOM      3  N   UNL     1       2.317   4.704  19.256  0.00  0.00    +0.000 N 
ATOM      4  C   UNL     1       1.788   5.304  20.482  0.00  0.00    +0.000 C 
ATOM      5  C   UNL     1       2.328   6.738  20.674  0.00  0.00    +0.000 C 
ATOM      6  N   UNL     1       2.051   7.528  19.465  0.00  0.00    +0.000 N 
ATOM      7  C   UNL     1       2.592   6.962  18.216  0.00  0.00    +0.000 C 
ATOM      8  C   UNL     1       2.112   5.508  18.036  0.00  0.00    +0.000 C 
ENDROOT
BRANCH   6   9
ATOM      9  C   UNL     1       1.389   8.735  19.526  0.00  0.00    +0.000 A 
ATOM     10  C   UNL     1       0.702   9.140  20.684  0.00  0.00    +0.000 A 
ATOM     11  C   UNL     1      -0.014  10.342  20.742  0.00  0.00    +0.000 A 
ATOM     12  C   UNL     1      -0.061  11.173  19.631  0.00  0.00    +0.000 A 
ATOM     13  C   UNL     1       0.616  10.807  18.475  0.00  0.00    +0.000 A 
ATOM     14  C   UNL     1       1.333   9.606  18.430  0.00  0.00    +0.000 A 
ENDBRANCH   6   9
BRANCH   1  16
ATOM     15  O   UNL     1       3.376   1.988  17.603  0.00  0.00    +0.000 OA
ATOM     16  C   UNL     1       3.745   3.038  18.117  0.00  0.00    +0.000 C 
BRANCH  16  17
ATOM     17  C   UNL     1       4.900   3.794  17.587  0.00  0.00    +0.000 A 
ATOM     18  C   UNL     1       5.053   4.059  16.205  0.00  0.00    +0.000 A 
ATOM     19  C   UNL     1       5.997   4.994  15.764  0.00  0.00    +0.000 A 
ATOM     20  C   UNL     1       6.734   5.649  16.726  0.00  0.00    +0.000 A 
ATOM     21  C   UNL     1       6.638   5.332  18.063  0.00  0.00    +0.000 A 
ATOM     22  C   UNL     1       5.753   4.393  18.526  0.00  0.00    +0.000 A 
ATOM     23  O   UNL     1       7.410   6.140  18.842  0.00  0.00    +0.000 OA
ATOM     24  C   UNL     1       7.667   7.188  17.889  0.00  0.00    +0.000 C 
ATOM     25  O   UNL     1       7.545   6.726  16.525  0.00  0.00    +0.000 OA
ENDBRANCH  16  17
ENDBRANCH   1  16
TORSDOF 3
ENDMDL
MODEL 2
REMARK VINA RESULT:      -7.8      0.998      1.750
REMARK  Name = 
REMARK  3 active torsions:
REMARK  status: ('A' for Active; 'I' for Inactive)
REMARK    1  A    between atoms: C_2  and  C_3
REMARK    2  A    between atoms: C_2  and  C_17
REMARK    3  A    between atoms: N_8  and  C_9
REMARK                            x       y       z     vdW  Elec       q    Type
REMARK                         _______ _______ _______ _____ _____    ______ ____
ROOT
ATOM      1  C   UNL     1       3.074   3.416  19.512  0.00  0.00    +0.000 C 
ATOM      2  O   UNL     1       3.196   2.739  20.527  0.00  0.00    +0.000 OA
ATOM      3  N   UNL     1       2.330   4.581  19.422  0.00  0.00    +0.000 N 
ATOM      4  C   UNL     1       1.791   5.171  20.648  0.00  0.00    +0.000 C 
ATOM      5  C   UNL     1       2.299   6.617  20.837  0.00  0.00    +0.000 C 
ATOM      6  N   UNL     1       2.002   7.399  19.628  0.00  0.00    +0.000 N 
ATOM      7  C   UNL     1       2.552   6.844  18.378  0.00  0.00    +0.000 C 
ATOM      8  C   UNL     1       2.104   5.378  18.201  0.00  0.00    +0.000 C 
ENDROOT
BRANCH   6   9
ATOM      9  C   UNL     1       1.314   8.591  19.689  0.00  0.00    +0.000 A 
ATOM     10  C   UNL     1       0.624   8.985  20.849  0.00  0.00    +0.000 A 
ATOM     11  C   UNL     1      -0.118  10.170  20.907  0.00  0.00    +0.000 A 
ATOM     12  C   UNL     1      -0.190  10.997  19.794  0.00  0.00    +0.000 A 
ATOM     13  C   UNL     1       0.488  10.642  18.635  0.00  0.00    +0.000 A 
ATOM     14  C   UNL     1       1.232   9.457  18.590  0.00  0.00    +0.000 A 
ENDBRANCH   6   9
BRANCH   1  16
ATOM     15  O   UNL     1       3.614   1.793  17.905  0.00  0.00    +0.000 OA
ATOM     16  C   UNL     1       3.792   2.946  18.281  0.00  0.00    +0.000 C 
BRANCH  16  17
ATOM     17  C   UNL     1       4.734   3.849  17.588  0.00  0.00    +0.000 A 
ATOM     18  C   UNL     1       5.838   4.436  18.253  0.00  0.00    +0.000 A 
ATOM     19  C   UNL     1       6.854   5.062  17.522  0.00  0.00    +0.000 A 
ATOM     20  C   UNL     1       6.743   5.051  16.149  0.00  0.00    +0.000 A 
ATOM     21  C   UNL     1       5.630   4.549  15.509  0.00  0.00    +0.000 A 
ATOM     22  C   UNL     1       4.597   3.965  16.197  0.00  0.00    +0.000 A 
ATOM     23  O   UNL     1       5.755   4.585  14.154  0.00  0.00    +0.000 OA
ATOM     24  C   UNL     1       7.175   4.799  14.065  0.00  0.00    +0.000 C 
ATOM     25  O   UNL     1       7.708   5.416  15.259  0.00  0.00    +0.000 OA
ENDBRANCH  16  17
ENDBRANCH   1  16
TORSDOF 3
ENDMDL
MODEL 3
REMARK VINA RESULT:      -7.3      4.532      8.396
REMARK  Name = 
REMARK  3 active torsions:
REMARK  status: ('A' for Active; 'I' for Inactive)
REMARK    1  A    between atoms: C_2  and  C_3
REMARK    2  A    between atoms: C_2  and  C_17
REMARK    3  A    between atoms: N_8  and  C_9
REMARK                            x       y       z     vdW  Elec       q    Type
REMARK                         _______ _______ _______ _____ _____    ______ ____
ROOT
ATOM      1  C   UNL     1       0.144   9.966  20.340  0.00  0.00    +0.000 C 
ATOM      2  O   UNL     1      -0.422   9.702  21.396  0.00  0.00    +0.000 OA
ATOM      3  N   UNL     1       1.254   9.298  19.848  0.00  0.00    +0.000 N 
ATOM      4  C   UNL     1       1.694   8.073  20.517  0.00  0.00    +0.000 C 
ATOM      5  C   UNL     1       1.704   6.880  19.536  0.00  0.00    +0.000 C 
ATOM      6  N   UNL     1       2.508   7.228  18.356  0.00  0.00    +0.000 N 
ATOM      7  C   UNL     1       2.076   8.445  17.645  0.00  0.00    +0.000 C 
ATOM      8  C   UNL     1       2.002   9.636  18.622  0.00  0.00    +0.000 C 
ENDROOT
BRANCH   6   9
ATOM      9  C   UNL     1       3.545   6.428  17.926  0.00  0.00    +0.000 A 
ATOM     10  C   UNL     1       4.500   6.891  17.005  0.00  0.00    +0.000 A 
ATOM     11  C   UNL     1       5.529   6.073  16.525  0.00  0.00    +0.000 A 
ATOM     12  C   UNL     1       5.627   4.758  16.958  0.00  0.00    +0.000 A 
ATOM     13  C   UNL     1       4.705   4.271  17.877  0.00  0.00    +0.000 A 
ATOM     14  C   UNL     1       3.683   5.101  18.354  0.00  0.00    +0.000 A 
ENDBRANCH   6   9
BRANCH   1  16
ATOM     15  O   UNL     1       0.119  12.193  19.601  0.00  0.00    +0.000 OA
ATOM     16  C   UNL     1      -0.415  11.093  19.523  0.00  0.00    +0.000 C 
BRANCH  16  17
ATOM     17  C   UNL     1      -1.620  10.875  18.695  0.00  0.00    +0.000 A 
ATOM     18  C   UNL     1      -2.823  11.587  18.918  0.00  0.00    +0.000 A 
ATOM     19  C   UNL     1      -3.849  11.561  17.966  0.00  0.00    +0.000 A 
ATOM     20  C   UNL     1      -3.620  10.844  16.812  0.00  0.00    +0.000 A 
ATOM     21  C   UNL     1      -2.482  10.089  16.632  0.00  0.00    +0.000 A 
ATOM     22  C   UNL     1      -1.474  10.060  17.562  0.00  0.00    +0.000 A 
ATOM     23  O   UNL     1      -2.435   9.512  15.400  0.00  0.00    +0.000 OA
ATOM     24  C   UNL     1      -3.450  10.296  14.747  0.00  0.00    +0.000 C 
ATOM     25  O   UNL     1      -4.392  10.859  15.688  0.00  0.00    +0.000 OA
ENDBRANCH  16  17
ENDBRANCH   1  16
TORSDOF 3
ENDMDL
MODEL 4
REMARK VINA RESULT:      -7.2      1.733      4.310
REMARK  Name = 
REMARK  3 active torsions:
REMARK  status: ('A' for Active; 'I' for Inactive)
REMARK    1  A    between atoms: C_2  and  C_3
REMARK    2  A    between atoms: C_2  and  C_17
REMARK    3  A    between atoms: N_8  and  C_9
REMARK                            x       y       z     vdW  Elec       q    Type
REMARK                         _______ _______ _______ _____ _____    ______ ____
ROOT
ATOM      1  C   UNL     1       4.929   6.094  16.697  0.00  0.00    +0.000 C 
ATOM      2  O   UNL     1       5.082   6.459  15.536  0.00  0.00    +0.000 OA
ATOM      3  N   UNL     1       4.330   6.848  17.693  0.00  0.00    +0.000 N 
ATOM      4  C   UNL     1       3.658   8.095  17.325  0.00  0.00    +0.000 C 
ATOM      5  C   UNL     1       2.173   8.069  17.747  0.00  0.00    +0.000 C 
ATOM      6  N   UNL     1       2.080   7.750  19.179  0.00  0.00    +0.000 N 
ATOM      7  C   UNL     1       2.726   6.487  19.578  0.00  0.00    +0.000 C 
ATOM      8  C   UNL     1       4.196   6.469  19.112  0.00  0.00    +0.000 C 
ENDROOT
BRANCH   6   9
ATOM      9  C   UNL     1       1.381   8.553  20.054  0.00  0.00    +0.000 A 
ATOM     10  C   UNL     1       0.762   9.741  19.630  0.00  0.00    +0.000 A 
ATOM     11  C   UNL     1       0.091  10.590  20.518  0.00  0.00    +0.000 A 
ATOM     12  C   UNL     1       0.024  10.266  21.867  0.00  0.00    +0.000 A 
ATOM     13  C   UNL     1       0.617   9.094  22.318  0.00  0.00    +0.000 A 
ATOM     14  C   UNL     1       1.281   8.250  21.419  0.00  0.00    +0.000 A 
ENDBRANCH   6   9
BRANCH   1  16
ATOM     15  O   UNL     1       6.550   4.396  16.701  0.00  0.00    +0.000 OA
ATOM     16  C   UNL     1       5.425   4.724  17.058  0.00  0.00    +0.000 C 
BRANCH  16  17
ATOM     17  C   UNL     1       4.537   3.785  17.776  0.00  0.00    +0.000 A 
ATOM     18  C   UNL     1       4.902   3.207  19.015  0.00  0.00    +0.000 A 
ATOM     19  C   UNL     1       3.948   2.543  19.796  0.00  0.00    +0.000 A 
ATOM     20  C   UNL     1       2.656   2.508  19.319  0.00  0.00    +0.000 A 
ATOM     21  C   UNL     1       2.321   3.003  18.078  0.00  0.00    +0.000 A 
ATOM     22  C   UNL     1       3.239   3.624  17.269  0.00  0.00    +0.000 A 
ATOM     23  O   UNL     1       0.984   2.920  17.833  0.00  0.00    +0.000 OA
ATOM     24  C   UNL     1       0.525   2.685  19.177  0.00  0.00    +0.000 C 
ATOM     25  O   UNL     1       1.554   2.101  20.009  0.00  0.00    +0.000 OA
ENDBRANCH  16  17
ENDBRANCH   1  16
TORSDOF 3
ENDMDL
MODEL 5
REMARK VINA RESULT:      -7.0      5.127      9.643
REMARK  Name = 
REMARK  3 active torsions:
REMARK  status: ('A' for Active; 'I' for Inactive)
REMARK    1  A    between atoms: C_2  and  C_3
REMARK    2  A    between atoms: C_2  and  C_17
REMARK    3  A    between atoms: N_8  and  C_9
REMARK                            x       y       z     vdW  Elec       q    Type
REMARK                         _______ _______ _______ _____ _____    ______ ____
ROOT
ATOM      1  C   UNL     1       0.443  11.511  19.541  0.00  0.00    +0.000 C 
ATOM      2  O   UNL     1       0.570  12.267  18.584  0.00  0.00    +0.000 OA
ATOM      3  N   UNL     1       0.538  10.130  19.479  0.00  0.00    +0.000 N 
ATOM      4  C   UNL     1       1.002   9.511  18.237  0.00  0.00    +0.000 C 
ATOM      5  C   UNL     1       2.262   8.652  18.483  0.00  0.00    +0.000 C 
ATOM      6  N   UNL     1       1.989   7.686  19.557  0.00  0.00    +0.000 N 
ATOM      7  C   UNL     1       1.542   8.280  20.829  0.00  0.00    +0.000 C 
ATOM      8  C   UNL     1       0.319   9.190  20.594  0.00  0.00    +0.000 C 
ENDROOT
BRANCH   6   9
ATOM      9  C   UNL     1       2.202   6.335  19.385  0.00  0.00    +0.000 A 
ATOM     10  C   UNL     1       2.612   5.805  18.149  0.00  0.00    +0.000 A 
ATOM     11  C   UNL     1       2.785   4.431  17.949  0.00  0.00    +0.000 A 
ATOM     12  C   UNL     1       2.547   3.545  18.990  0.00  0.00    +0.000 A 
ATOM     13  C   UNL     1       2.151   4.036  20.228  0.00  0.00    +0.000 A 
ATOM     14  C   UNL     1       1.986   5.413  20.418  0.00  0.00    +0.000 A 
ENDBRANCH   6   9
BRANCH   1  16
ATOM     15  O   UNL     1       1.112  12.600  21.510  0.00  0.00    +0.000 OA
ATOM     16  C   UNL     1       0.171  12.135  20.879  0.00  0.00    +0.000 C 
BRANCH  16  17
ATOM     17  C   UNL     1      -1.200  12.124  21.431  0.00  0.00    +0.000 A 
ATOM     18  C   UNL     1      -1.458  11.844  22.794  0.00  0.00    +0.000 A 
ATOM     19  C   UNL     1      -2.720  12.102  23.344  0.00  0.00    +0.000 A 
ATOM     20  C   UNL     1      -3.669  12.656  22.514  0.00  0.00    +0.000 A 
ATOM     21  C   UNL     1      -3.439  12.854  21.169  0.00  0.00    +0.000 A 
ATOM     22  C   UNL     1      -2.229  12.575  20.589  0.00  0.00    +0.000 A 
ATOM     23  O   UNL     1      -4.487  13.465  20.552  0.00  0.00    +0.000 OA
ATOM     24  C   UNL     1      -5.184  13.945  21.716  0.00  0.00    +0.000 C 
ATOM     25  O   UNL     1      -4.874  13.167  22.895  0.00  0.00    +0.000 OA
ENDBRANCH  16  17
ENDBRANCH   1  16
TORSDOF 3
ENDMDL
MODEL 6
REMARK VINA RESULT:      -7.0      4.771      9.223
REMARK  Name = 
REMARK  3 active torsions:
REMARK  status: ('A' for Active; 'I' for Inactive)
REMARK    1  A    between atoms: C_2  and  C_3
REMARK    2  A    between atoms: C_2  and  C_17
REMARK    3  A    between atoms: N_8  and  C_9
REMARK                            x       y       z     vdW  Elec       q    Type
REMARK                         _______ _______ _______ _____ _____    ______ ____
ROOT
ATOM      1  C   UNL     1       1.093  11.201  19.348  0.00  0.00    +0.000 C 
ATOM      2  O   UNL     1       1.368  11.921  18.393  0.00  0.00    +0.000 OA
ATOM      3  N   UNL     1       1.006   9.819  19.299  0.00  0.00    +0.000 N 
ATOM      4  C   UNL     1       1.447   9.128  18.087  0.00  0.00    +0.000 C 
ATOM      5  C   UNL     1       2.567   8.113  18.406  0.00  0.00    +0.000 C 
ATOM      6  N   UNL     1       2.113   7.205  19.470  0.00  0.00    +0.000 N 
ATOM      7  C   UNL     1       1.684   7.871  20.713  0.00  0.00    +0.000 C 
ATOM      8  C   UNL     1       0.607   8.932  20.407  0.00  0.00    +0.000 C 
ENDROOT
BRANCH   6   9
ATOM      9  C   UNL     1       2.153   5.836  19.318  0.00  0.00    +0.000 A 
ATOM     10  C   UNL     1       2.113   4.971  20.425  0.00  0.00    +0.000 A 
ATOM     11  C   UNL     1       2.202   3.581  20.287  0.00  0.00    +0.000 A 
ATOM     12  C   UNL     1       2.334   3.018  19.025  0.00  0.00    +0.000 A 
ATOM     13  C   UNL     1       2.366   3.845  17.908  0.00  0.00    +0.000 A 
ATOM     14  C   UNL     1       2.271   5.233  18.059  0.00  0.00    +0.000 A 
ENDBRANCH   6   9
BRANCH   1  16
ATOM     15  O   UNL     1       1.790  12.341  21.277  0.00  0.00    +0.000 OA
ATOM     16  C   UNL     1       0.838  11.874  20.665  0.00  0.00    +0.000 C 
BRANCH  16  17
ATOM     17  C   UNL     1      -0.532  11.907  21.221  0.00  0.00    +0.000 A 
ATOM     18  C   UNL     1      -0.792  11.657  22.590  0.00  0.00    +0.000 A 
ATOM     19  C   UNL     1      -2.044  11.956  23.139  0.00  0.00    +0.000 A 
ATOM     20  C   UNL     1      -2.982  12.521  22.302  0.00  0.00    +0.000 A 
ATOM     21  C   UNL     1      -2.752  12.690  20.954  0.00  0.00    +0.000 A 
ATOM     22  C   UNL     1      -1.551  12.370  20.375  0.00  0.00    +0.000 A 
ATOM     23  O   UNL     1      -3.786  13.318  20.329  0.00  0.00    +0.000 OA
ATOM     24  C   UNL     1      -4.466  13.834  21.488  0.00  0.00    +0.000 C 
ATOM     25  O   UNL     1      -4.172  13.069  22.678  0.00  0.00    +0.000 OA
ENDBRANCH  16  17
ENDBRANCH   1  16
TORSDOF 3
ENDMDL
MODEL 7
REMARK VINA RESULT:      -7.0      4.721      9.233
REMARK  Name = 
REMARK  3 active torsions:
REMARK  status: ('A' for Active; 'I' for Inactive)
REMARK    1  A    between atoms: C_2  and  C_3
REMARK    2  A    between atoms: C_2  and  C_17
REMARK    3  A    between atoms: N_8  and  C_9
REMARK                            x       y       z     vdW  Elec       q    Type
REMARK                         _______ _______ _______ _____ _____    ______ ____
ROOT
ATOM      1  C   UNL     1       1.136  11.466  19.246  0.00  0.00    +0.000 C 
ATOM      2  O   UNL     1       1.463  12.149  18.281  0.00  0.00    +0.000 OA
ATOM      3  N   UNL     1       1.004  10.087  19.233  0.00  0.00    +0.000 N 
ATOM      4  C   UNL     1       1.455   9.347  18.055  0.00  0.00    +0.000 C 
ATOM      5  C   UNL     1       2.530   8.304  18.434  0.00  0.00    +0.000 C 
ATOM      6  N   UNL     1       2.015   7.444  19.508  0.00  0.00    +0.000 N 
ATOM      7  C   UNL     1       1.574   8.158  20.720  0.00  0.00    +0.000 C 
ATOM      8  C   UNL     1       0.543   9.245  20.353  0.00  0.00    +0.000 C 
ENDROOT
BRANCH   6   9
ATOM      9  C   UNL     1       2.012   6.070  19.396  0.00  0.00    +0.000 A 
ATOM     10  C   UNL     1       2.266   5.431  18.170  0.00  0.00    +0.000 A 
ATOM     11  C   UNL     1       2.219   4.039  18.032  0.00  0.00    +0.000 A 
ATOM     12  C   UNL     1       1.912   3.245  19.129  0.00  0.00    +0.000 A 
ATOM     13  C   UNL     1       1.665   3.844  20.358  0.00  0.00    +0.000 A 
ATOM     14  C   UNL     1       1.721   5.238  20.484  0.00  0.00    +0.000 A 
ENDBRANCH   6   9
BRANCH   1  16
ATOM     15  O   UNL     1       1.809  12.418  21.284  0.00  0.00    +0.000 OA
ATOM     16  C   UNL     1       0.866  12.184  20.536  0.00  0.00    +0.000 C 
BRANCH  16  17
ATOM     17  C   UNL     1      -0.520  12.538  20.905  0.00  0.00    +0.000 A 
ATOM     18  C   UNL     1      -1.595  12.413  19.992  0.00  0.00    +0.000 A 
ATOM     19  C   UNL     1      -2.919  12.496  20.441  0.00  0.00    +0.000 A 
ATOM     20  C   UNL     1      -3.118  12.672  21.793  0.00  0.00    +0.000 A 
ATOM     21  C   UNL     1      -2.071  12.872  22.666  0.00  0.00    +0.000 A 
ATOM     22  C   UNL     1      -0.763  12.838  22.255  0.00  0.00    +0.000 A 
ATOM     23  O   UNL     1      -2.488  12.965  23.959  0.00  0.00    +0.000 OA
ATOM     24  C   UNL     1      -3.815  12.429  23.804  0.00  0.00    +0.000 C 
ATOM     25  O   UNL     1      -4.306  12.573  22.452  0.00  0.00    +0.000 OA
ENDBRANCH  16  17
ENDBRANCH   1  16
TORSDOF 3
ENDMDL
MODEL 8
REMARK VINA RESULT:      -6.9      5.294      9.517
REMARK  Name = 
REMARK  3 active torsions:
REMARK  status: ('A' for Active; 'I' for Inactive)
REMARK    1  A    between atoms: C_2  and  C_3
REMARK    2  A    between atoms: C_2  and  C_17
REMARK    3  A    between atoms: N_8  and  C_9
REMARK                            x       y       z     vdW  Elec       q    Type
REMARK                         _______ _______ _______ _____ _____    ______ ____
ROOT
ATOM      1  C   UNL     1      -0.289  11.711  21.699  0.00  0.00    +0.000 C 
ATOM      2  O   UNL     1      -0.549  11.653  22.896  0.00  0.00    +0.000 OA
ATOM      3  N   UNL     1       0.644  10.918  21.051  0.00  0.00    +0.000 N 
ATOM      4  C   UNL     1       1.245   9.799  21.778  0.00  0.00    +0.000 C 
ATOM      5  C   UNL     1       0.985   8.462  21.049  0.00  0.00    +0.000 C 
ATOM      6  N   UNL     1       1.440   8.571  19.656  0.00  0.00    +0.000 N 
ATOM      7  C   UNL     1       0.835   9.675  18.889  0.00  0.00    +0.000 C 
ATOM      8  C   UNL     1       1.032  11.013  19.631  0.00  0.00    +0.000 C 
ENDROOT
BRANCH   6   9
ATOM      9  C   UNL     1       2.319   7.662  19.109  0.00  0.00    +0.000 A 
ATOM     10  C   UNL     1       3.005   7.928  17.911  0.00  0.00    +0.000 A 
ATOM     11  C   UNL     1       3.863   6.993  17.321  0.00  0.00    +0.000 A 
ATOM     12  C   UNL     1       4.056   5.756  17.921  0.00  0.00    +0.000 A 
ATOM     13  C   UNL     1       3.402   5.465  19.111  0.00  0.00    +0.000 A 
ATOM     14  C   UNL     1       2.550   6.410  19.695  0.00  0.00    +0.000 A 
ENDBRANCH   6   9
BRANCH   1  16
ATOM     15  O   UNL     1      -0.538  13.814  20.686  0.00  0.00    +0.000 OA
ATOM     16  C   UNL     1      -1.045  12.715  20.879  0.00  0.00    +0.000 C 
BRANCH  16  17
ATOM     17  C   UNL     1      -2.396  12.388  20.376  0.00  0.00    +0.000 A 
ATOM     18  C   UNL     1      -3.569  12.838  21.028  0.00  0.00    +0.000 A 
ATOM     19  C   UNL     1      -4.813  12.745  20.393  0.00  0.00    +0.000 A 
ATOM     20  C   UNL     1      -4.832  12.230  19.115  0.00  0.00    +0.000 A 
ATOM     21  C   UNL     1      -3.701  11.720  18.515  0.00  0.00    +0.000 A 
ATOM     22  C   UNL     1      -2.473  11.758  19.125  0.00  0.00    +0.000 A 
ATOM     23  O   UNL     1      -3.933  11.318  17.235  0.00  0.00    +0.000 OA
ATOM     24  C   UNL     1      -5.192  11.980  17.018  0.00  0.00    +0.000 C 
ATOM     25  O   UNL     1      -5.890  12.244  18.256  0.00  0.00    +0.000 OA
ENDBRANCH  16  17
ENDBRANCH   1  16
TORSDOF 3
ENDMDL
MODEL 9
REMARK VINA RESULT:      -6.9      5.379      9.941
REMARK  Name = 
REMARK  3 active torsions:
REMARK  status: ('A' for Active; 'I' for Inactive)
REMARK    1  A    between atoms: C_2  and  C_3
REMARK    2  A    between atoms: C_2  and  C_17
REMARK    3  A    between atoms: N_8  and  C_9
REMARK                            x       y       z     vdW  Elec       q    Type
REMARK                         _______ _______ _______ _____ _____    ______ ____
ROOT
ATOM      1  C   UNL     1      -0.224  11.841  19.757  0.00  0.00    +0.000 C 
ATOM      2  O   UNL     1      -0.261  12.580  18.778  0.00  0.00    +0.000 OA
ATOM      3  N   UNL     1       0.006  10.476  19.710  0.00  0.00    +0.000 N 
ATOM      4  C   UNL     1       0.420   9.874  18.442  0.00  0.00    +0.000 C 
ATOM      5  C   UNL     1       1.778   9.153  18.588  0.00  0.00    +0.000 C 
ATOM      6  N   UNL     1       1.701   8.193  19.699  0.00  0.00    +0.000 N 
ATOM      7  C   UNL     1       1.310   8.773  20.996  0.00  0.00    +0.000 C 
ATOM      8  C   UNL     1      -0.016   9.549  20.857  0.00  0.00    +0.000 C 
ENDROOT
BRANCH   6   9
ATOM      9  C   UNL     1       2.035   6.866  19.532  0.00  0.00    +0.000 A 
ATOM     10  C   UNL     1       2.547   6.383  18.315  0.00  0.00    +0.000 A 
ATOM     11  C   UNL     1       2.844   5.030  18.118  0.00  0.00    +0.000 A 
ATOM     12  C   UNL     1       2.634   4.118  19.144  0.00  0.00    +0.000 A 
ATOM     13  C   UNL     1       2.139   4.565  20.363  0.00  0.00    +0.000 A 
ATOM     14  C   UNL     1       1.850   5.922  20.550  0.00  0.00    +0.000 A 
ENDBRANCH   6   9
BRANCH   1  16
ATOM     15  O   UNL     1       0.537  12.680  21.813  0.00  0.00    +0.000 OA
ATOM     16  C   UNL     1      -0.439  12.470  21.102  0.00  0.00    +0.000 C 
BRANCH  16  17
ATOM     17  C   UNL     1      -1.811  12.767  21.565  0.00  0.00    +0.000 A 
ATOM     18  C   UNL     1      -2.926  12.707  20.694  0.00  0.00    +0.000 A 
ATOM     19  C   UNL     1      -4.228  12.727  21.208  0.00  0.00    +0.000 A 
ATOM     20  C   UNL     1      -4.365  12.778  22.578  0.00  0.00    +0.000 A 
ATOM     21  C   UNL     1      -3.281  12.917  23.417  0.00  0.00    +0.000 A 
ATOM     22  C   UNL     1      -1.994  12.941  22.945  0.00  0.00    +0.000 A 
ATOM     23  O   UNL     1      -3.638  12.887  24.731  0.00  0.00    +0.000 OA
ATOM     24  C   UNL     1      -4.964  12.345  24.590  0.00  0.00    +0.000 C 
ATOM     25  O   UNL     1      -5.520  12.601  23.280  0.00  0.00    +0.000 OA
ENDBRANCH  16  17
ENDBRANCH   1  16
TORSDOF 3
ENDMDL
