MODEL 1
REMARK VINA RESULT:      -9.0      0.000      0.000
REMARK  Name = 
REMARK  5 active torsions:
REMARK  status: ('A' for Active; 'I' for Inactive)
REMARK    1  A    between atoms: C_2  and  C_4
REMARK    2  A    between atoms: C_7  and  C_8
REMARK    3  A    between atoms: C_10  and  C_11
REMARK    4  A    between atoms: C_14  and  C_15
REMARK    5  A    between atoms: C_19  and  N_20
REMARK                            x       y       z     vdW  Elec       q    Type
REMARK                         _______ _______ _______ _____ _____    ______ ____
ROOT
ATOM      1  C   UNL     1       1.523   7.742  20.345  0.00  0.00    +0.000 A 
ATOM      2  C   UNL     1       2.248   7.789  19.169  0.00  0.00    +0.000 A 
ATOM      3  C   UNL     1       2.778   6.513  19.039  0.00  0.00    +0.000 A 
ATOM      4  O   UNL     1       2.401   5.820  20.086  0.00  0.00    +0.000 OA
ATOM      5  N   UNL     1       1.643   6.514  20.880  0.00  0.00    +0.000 NA
ENDROOT
BRANCH   1   9
ATOM      6  C   UNL     1      -0.794  10.869  22.234  0.00  0.00    +0.000 A 
ATOM      7  C   UNL     1      -0.187   9.832  22.981  0.00  0.00    +0.000 A 
ATOM      8  C   UNL     1       0.556   8.830  22.358  0.00  0.00    +0.000 A 
ATOM      9  C   UNL     1       0.719   8.815  20.968  0.00  0.00    +0.000 A 
ATOM     10  C   UNL     1       0.117   9.826  20.207  0.00  0.00    +0.000 A 
ATOM     11  C   UNL     1      -0.621  10.838  20.829  0.00  0.00    +0.000 A 
BRANCH   6  13
ATOM     12  N   UNL     1      -2.780  11.778  23.350  0.00  0.00    +0.000 NA
ATOM     13  C   UNL     1      -1.585  11.970  22.909  0.00  0.00    +0.000 C 
ATOM     14  N   UNL     1      -1.037  13.270  23.096  0.00  0.00    +0.000 N 
ATOM     15  H   UNL     1      -3.300  10.895  23.297  0.00  0.00    +0.000 HD
ATOM     16  H   UNL     1      -1.607  14.001  23.549  0.00  0.00    +0.000 HD
ATOM     17  H   UNL     1      -0.095  13.537  22.792  0.00  0.00    +0.000 HD
ENDBRANCH   6  13
ENDBRANCH   1   9
BRANCH   3  18
ATOM     18  C   UNL     1       3.646   5.995  17.936  0.00  0.00    +0.000 A 
ATOM     19  C   UNL     1       4.579   6.888  17.379  0.00  0.00    +0.000 A 
ATOM     20  C   UNL     1       5.475   6.493  16.390  0.00  0.00    +0.000 A 
ATOM     21  C   UNL     1       5.489   5.177  15.903  0.00  0.00    +0.000 A 
ATOM     22  C   UNL     1       4.545   4.278  16.446  0.00  0.00    +0.000 A 
ATOM     23  C   UNL     1       3.618   4.647  17.445  0.00  0.00    +0.000 A 
BRANCH  21  24
ATOM     24  C   UNL     1       6.465   4.728  14.827  0.00  0.00    +0.000 C 
ATOM     25  N   UNL     1       7.556   5.374  14.590  0.00  0.00    +0.000 NA
ATOM     26  N   UNL     1       6.228   3.569  14.031  0.00  0.00    +0.000 N 
ATOM     27  H   UNL     1       7.865   6.218  15.081  0.00  0.00    +0.000 HD
ATOM     28  H   UNL     1       5.398   2.972  14.119  0.00  0.00    +0.000 HD
ATOM     29  H   UNL     1       6.916   3.294  13.315  0.00  0.00    +0.000 HD
ENDBRANCH  21  24
BRANCH  23  30
ATOM     30  N   UNL     1       2.672   3.645  17.866  0.00  0.00    +0.000 N 
ATOM     31  O   UNL     1       2.937   2.865  18.724  0.00  0.00    +0.000 OA
ATOM     32  O   UNL     1       1.421   3.705  17.458  0.00  0.00    +0.000 OA
ENDBRANCH  23  30
ENDBRANCH   3  18
TORSDOF 5
ENDMDL
MODEL 2
REMARK VINA RESULT:      -9.0      0.154      1.093
REMARK  Name = 
REMARK  5 active torsions:
REMARK  status: ('A' for Active; 'I' for Inactive)
REMARK    1  A    between atoms: C_2  and  C_4
REMARK    2  A    between atoms: C_7  and  C_8
REMARK    3  A    between atoms: C_10  and  C_11
REMARK    4  A    between atoms: C_14  and  C_15
REMARK    5  A    between atoms: C_19  and  N_20
REMARK                            x       y       z     vdW  Elec       q    Type
REMARK                         _______ _______ _______ _____ _____    ______ ____
ROOT
ATOM      1  C   UNL     1       1.535   7.746  20.340  0.00  0.00    +0.000 A 
ATOM      2  C   UNL     1       2.257   7.783  19.161  0.00  0.00    +0.000 A 
ATOM      3  C   UNL     1       2.772   6.500  19.033  0.00  0.00    +0.000 A 
ATOM      4  O   UNL     1       2.391   5.814  20.083  0.00  0.00    +0.000 OA
ATOM      5  N   UNL     1       1.643   6.519  20.877  0.00  0.00    +0.000 NA
ENDROOT
BRANCH   1   9
ATOM      6  C   UNL     1      -0.756  10.892  22.230  0.00  0.00    +0.000 A 
ATOM      7  C   UNL     1      -0.424   9.695  22.909  0.00  0.00    +0.000 A 
ATOM      8  C   UNL     1       0.314   8.690  22.286  0.00  0.00    +0.000 A 
ATOM      9  C   UNL     1       0.745   8.830  20.962  0.00  0.00    +0.000 A 
ATOM     10  C   UNL     1       0.417  10.001  20.266  0.00  0.00    +0.000 A 
ATOM     11  C   UNL     1      -0.315  11.017  20.891  0.00  0.00    +0.000 A 
BRANCH   6  13
ATOM     12  N   UNL     1      -1.069  13.187  23.039  0.00  0.00    +0.000 NA
ATOM     13  C   UNL     1      -1.541  11.994  22.909  0.00  0.00    +0.000 C 
ATOM     14  N   UNL     1      -2.846  11.764  23.430  0.00  0.00    +0.000 N 
ATOM     15  H   UNL     1      -0.152  13.503  22.706  0.00  0.00    +0.000 HD
ATOM     16  H   UNL     1      -3.349  12.534  23.896  0.00  0.00    +0.000 HD
ATOM     17  H   UNL     1      -3.325  10.860  23.379  0.00  0.00    +0.000 HD
ENDBRANCH   6  13
ENDBRANCH   1   9
BRANCH   3  18
ATOM     18  C   UNL     1       3.631   5.969  17.929  0.00  0.00    +0.000 A 
ATOM     19  C   UNL     1       4.554   6.859  17.349  0.00  0.00    +0.000 A 
ATOM     20  C   UNL     1       5.441   6.453  16.357  0.00  0.00    +0.000 A 
ATOM     21  C   UNL     1       5.457   5.130  15.890  0.00  0.00    +0.000 A 
ATOM     22  C   UNL     1       4.524   4.235  16.456  0.00  0.00    +0.000 A 
ATOM     23  C   UNL     1       3.605   4.614  17.459  0.00  0.00    +0.000 A 
BRANCH  21  24
ATOM     24  C   UNL     1       6.424   4.669  14.811  0.00  0.00    +0.000 C 
ATOM     25  N   UNL     1       6.225   3.585  14.141  0.00  0.00    +0.000 NA
ATOM     26  N   UNL     1       7.594   5.414  14.479  0.00  0.00    +0.000 N 
ATOM     27  H   UNL     1       5.430   2.950  14.262  0.00  0.00    +0.000 HD
ATOM     28  H   UNL     1       7.866   6.290  14.938  0.00  0.00    +0.000 HD
ATOM     29  H   UNL     1       8.222   5.071  13.737  0.00  0.00    +0.000 HD
ENDBRANCH  21  24
BRANCH  23  30
ATOM     30  N   UNL     1       2.669   3.615  17.905  0.00  0.00    +0.000 N 
ATOM     31  O   UNL     1       1.586   3.519  17.421  0.00  0.00    +0.000 OA
ATOM     32  O   UNL     1       3.064   2.652  18.713  0.00  0.00    +0.000 OA
ENDBRANCH  23  30
ENDBRANCH   3  18
TORSDOF 5
ENDMDL
MODEL 3
REMARK VINA RESULT:      -8.9      0.100      1.146
REMARK  Name = 
REMARK  5 active torsions:
REMARK  status: ('A' for Active; 'I' for Inactive)
REMARK    1  A    between atoms: C_2  and  C_4
REMARK    2  A    between atoms: C_7  and  C_8
REMARK    3  A    between atoms: C_10  and  C_11
REMARK    4  A    between atoms: C_14  and  C_15
REMARK    5  A    between atoms: C_19  and  N_20
REMARK                            x       y       z     vdW  Elec       q    Type
REMARK                         _______ _______ _______ _____ _____    ______ ____
ROOT
ATOM      1  C   UNL     1       1.560   7.654  20.365  0.00  0.00    +0.000 A 
ATOM      2  C   UNL     1       2.296   7.716  19.196  0.00  0.00    +0.000 A 
ATOM      3  C   UNL     1       2.775   6.426  19.021  0.00  0.00    +0.000 A 
ATOM      4  O   UNL     1       2.362   5.709  20.039  0.00  0.00    +0.000 OA
ATOM      5  N   UNL     1       1.626   6.403  20.853  0.00  0.00    +0.000 NA
ENDROOT
BRANCH   1   9
ATOM      6  C   UNL     1      -0.717  10.829  22.223  0.00  0.00    +0.000 A 
ATOM      7  C   UNL     1      -0.554  10.746  20.820  0.00  0.00    +0.000 A 
ATOM      8  C   UNL     1       0.183   9.717  20.236  0.00  0.00    +0.000 A 
ATOM      9  C   UNL     1       0.795   8.735  21.023  0.00  0.00    +0.000 A 
ATOM     10  C   UNL     1       0.657   8.803  22.415  0.00  0.00    +0.000 A 
ATOM     11  C   UNL     1      -0.091   9.828  23.005  0.00  0.00    +0.000 A 
BRANCH   6  13
ATOM     12  N   UNL     1      -2.727  11.730  23.302  0.00  0.00    +0.000 NA
ATOM     13  C   UNL     1      -1.534  11.933  22.860  0.00  0.00    +0.000 C 
ATOM     14  N   UNL     1      -1.014  13.250  23.009  0.00  0.00    +0.000 N 
ATOM     15  H   UNL     1      -3.228  10.836  23.274  0.00  0.00    +0.000 HD
ATOM     16  H   UNL     1      -1.600  13.982  23.437  0.00  0.00    +0.000 HD
ATOM     17  H   UNL     1      -0.076  13.526  22.701  0.00  0.00    +0.000 HD
ENDBRANCH   6  13
ENDBRANCH   1   9
BRANCH   3  18
ATOM     18  C   UNL     1       3.630   5.914  17.905  0.00  0.00    +0.000 A 
ATOM     19  C   UNL     1       4.558   6.811  17.345  0.00  0.00    +0.000 A 
ATOM     20  C   UNL     1       5.443   6.422  16.343  0.00  0.00    +0.000 A 
ATOM     21  C   UNL     1       5.450   5.110  15.847  0.00  0.00    +0.000 A 
ATOM     22  C   UNL     1       4.512   4.208  16.393  0.00  0.00    +0.000 A 
ATOM     23  C   UNL     1       3.596   4.570  17.404  0.00  0.00    +0.000 A 
BRANCH  21  24
ATOM     24  C   UNL     1       6.414   4.668  14.757  0.00  0.00    +0.000 C 
ATOM     25  N   UNL     1       6.181   3.629  14.028  0.00  0.00    +0.000 NA
ATOM     26  N   UNL     1       7.617   5.381  14.480  0.00  0.00    +0.000 N 
ATOM     27  H   UNL     1       5.360   3.022  14.104  0.00  0.00    +0.000 HD
ATOM     28  H   UNL     1       7.917   6.220  14.988  0.00  0.00    +0.000 HD
ATOM     29  H   UNL     1       8.241   5.052  13.729  0.00  0.00    +0.000 HD
ENDBRANCH  21  24
BRANCH  23  30
ATOM     30  N   UNL     1       2.653   3.567  17.829  0.00  0.00    +0.000 N 
ATOM     31  O   UNL     1       2.927   2.778  18.677  0.00  0.00    +0.000 OA
ATOM     32  O   UNL     1       1.397   3.631  17.437  0.00  0.00    +0.000 OA
ENDBRANCH  23  30
ENDBRANCH   3  18
TORSDOF 5
ENDMDL
MODEL 4
REMARK VINA RESULT:      -8.5      1.816      9.340
REMARK  Name = 
REMARK  5 active torsions:
REMARK  status: ('A' for Active; 'I' for Inactive)
REMARK    1  A    between atoms: C_2  and  C_4
REMARK    2  A    between atoms: C_7  and  C_8
REMARK    3  A    between atoms: C_10  and  C_11
REMARK    4  A    between atoms: C_14  and  C_15
REMARK    5  A    between atoms: C_19  and  N_20
REMARK                            x       y       z     vdW  Elec       q    Type
REMARK                         _______ _______ _______ _____ _____    ______ ____
ROOT
ATOM      1  C   UNL     1       2.782   6.600  19.055  0.00  0.00    +0.000 A 
ATOM      2  C   UNL     1       2.220   7.858  19.162  0.00  0.00    +0.000 A 
ATOM      3  C   UNL     1       1.470   7.803  20.328  0.00  0.00    +0.000 A 
ATOM      4  O   UNL     1       1.582   6.590  20.813  0.00  0.00    +0.000 OA
ATOM      5  N   UNL     1       2.364   5.849  20.089  0.00  0.00    +0.000 NA
ENDROOT
BRANCH   1   9
ATOM      6  C   UNL     1       5.510   5.194  16.005  0.00  0.00    +0.000 A 
ATOM      7  C   UNL     1       5.206   6.567  16.164  0.00  0.00    +0.000 A 
ATOM      8  C   UNL     1       4.324   7.005  17.151  0.00  0.00    +0.000 A 
ATOM      9  C   UNL     1       3.703   6.095  18.014  0.00  0.00    +0.000 A 
ATOM     10  C   UNL     1       3.979   4.730  17.868  0.00  0.00    +0.000 A 
ATOM     11  C   UNL     1       4.871   4.287  16.886  0.00  0.00    +0.000 A 
BRANCH   6  13
ATOM     12  N   UNL     1       7.589   5.333  14.710  0.00  0.00    +0.000 NA
ATOM     13  C   UNL     1       6.482   4.716  14.948  0.00  0.00    +0.000 C 
ATOM     14  N   UNL     1       6.222   3.553  14.171  0.00  0.00    +0.000 N 
ATOM     15  H   UNL     1       7.916   6.176  15.195  0.00  0.00    +0.000 HD
ATOM     16  H   UNL     1       6.899   3.260  13.451  0.00  0.00    +0.000 HD
ATOM     17  H   UNL     1       5.379   2.978  14.276  0.00  0.00    +0.000 HD
ENDBRANCH   6  13
ENDBRANCH   1   9
BRANCH   3  18
ATOM     18  C   UNL     1       0.650   8.896  20.937  0.00  0.00    +0.000 A 
ATOM     19  C   UNL     1       0.304   8.760  22.293  0.00  0.00    +0.000 A 
ATOM     20  C   UNL     1      -0.405   9.746  22.974  0.00  0.00    +0.000 A 
ATOM     21  C   UNL     1      -0.806  10.928  22.333  0.00  0.00    +0.000 A 
ATOM     22  C   UNL     1      -0.476  11.066  20.968  0.00  0.00    +0.000 A 
ATOM     23  C   UNL     1       0.235  10.083  20.245  0.00  0.00    +0.000 A 
BRANCH  21  24
ATOM     24  C   UNL     1      -1.576  12.017  23.064  0.00  0.00    +0.000 C 
ATOM     25  N   UNL     1      -1.035  13.151  23.354  0.00  0.00    +0.000 NA
ATOM     26  N   UNL     1      -2.936  11.843  23.458  0.00  0.00    +0.000 N 
ATOM     27  H   UNL     1      -0.072  13.423  23.132  0.00  0.00    +0.000 HD
ATOM     28  H   UNL     1      -3.478  10.989  23.288  0.00  0.00    +0.000 HD
ATOM     29  H   UNL     1      -3.425  12.608  23.946  0.00  0.00    +0.000 HD
ENDBRANCH  21  24
BRANCH  23  30
ATOM     30  N   UNL     1       0.453  10.326  18.842  0.00  0.00    +0.000 N 
ATOM     31  O   UNL     1      -0.340   9.983  18.024  0.00  0.00    +0.000 OA
ATOM     32  O   UNL     1       1.431  11.117  18.452  0.00  0.00    +0.000 OA
ENDBRANCH  23  30
ENDBRANCH   3  18
TORSDOF 5
ENDMDL
MODEL 5
REMARK VINA RESULT:      -8.3      1.075      1.497
REMARK  Name = 
REMARK  5 active torsions:
REMARK  status: ('A' for Active; 'I' for Inactive)
REMARK    1  A    between atoms: C_2  and  C_4
REMARK    2  A    between atoms: C_7  and  C_8
REMARK    3  A    between atoms: C_10  and  C_11
REMARK    4  A    between atoms: C_14  and  C_15
REMARK    5  A    between atoms: C_19  and  N_20
REMARK                            x       y       z     vdW  Elec       q    Type
REMARK                         _______ _______ _______ _____ _____    ______ ____
ROOT
ATOM      1  C   UNL     1       1.346   8.473  19.791  0.00  0.00    +0.000 A 
ATOM      2  C   UNL     1       2.026   8.292  18.600  0.00  0.00    +0.000 A 
ATOM      3  C   UNL     1       2.703   7.092  18.768  0.00  0.00    +0.000 A 
ATOM      4  O   UNL     1       2.443   6.658  19.977  0.00  0.00    +0.000 OA
ATOM      5  N   UNL     1       1.630   7.447  20.612  0.00  0.00    +0.000 NA
ENDROOT
BRANCH   1   9
ATOM      6  C   UNL     1      -1.353  11.693  20.820  0.00  0.00    +0.000 A 
ATOM      7  C   UNL     1      -1.129  11.304  19.479  0.00  0.00    +0.000 A 
ATOM      8  C   UNL     1      -0.255  10.265  19.162  0.00  0.00    +0.000 A 
ATOM      9  C   UNL     1       0.436   9.577  20.166  0.00  0.00    +0.000 A 
ATOM     10  C   UNL     1       0.239   9.952  21.500  0.00  0.00    +0.000 A 
ATOM     11  C   UNL     1      -0.644  10.988  21.823  0.00  0.00    +0.000 A 
BRANCH   6  13
ATOM     12  N   UNL     1      -2.863  12.897  22.334  0.00  0.00    +0.000 NA
ATOM     13  C   UNL     1      -2.316  12.808  21.170  0.00  0.00    +0.000 C 
ATOM     14  N   UNL     1      -2.656  13.818  20.226  0.00  0.00    +0.000 N 
ATOM     15  H   UNL     1      -2.707  12.251  23.115  0.00  0.00    +0.000 HD
ATOM     16  H   UNL     1      -3.324  14.558  20.493  0.00  0.00    +0.000 HD
ATOM     17  H   UNL     1      -2.279  13.853  19.274  0.00  0.00    +0.000 HD
ENDBRANCH   6  13
ENDBRANCH   1   9
BRANCH   3  18
ATOM     18  C   UNL     1       3.595   6.404  17.783  0.00  0.00    +0.000 A 
ATOM     19  C   UNL     1       4.588   7.182  17.163  0.00  0.00    +0.000 A 
ATOM     20  C   UNL     1       5.508   6.630  16.277  0.00  0.00    +0.000 A 
ATOM     21  C   UNL     1       5.488   5.262  15.965  0.00  0.00    +0.000 A 
ATOM     22  C   UNL     1       4.484   4.476  16.571  0.00  0.00    +0.000 A 
ATOM     23  C   UNL     1       3.531   5.005  17.468  0.00  0.00    +0.000 A 
BRANCH  21  24
ATOM     24  C   UNL     1       6.489   4.641  15.003  0.00  0.00    +0.000 C 
ATOM     25  N   UNL     1       7.647   5.171  14.797  0.00  0.00    +0.000 NA
ATOM     26  N   UNL     1       6.203   3.441  14.288  0.00  0.00    +0.000 N 
ATOM     27  H   UNL     1       7.996   6.026  15.239  0.00  0.00    +0.000 HD
ATOM     28  H   UNL     1       5.320   2.925  14.362  0.00  0.00    +0.000 HD
ATOM     29  H   UNL     1       6.911   3.049  13.649  0.00  0.00    +0.000 HD
ENDBRANCH  21  24
BRANCH  23  30
ATOM     30  N   UNL     1       2.526   4.103  17.968  0.00  0.00    +0.000 N 
ATOM     31  O   UNL     1       2.689   3.488  18.974  0.00  0.00    +0.000 OA
ATOM     32  O   UNL     1       1.320   4.095  17.437  0.00  0.00    +0.000 OA
ENDBRANCH  23  30
ENDBRANCH   3  18
TORSDOF 5
ENDMDL
MODEL 6
REMARK VINA RESULT:      -8.3      1.486      2.103
REMARK  Name = 
REMARK  5 active torsions:
REMARK  status: ('A' for Active; 'I' for Inactive)
REMARK    1  A    between atoms: C_2  and  C_4
REMARK    2  A    between atoms: C_7  and  C_8
REMARK    3  A    between atoms: C_10  and  C_11
REMARK    4  A    between atoms: C_14  and  C_15
REMARK    5  A    between atoms: C_19  and  N_20
REMARK                            x       y       z     vdW  Elec       q    Type
REMARK                         _______ _______ _______ _____ _____    ______ ____
ROOT
ATOM      1  C   UNL     1       1.157   8.831  19.565  0.00  0.00    +0.000 A 
ATOM      2  C   UNL     1       1.814   8.485  18.398  0.00  0.00    +0.000 A 
ATOM      3  C   UNL     1       2.573   7.376  18.746  0.00  0.00    +0.000 A 
ATOM      4  O   UNL     1       2.377   7.147  20.022  0.00  0.00    +0.000 OA
ATOM      5  N   UNL     1       1.531   7.985  20.540  0.00  0.00    +0.000 NA
ENDROOT
BRANCH   1   9
ATOM      6  C   UNL     1      -1.724  12.009  20.128  0.00  0.00    +0.000 A 
ATOM      7  C   UNL     1      -1.589  11.330  18.894  0.00  0.00    +0.000 A 
ATOM      8  C   UNL     1      -0.655  10.308  18.727  0.00  0.00    +0.000 A 
ATOM      9  C   UNL     1       0.187   9.927  19.778  0.00  0.00    +0.000 A 
ATOM     10  C   UNL     1       0.080  10.593  21.005  0.00  0.00    +0.000 A 
ATOM     11  C   UNL     1      -0.862  11.612  21.179  0.00  0.00    +0.000 A 
BRANCH   6  13
ATOM     12  N   UNL     1      -2.426  14.354  20.299  0.00  0.00    +0.000 NA
ATOM     13  C   UNL     1      -2.750  13.106  20.319  0.00  0.00    +0.000 C 
ATOM     14  N   UNL     1      -4.127  12.808  20.520  0.00  0.00    +0.000 N 
ATOM     15  H   UNL     1      -1.479  14.720  20.154  0.00  0.00    +0.000 HD
ATOM     16  H   UNL     1      -4.798  13.578  20.658  0.00  0.00    +0.000 HD
ATOM     17  H   UNL     1      -4.501  11.854  20.548  0.00  0.00    +0.000 HD
ENDBRANCH   6  13
ENDBRANCH   1   9
BRANCH   3  18
ATOM     18  C   UNL     1       3.480   6.580  17.862  0.00  0.00    +0.000 A 
ATOM     19  C   UNL     1       4.546   7.265  17.253  0.00  0.00    +0.000 A 
ATOM     20  C   UNL     1       5.484   6.609  16.460  0.00  0.00    +0.000 A 
ATOM     21  C   UNL     1       5.409   5.226  16.235  0.00  0.00    +0.000 A 
ATOM     22  C   UNL     1       4.333   4.534  16.831  0.00  0.00    +0.000 A 
ATOM     23  C   UNL     1       3.360   5.168  17.635  0.00  0.00    +0.000 A 
BRANCH  21  24
ATOM     24  C   UNL     1       6.428   4.494  15.377  0.00  0.00    +0.000 C 
ATOM     25  N   UNL     1       6.338   3.227  15.151  0.00  0.00    +0.000 NA
ATOM     26  N   UNL     1       7.529   5.170  14.773  0.00  0.00    +0.000 N 
ATOM     27  H   UNL     1       5.603   2.611  15.511  0.00  0.00    +0.000 HD
ATOM     28  H   UNL     1       7.713   6.173  14.876  0.00  0.00    +0.000 HD
ATOM     29  H   UNL     1       8.195   4.639  14.193  0.00  0.00    +0.000 HD
ENDBRANCH  21  24
BRANCH  23  30
ATOM     30  N   UNL     1       2.282   4.352  18.131  0.00  0.00    +0.000 N 
ATOM     31  O   UNL     1       2.301   3.905  19.234  0.00  0.00    +0.000 OA
ATOM     32  O   UNL     1       1.158   4.255  17.451  0.00  0.00    +0.000 OA
ENDBRANCH  23  30
ENDBRANCH   3  18
TORSDOF 5
ENDMDL
MODEL 7
REMARK VINA RESULT:      -8.3      1.115      1.503
REMARK  Name = 
REMARK  5 active torsions:
REMARK  status: ('A' for Active; 'I' for Inactive)
REMARK    1  A    between atoms: C_2  and  C_4
REMARK    2  A    between atoms: C_7  and  C_8
REMARK    3  A    between atoms: C_10  and  C_11
REMARK    4  A    between atoms: C_14  and  C_15
REMARK    5  A    between atoms: C_19  and  N_20
REMARK                            x       y       z     vdW  Elec       q    Type
REMARK                         _______ _______ _______ _____ _____    ______ ____
ROOT
ATOM      1  C   UNL     1       1.297   8.580  19.799  0.00  0.00    +0.000 A 
ATOM      2  C   UNL     1       1.960   8.359  18.606  0.00  0.00    +0.000 A 
ATOM      3  C   UNL     1       2.647   7.170  18.808  0.00  0.00    +0.000 A 
ATOM      4  O   UNL     1       2.409   6.779  20.036  0.00  0.00    +0.000 OA
ATOM      5  N   UNL     1       1.600   7.587  20.653  0.00  0.00    +0.000 NA
ENDROOT
BRANCH   1   9
ATOM      6  C   UNL     1      -1.323  11.849  20.879  0.00  0.00    +0.000 A 
ATOM      7  C   UNL     1      -0.474  11.225  21.824  0.00  0.00    +0.000 A 
ATOM      8  C   UNL     1       0.364  10.172  21.462  0.00  0.00    +0.000 A 
ATOM      9  C   UNL     1       0.387   9.692  20.147  0.00  0.00    +0.000 A 
ATOM     10  C   UNL     1      -0.454  10.286  19.197  0.00  0.00    +0.000 A 
ATOM     11  C   UNL     1      -1.289  11.349  19.554  0.00  0.00    +0.000 A 
BRANCH   6  13
ATOM     12  N   UNL     1      -2.536  13.244  22.491  0.00  0.00    +0.000 NA
ATOM     13  C   UNL     1      -2.221  13.005  21.265  0.00  0.00    +0.000 C 
ATOM     14  N   UNL     1      -2.752  13.891  20.286  0.00  0.00    +0.000 N 
ATOM     15  H   UNL     1      -2.223  12.700  23.303  0.00  0.00    +0.000 HD
ATOM     16  H   UNL     1      -3.369  14.663  20.581  0.00  0.00    +0.000 HD
ATOM     17  H   UNL     1      -2.564  13.804  19.282  0.00  0.00    +0.000 HD
ENDBRANCH   6  13
ENDBRANCH   1   9
BRANCH   3  18
ATOM     18  C   UNL     1       3.528   6.450  17.836  0.00  0.00    +0.000 A 
ATOM     19  C   UNL     1       4.541   7.200  17.212  0.00  0.00    +0.000 A 
ATOM     20  C   UNL     1       5.454   6.616  16.337  0.00  0.00    +0.000 A 
ATOM     21  C   UNL     1       5.404   5.246  16.040  0.00  0.00    +0.000 A 
ATOM     22  C   UNL     1       4.381   4.490  16.651  0.00  0.00    +0.000 A 
ATOM     23  C   UNL     1       3.435   5.050  17.537  0.00  0.00    +0.000 A 
BRANCH  21  24
ATOM     24  C   UNL     1       6.396   4.592  15.091  0.00  0.00    +0.000 C 
ATOM     25  N   UNL     1       6.196   3.412  14.609  0.00  0.00    +0.000 NA
ATOM     26  N   UNL     1       7.593   5.251  14.681  0.00  0.00    +0.000 N 
ATOM     27  H   UNL     1       5.384   2.820  14.807  0.00  0.00    +0.000 HD
ATOM     28  H   UNL     1       7.869   6.188  14.994  0.00  0.00    +0.000 HD
ATOM     29  H   UNL     1       8.237   4.776  14.032  0.00  0.00    +0.000 HD
ENDBRANCH  21  24
BRANCH  23  30
ATOM     30  N   UNL     1       2.408   4.176  18.043  0.00  0.00    +0.000 N 
ATOM     31  O   UNL     1       1.436   3.928  17.404  0.00  0.00    +0.000 OA
ATOM     32  O   UNL     1       2.620   3.467  19.133  0.00  0.00    +0.000 OA
ENDBRANCH  23  30
ENDBRANCH   3  18
TORSDOF 5
ENDMDL
MODEL 8
REMARK VINA RESULT:      -8.3      1.806      9.305
REMARK  Name = 
REMARK  5 active torsions:
REMARK  status: ('A' for Active; 'I' for Inactive)
REMARK    1  A    between atoms: C_2  and  C_4
REMARK    2  A    between atoms: C_7  and  C_8
REMARK    3  A    between atoms: C_10  and  C_11
REMARK    4  A    between atoms: C_14  and  C_15
REMARK    5  A    between atoms: C_19  and  N_20
REMARK                            x       y       z     vdW  Elec       q    Type
REMARK                         _______ _______ _______ _____ _____    ______ ____
ROOT
ATOM      1  C   UNL     1       2.786   6.712  19.028  0.00  0.00    +0.000 A 
ATOM      2  C   UNL     1       2.231   7.973  19.154  0.00  0.00    +0.000 A 
ATOM      3  C   UNL     1       1.441   7.889  20.292  0.00  0.00    +0.000 A 
ATOM      4  O   UNL     1       1.525   6.661  20.744  0.00  0.00    +0.000 OA
ATOM      5  N   UNL     1       2.326   5.935  20.024  0.00  0.00    +0.000 NA
ENDROOT
BRANCH   1   9
ATOM      6  C   UNL     1       5.530   5.235  16.027  0.00  0.00    +0.000 A 
ATOM      7  C   UNL     1       4.727   4.364  16.802  0.00  0.00    +0.000 A 
ATOM      8  C   UNL     1       3.848   4.855  17.766  0.00  0.00    +0.000 A 
ATOM      9  C   UNL     1       3.737   6.230  18.004  0.00  0.00    +0.000 A 
ATOM     10  C   UNL     1       4.531   7.110  17.258  0.00  0.00    +0.000 A 
ATOM     11  C   UNL     1       5.407   6.622  16.282  0.00  0.00    +0.000 A 
BRANCH   6  13
ATOM     12  N   UNL     1       6.268   3.580  14.373  0.00  0.00    +0.000 NA
ATOM     13  C   UNL     1       6.471   4.707  14.966  0.00  0.00    +0.000 C 
ATOM     14  N   UNL     1       7.625   5.438  14.566  0.00  0.00    +0.000 N 
ATOM     15  H   UNL     1       5.477   2.950  14.548  0.00  0.00    +0.000 HD
ATOM     16  H   UNL     1       8.252   5.045  13.848  0.00  0.00    +0.000 HD
ATOM     17  H   UNL     1       7.884   6.348  14.962  0.00  0.00    +0.000 HD
ENDBRANCH   6  13
ENDBRANCH   1   9
BRANCH   3  18
ATOM     18  C   UNL     1       0.610   8.972  20.906  0.00  0.00    +0.000 A 
ATOM     19  C   UNL     1       0.253   8.819  22.257  0.00  0.00    +0.000 A 
ATOM     20  C   UNL     1      -0.467   9.794  22.942  0.00  0.00    +0.000 A 
ATOM     21  C   UNL     1      -0.868  10.981  22.311  0.00  0.00    +0.000 A 
ATOM     22  C   UNL     1      -0.527  11.136  20.950  0.00  0.00    +0.000 A 
ATOM     23  C   UNL     1       0.196  10.165  20.223  0.00  0.00    +0.000 A 
BRANCH  21  24
ATOM     24  C   UNL     1      -1.650  12.058  23.046  0.00  0.00    +0.000 C 
ATOM     25  N   UNL     1      -2.830  11.836  23.517  0.00  0.00    +0.000 NA
ATOM     26  N   UNL     1      -1.117  13.364  23.258  0.00  0.00    +0.000 N 
ATOM     27  H   UNL     1      -3.340  10.950  23.447  0.00  0.00    +0.000 HD
ATOM     28  H   UNL     1      -0.193  13.667  22.933  0.00  0.00    +0.000 HD
ATOM     29  H   UNL     1      -1.677  14.065  23.767  0.00  0.00    +0.000 HD
ENDBRANCH  21  24
BRANCH  23  30
ATOM     30  N   UNL     1       0.425  10.424  18.825  0.00  0.00    +0.000 N 
ATOM     31  O   UNL     1       1.400  10.995  18.452  0.00  0.00    +0.000 OA
ATOM     32  O   UNL     1      -0.335   9.853  17.913  0.00  0.00    +0.000 OA
ENDBRANCH  23  30
ENDBRANCH   3  18
TORSDOF 5
ENDMDL
MODEL 9
REMARK VINA RESULT:      -7.9      1.657      2.264
REMARK  Name = 
REMARK  5 active torsions:
REMARK  status: ('A' for Active; 'I' for Inactive)
REMARK    1  A    between atoms: C_2  and  C_4
REMARK    2  A    between atoms: C_7  and  C_8
REMARK    3  A    between atoms: C_10  and  C_11
REMARK    4  A    between atoms: C_14  and  C_15
REMARK    5  A    between atoms: C_19  and  N_20
REMARK                            x       y       z     vdW  Elec       q    Type
REMARK                         _______ _______ _______ _____ _____    ______ ____
ROOT
ATOM      1  C   UNL     1       0.926   9.419  19.327  0.00  0.00    +0.000 A 
ATOM      2  C   UNL     1       1.859   8.417  19.522  0.00  0.00    +0.000 A 
ATOM      3  C   UNL     1       2.277   8.081  18.241  0.00  0.00    +0.000 A 
ATOM      4  O   UNL     1       1.599   8.821  17.397  0.00  0.00    +0.000 OA
ATOM      5  N   UNL     1       0.794   9.638  18.007  0.00  0.00    +0.000 NA
ENDROOT
BRANCH   1   9
ATOM      6  C   UNL     1      -1.330  11.663  22.258  0.00  0.00    +0.000 A 
ATOM      7  C   UNL     1      -1.251  12.067  20.904  0.00  0.00    +0.000 A 
ATOM      8  C   UNL     1      -0.519  11.334  19.971  0.00  0.00    +0.000 A 
ATOM      9  C   UNL     1       0.170  10.175  20.348  0.00  0.00    +0.000 A 
ATOM     10  C   UNL     1       0.116   9.763  21.685  0.00  0.00    +0.000 A 
ATOM     11  C   UNL     1      -0.626  10.490  22.623  0.00  0.00    +0.000 A 
BRANCH   6  13
ATOM     12  N   UNL     1      -1.748  13.588  23.719  0.00  0.00    +0.000 NA
ATOM     13  C   UNL     1      -2.140  12.445  23.270  0.00  0.00    +0.000 C 
ATOM     14  N   UNL     1      -3.381  11.956  23.766  0.00  0.00    +0.000 N 
ATOM     15  H   UNL     1      -0.884  14.070  23.448  0.00  0.00    +0.000 HD
ATOM     16  H   UNL     1      -3.902  12.509  24.463  0.00  0.00    +0.000 HD
ATOM     17  H   UNL     1      -3.795  11.064  23.475  0.00  0.00    +0.000 HD
ENDBRANCH   6  13
ENDBRANCH   1   9
BRANCH   3  18
ATOM     18  C   UNL     1       3.291   7.052  17.854  0.00  0.00    +0.000 A 
ATOM     19  C   UNL     1       4.305   7.452  16.965  0.00  0.00    +0.000 A 
ATOM     20  C   UNL     1       5.332   6.592  16.586  0.00  0.00    +0.000 A 
ATOM     21  C   UNL     1       5.403   5.281  17.080  0.00  0.00    +0.000 A 
ATOM     22  C   UNL     1       4.381   4.866  17.961  0.00  0.00    +0.000 A 
ATOM     23  C   UNL     1       3.322   5.710  18.361  0.00  0.00    +0.000 A 
BRANCH  21  24
ATOM     24  C   UNL     1       6.521   4.331  16.681  0.00  0.00    +0.000 C 
ATOM     25  N   UNL     1       7.680   4.372  17.248  0.00  0.00    +0.000 NA
ATOM     26  N   UNL     1       6.345   3.344  15.667  0.00  0.00    +0.000 N 
ATOM     27  H   UNL     1       7.954   5.019  17.993  0.00  0.00    +0.000 HD
ATOM     28  H   UNL     1       5.475   3.211  15.140  0.00  0.00    +0.000 HD
ATOM     29  H   UNL     1       7.126   2.715  15.429  0.00  0.00    +0.000 HD
ENDBRANCH  21  24
BRANCH  23  30
ATOM     30  N   UNL     1       2.314   5.139  19.218  0.00  0.00    +0.000 N 
ATOM     31  O   UNL     1       1.438   4.464  18.780  0.00  0.00    +0.000 OA
ATOM     32  O   UNL     1       2.458   5.180  20.526  0.00  0.00    +0.000 OA
ENDBRANCH  23  30
ENDBRANCH   3  18
TORSDOF 5
ENDMDL
