MODEL 1
REMARK VINA RESULT:      -7.3      0.000      0.000
REMARK  Name = 
REMARK  6 active torsions:
REMARK  status: ('A' for Active; 'I' for Inactive)
REMARK    1  A    between atoms: C_1  and  C_2
REMARK    2  A    between atoms: C_2  and  C_3
REMARK    3  A    between atoms: C_3  and  C_4
REMARK    4  A    between atoms: C_12  and  O_13
REMARK    5  A    between atoms: C_15  and  C_16
REMARK    6  A    between atoms: C_15  and  C_17
REMARK                            x       y       z     vdW  Elec       q    Type
REMARK                         _______ _______ _______ _____ _____    ______ ____
ROOT
ATOM      1  C   UNL     1       5.820   5.678  16.821  0.00  0.00    +0.000 A 
ATOM      2  N   UNL     1       5.438   6.804  16.184  0.00  0.00    +0.000 NA
ATOM      3  O   UNL     1       4.217   7.180  16.754  0.00  0.00    +0.000 OA
ATOM      4  C   UNL     1       3.886   6.267  17.692  0.00  0.00    +0.000 A 
ATOM      5  C   UNL     1       4.863   5.314  17.768  0.00  0.00    +0.000 A 
ATOM      6  C   UNL     1       4.672   4.229  18.729  0.00  0.00    +0.000 A 
ATOM      7  O   UNL     1       5.534   3.265  19.134  0.00  0.00    +0.000 OA
ATOM      8  N   UNL     1       4.898   2.471  20.089  0.00  0.00    +0.000 NA
ATOM      9  C   UNL     1       3.675   2.985  20.184  0.00  0.00    +0.000 A 
ATOM     10  C   UNL     1       3.447   4.090  19.359  0.00  0.00    +0.000 A 
ATOM     11  C   UNL     1       2.221   4.943  19.047  0.00  0.00    +0.000 C 
ATOM     12  C   UNL     1       1.326   5.124  20.284  0.00  0.00    +0.000 C 
ATOM     13  C   UNL     1       1.397   4.244  17.941  0.00  0.00    +0.000 C 
ATOM     14  C   UNL     1       2.648   6.376  18.514  0.00  0.00    +0.000 C 
ENDROOT
BRANCH   9  15
ATOM     15  O   UNL     1       2.842   2.370  21.023  0.00  0.00    +0.000 OA
ATOM     16  H   UNL     1       2.024   2.897  21.017  0.00  0.00    +0.000 HD
ENDBRANCH   9  15
BRANCH   1  17
ATOM     17  C   UNL     1       7.065   4.958  16.440  0.00  0.00    +0.000 C 
BRANCH  17  19
ATOM     18  C   UNL     1       6.088   3.886  14.387  0.00  0.00    +0.000 C 
ATOM     19  C   UNL     1       7.206   4.760  14.932  0.00  0.00    +0.000 C 
ENDBRANCH  17  19
ENDBRANCH   1  17
TORSDOF 3
ENDMDL
MODEL 2
REMARK VINA RESULT:      -7.3      2.294      5.046
REMARK  Name = 
REMARK  6 active torsions:
REMARK  status: ('A' for Active; 'I' for Inactive)
REMARK    1  A    between atoms: C_1  and  C_2
REMARK    2  A    between atoms: C_2  and  C_3
REMARK    3  A    between atoms: C_3  and  C_4
REMARK    4  A    between atoms: C_12  and  O_13
REMARK    5  A    between atoms: C_15  and  C_16
REMARK    6  A    between atoms: C_15  and  C_17
REMARK                            x       y       z     vdW  Elec       q    Type
REMARK                         _______ _______ _______ _____ _____    ______ ____
ROOT
ATOM      1  C   UNL     1       3.007   3.109  19.011  0.00  0.00    +0.000 A 
ATOM      2  N   UNL     1       2.145   2.640  18.086  0.00  0.00    +0.000 NA
ATOM      3  O   UNL     1       2.695   2.965  16.841  0.00  0.00    +0.000 OA
ATOM      4  C   UNL     1       3.850   3.636  17.047  0.00  0.00    +0.000 A 
ATOM      5  C   UNL     1       4.082   3.743  18.389  0.00  0.00    +0.000 A 
ATOM      6  C   UNL     1       5.290   4.452  18.808  0.00  0.00    +0.000 A 
ATOM      7  O   UNL     1       5.853   4.560  20.036  0.00  0.00    +0.000 OA
ATOM      8  N   UNL     1       7.017   5.322  19.929  0.00  0.00    +0.000 NA
ATOM      9  C   UNL     1       7.073   5.657  18.642  0.00  0.00    +0.000 A 
ATOM     10  C   UNL     1       6.024   5.155  17.867  0.00  0.00    +0.000 A 
ATOM     11  C   UNL     1       5.604   5.331  16.411  0.00  0.00    +0.000 C 
ATOM     12  C   UNL     1       6.823   5.446  15.480  0.00  0.00    +0.000 C 
ATOM     13  C   UNL     1       4.766   6.624  16.287  0.00  0.00    +0.000 C 
ATOM     14  C   UNL     1       4.709   4.113  15.928  0.00  0.00    +0.000 C 
ENDROOT
BRANCH   9  15
ATOM     15  O   UNL     1       8.096   6.431  18.281  0.00  0.00    +0.000 OA
ATOM     16  H   UNL     1       7.879   7.323  18.605  0.00  0.00    +0.000 HD
ENDBRANCH   9  15
BRANCH   1  17
ATOM     17  C   UNL     1       2.722   2.985  20.466  0.00  0.00    +0.000 C 
BRANCH  17  19
ATOM     18  C   UNL     1       1.574   5.212  20.661  0.00  0.00    +0.000 C 
ATOM     19  C   UNL     1       1.451   3.715  20.893  0.00  0.00    +0.000 C 
ENDBRANCH  17  19
ENDBRANCH   1  17
TORSDOF 3
ENDMDL
MODEL 3
REMARK VINA RESULT:      -7.3      2.319      5.143
REMARK  Name = 
REMARK  6 active torsions:
REMARK  status: ('A' for Active; 'I' for Inactive)
REMARK    1  A    between atoms: C_1  and  C_2
REMARK    2  A    between atoms: C_2  and  C_3
REMARK    3  A    between atoms: C_3  and  C_4
REMARK    4  A    between atoms: C_12  and  O_13
REMARK    5  A    between atoms: C_15  and  C_16
REMARK    6  A    between atoms: C_15  and  C_17
REMARK                            x       y       z     vdW  Elec       q    Type
REMARK                         _______ _______ _______ _____ _____    ______ ____
ROOT
ATOM      1  C   UNL     1       2.360   4.083  18.788  0.00  0.00    +0.000 A 
ATOM      2  N   UNL     1       1.495   3.595  17.875  0.00  0.00    +0.000 NA
ATOM      3  O   UNL     1       2.224   3.438  16.691  0.00  0.00    +0.000 OA
ATOM      4  C   UNL     1       3.490   3.854  16.912  0.00  0.00    +0.000 A 
ATOM      5  C   UNL     1       3.617   4.261  18.210  0.00  0.00    +0.000 A 
ATOM      6  C   UNL     1       4.925   4.758  18.635  0.00  0.00    +0.000 A 
ATOM      7  O   UNL     1       5.380   5.059  19.876  0.00  0.00    +0.000 OA
ATOM      8  N   UNL     1       6.709   5.474  19.776  0.00  0.00    +0.000 NA
ATOM      9  C   UNL     1       6.970   5.429  18.472  0.00  0.00    +0.000 A 
ATOM     10  C   UNL     1       5.902   4.994  17.682  0.00  0.00    +0.000 A 
ATOM     11  C   UNL     1       5.681   4.864  16.178  0.00  0.00    +0.000 C 
ATOM     12  C   UNL     1       6.968   4.441  15.451  0.00  0.00    +0.000 C 
ATOM     13  C   UNL     1       5.229   6.234  15.622  0.00  0.00    +0.000 C 
ATOM     14  C   UNL     1       4.545   3.801  15.862  0.00  0.00    +0.000 C 
ENDROOT
BRANCH   9  15
ATOM     15  O   UNL     1       8.190   5.820  18.104  0.00  0.00    +0.000 OA
ATOM     16  H   UNL     1       8.321   6.694  18.512  0.00  0.00    +0.000 HD
ENDBRANCH   9  15
BRANCH   1  17
ATOM     17  C   UNL     1       1.919   4.423  20.167  0.00  0.00    +0.000 C 
BRANCH  17  19
ATOM     18  C   UNL     1       1.866   2.497  21.781  0.00  0.00    +0.000 C 
ATOM     19  C   UNL     1       1.056   3.337  20.806  0.00  0.00    +0.000 C 
ENDBRANCH  17  19
ENDBRANCH   1  17
TORSDOF 3
ENDMDL
MODEL 4
REMARK VINA RESULT:      -7.1      0.897      1.516
REMARK  Name = 
REMARK  6 active torsions:
REMARK  status: ('A' for Active; 'I' for Inactive)
REMARK    1  A    between atoms: C_1  and  C_2
REMARK    2  A    between atoms: C_2  and  C_3
REMARK    3  A    between atoms: C_3  and  C_4
REMARK    4  A    between atoms: C_12  and  O_13
REMARK    5  A    between atoms: C_15  and  C_16
REMARK    6  A    between atoms: C_15  and  C_17
REMARK                            x       y       z     vdW  Elec       q    Type
REMARK                         _______ _______ _______ _____ _____    ______ ____
ROOT
ATOM      1  C   UNL     1       5.731   5.470  17.189  0.00  0.00    +0.000 A 
ATOM      2  N   UNL     1       5.360   6.577  16.513  0.00  0.00    +0.000 NA
ATOM      3  O   UNL     1       4.098   6.929  17.006  0.00  0.00    +0.000 OA
ATOM      4  C   UNL     1       3.735   6.021  17.937  0.00  0.00    +0.000 A 
ATOM      5  C   UNL     1       4.729   5.095  18.084  0.00  0.00    +0.000 A 
ATOM      6  C   UNL     1       4.510   4.020  19.050  0.00  0.00    +0.000 A 
ATOM      7  O   UNL     1       5.369   3.083  19.519  0.00  0.00    +0.000 OA
ATOM      8  N   UNL     1       4.699   2.287  20.448  0.00  0.00    +0.000 NA
ATOM      9  C   UNL     1       3.459   2.771  20.463  0.00  0.00    +0.000 A 
ATOM     10  C   UNL     1       3.253   3.858  19.609  0.00  0.00    +0.000 A 
ATOM     11  C   UNL     1       2.027   4.676  19.213  0.00  0.00    +0.000 C 
ATOM     12  C   UNL     1       1.058   4.851  20.394  0.00  0.00    +0.000 C 
ATOM     13  C   UNL     1       1.286   3.940  18.073  0.00  0.00    +0.000 C 
ATOM     14  C   UNL     1       2.450   6.111  18.684  0.00  0.00    +0.000 C 
ENDROOT
BRANCH   9  15
ATOM     15  O   UNL     1       2.595   2.147  21.262  0.00  0.00    +0.000 OA
ATOM     16  H   UNL     1       2.625   1.209  21.001  0.00  0.00    +0.000 HD
ENDBRANCH   9  15
BRANCH   1  17
ATOM     17  C   UNL     1       7.013   4.776  16.892  0.00  0.00    +0.000 C 
BRANCH  17  19
ATOM     18  C   UNL     1       7.909   5.993  18.901  0.00  0.00    +0.000 C 
ATOM     19  C   UNL     1       7.949   4.703  18.097  0.00  0.00    +0.000 C 
ENDBRANCH  17  19
ENDBRANCH   1  17
TORSDOF 3
ENDMDL
MODEL 5
REMARK VINA RESULT:      -7.0      2.276      3.232
REMARK  Name = 
REMARK  6 active torsions:
REMARK  status: ('A' for Active; 'I' for Inactive)
REMARK    1  A    between atoms: C_1  and  C_2
REMARK    2  A    between atoms: C_2  and  C_3
REMARK    3  A    between atoms: C_3  and  C_4
REMARK    4  A    between atoms: C_12  and  O_13
REMARK    5  A    between atoms: C_15  and  C_16
REMARK    6  A    between atoms: C_15  and  C_17
REMARK                            x       y       z     vdW  Elec       q    Type
REMARK                         _______ _______ _______ _____ _____    ______ ____
ROOT
ATOM      1  C   UNL     1       5.688   5.667  16.799  0.00  0.00    +0.000 A 
ATOM      2  N   UNL     1       6.302   4.800  15.967  0.00  0.00    +0.000 NA
ATOM      3  O   UNL     1       5.599   3.595  16.072  0.00  0.00    +0.000 OA
ATOM      4  C   UNL     1       4.606   3.758  16.973  0.00  0.00    +0.000 A 
ATOM      5  C   UNL     1       4.626   5.039  17.448  0.00  0.00    +0.000 A 
ATOM      6  C   UNL     1       3.623   5.402  18.448  0.00  0.00    +0.000 A 
ATOM      7  O   UNL     1       3.301   6.616  18.956  0.00  0.00    +0.000 OA
ATOM      8  N   UNL     1       2.258   6.456  19.870  0.00  0.00    +0.000 NA
ATOM      9  C   UNL     1       2.031   5.144  19.883  0.00  0.00    +0.000 A 
ATOM     10  C   UNL     1       2.848   4.407  19.022  0.00  0.00    +0.000 A 
ATOM     11  C   UNL     1       3.032   2.916  18.754  0.00  0.00    +0.000 C 
ATOM     12  C   UNL     1       1.701   2.153  18.860  0.00  0.00    +0.000 C 
ATOM     13  C   UNL     1       4.014   2.340  19.800  0.00  0.00    +0.000 C 
ATOM     14  C   UNL     1       3.645   2.671  17.311  0.00  0.00    +0.000 C 
ENDROOT
BRANCH   9  15
ATOM     15  O   UNL     1       1.084   4.721  20.719  0.00  0.00    +0.000 OA
ATOM     16  H   UNL     1       1.267   5.160  21.569  0.00  0.00    +0.000 HD
ENDBRANCH   9  15
BRANCH   1  17
ATOM     17  C   UNL     1       6.198   7.052  16.985  0.00  0.00    +0.000 C 
BRANCH  17  19
ATOM     18  C   UNL     1       8.049   8.533  17.818  0.00  0.00    +0.000 C 
ATOM     19  C   UNL     1       7.540   7.105  17.711  0.00  0.00    +0.000 C 
ENDBRANCH  17  19
ENDBRANCH   1  17
TORSDOF 3
ENDMDL
MODEL 6
REMARK VINA RESULT:      -6.9      1.398      1.546
REMARK  Name = 
REMARK  6 active torsions:
REMARK  status: ('A' for Active; 'I' for Inactive)
REMARK    1  A    between atoms: C_1  and  C_2
REMARK    2  A    between atoms: C_2  and  C_3
REMARK    3  A    between atoms: C_3  and  C_4
REMARK    4  A    between atoms: C_12  and  O_13
REMARK    5  A    between atoms: C_15  and  C_16
REMARK    6  A    between atoms: C_15  and  C_17
REMARK                            x       y       z     vdW  Elec       q    Type
REMARK                         _______ _______ _______ _____ _____    ______ ____
ROOT
ATOM      1  C   UNL     1       5.515   4.726  15.647  0.00  0.00    +0.000 A 
ATOM      2  N   UNL     1       5.729   6.032  15.383  0.00  0.00    +0.000 NA
ATOM      3  O   UNL     1       5.041   6.746  16.369  0.00  0.00    +0.000 OA
ATOM      4  C   UNL     1       4.417   5.863  17.179  0.00  0.00    +0.000 A 
ATOM      5  C   UNL     1       4.691   4.591  16.764  0.00  0.00    +0.000 A 
ATOM      6  C   UNL     1       4.091   3.492  17.519  0.00  0.00    +0.000 A 
ATOM      7  O   UNL     1       4.319   2.159  17.444  0.00  0.00    +0.000 OA
ATOM      8  N   UNL     1       3.518   1.514  18.388  0.00  0.00    +0.000 NA
ATOM      9  C   UNL     1       2.826   2.498  18.958  0.00  0.00    +0.000 A 
ATOM     10  C   UNL     1       3.121   3.773  18.467  0.00  0.00    +0.000 A 
ATOM     11  C   UNL     1       2.549   5.164  18.722  0.00  0.00    +0.000 C 
ATOM     12  C   UNL     1       2.129   5.343  20.190  0.00  0.00    +0.000 C 
ATOM     13  C   UNL     1       1.306   5.363  17.825  0.00  0.00    +0.000 C 
ATOM     14  C   UNL     1       3.609   6.288  18.355  0.00  0.00    +0.000 C 
ENDROOT
BRANCH   9  15
ATOM     15  O   UNL     1       1.945   2.133  19.889  0.00  0.00    +0.000 OA
ATOM     16  H   UNL     1       1.067   2.280  19.493  0.00  0.00    +0.000 HD
ENDBRANCH   9  15
BRANCH   1  17
ATOM     17  C   UNL     1       6.062   3.660  14.765  0.00  0.00    +0.000 C 
BRANCH  17  19
ATOM     18  C   UNL     1       5.870   3.299  12.286  0.00  0.00    +0.000 C 
ATOM     19  C   UNL     1       6.461   4.170  13.382  0.00  0.00    +0.000 C 
ENDBRANCH  17  19
ENDBRANCH   1  17
TORSDOF 3
ENDMDL
MODEL 7
REMARK VINA RESULT:      -6.8      1.260      1.779
REMARK  Name = 
REMARK  6 active torsions:
REMARK  status: ('A' for Active; 'I' for Inactive)
REMARK    1  A    between atoms: C_1  and  C_2
REMARK    2  A    between atoms: C_2  and  C_3
REMARK    3  A    between atoms: C_3  and  C_4
REMARK    4  A    between atoms: C_12  and  O_13
REMARK    5  A    between atoms: C_15  and  C_16
REMARK    6  A    between atoms: C_15  and  C_17
REMARK                            x       y       z     vdW  Elec       q    Type
REMARK                         _______ _______ _______ _____ _____    ______ ____
ROOT
ATOM      1  C   UNL     1       5.328   6.439  17.437  0.00  0.00    +0.000 A 
ATOM      2  N   UNL     1       4.710   7.530  16.937  0.00  0.00    +0.000 NA
ATOM      3  O   UNL     1       3.411   7.513  17.454  0.00  0.00    +0.000 OA
ATOM      4  C   UNL     1       3.272   6.412  18.224  0.00  0.00    +0.000 A 
ATOM      5  C   UNL     1       4.448   5.716  18.242  0.00  0.00    +0.000 A 
ATOM      6  C   UNL     1       4.487   4.480  19.021  0.00  0.00    +0.000 A 
ATOM      7  O   UNL     1       5.540   3.694  19.353  0.00  0.00    +0.000 OA
ATOM      8  N   UNL     1       5.077   2.633  20.132  0.00  0.00    +0.000 NA
ATOM      9  C   UNL     1       3.762   2.823  20.199  0.00  0.00    +0.000 A 
ATOM     10  C   UNL     1       3.307   3.959  19.524  0.00  0.00    +0.000 A 
ATOM     11  C   UNL     1       1.924   4.538  19.238  0.00  0.00    +0.000 C 
ATOM     12  C   UNL     1       0.959   4.306  20.413  0.00  0.00    +0.000 C 
ATOM     13  C   UNL     1       1.346   3.847  17.982  0.00  0.00    +0.000 C 
ATOM     14  C   UNL     1       2.011   6.096  18.950  0.00  0.00    +0.000 C 
ENDROOT
BRANCH   9  15
ATOM     15  O   UNL     1       3.070   1.905  20.873  0.00  0.00    +0.000 OA
ATOM     16  H   UNL     1       3.489   1.052  20.663  0.00  0.00    +0.000 HD
ENDBRANCH   9  15
BRANCH   1  17
ATOM     17  C   UNL     1       6.727   6.102  17.059  0.00  0.00    +0.000 C 
BRANCH  17  19
ATOM     18  C   UNL     1       8.002   8.120  17.845  0.00  0.00    +0.000 C 
ATOM     19  C   UNL     1       7.761   6.633  18.049  0.00  0.00    +0.000 C 
ENDBRANCH  17  19
ENDBRANCH   1  17
TORSDOF 3
ENDMDL
MODEL 8
REMARK VINA RESULT:      -6.7      1.892      5.291
REMARK  Name = 
REMARK  6 active torsions:
REMARK  status: ('A' for Active; 'I' for Inactive)
REMARK    1  A    between atoms: C_1  and  C_2
REMARK    2  A    between atoms: C_2  and  C_3
REMARK    3  A    between atoms: C_3  and  C_4
REMARK    4  A    between atoms: C_12  and  O_13
REMARK    5  A    between atoms: C_15  and  C_16
REMARK    6  A    between atoms: C_15  and  C_17
REMARK                            x       y       z     vdW  Elec       q    Type
REMARK                         _______ _______ _______ _____ _____    ______ ____
ROOT
ATOM      1  C   UNL     1       3.184   3.222  20.444  0.00  0.00    +0.000 A 
ATOM      2  N   UNL     1       4.098   2.233  20.519  0.00  0.00    +0.000 NA
ATOM      3  O   UNL     1       5.205   2.668  19.783  0.00  0.00    +0.000 OA
ATOM      4  C   UNL     1       4.922   3.884  19.267  0.00  0.00    +0.000 A 
ATOM      5  C   UNL     1       3.671   4.267  19.660  0.00  0.00    +0.000 A 
ATOM      6  C   UNL     1       3.184   5.562  19.187  0.00  0.00    +0.000 A 
ATOM      7  O   UNL     1       2.079   6.260  19.547  0.00  0.00    +0.000 OA
ATOM      8  N   UNL     1       2.056   7.459  18.833  0.00  0.00    +0.000 NA
ATOM      9  C   UNL     1       3.135   7.400  18.057  0.00  0.00    +0.000 A 
ATOM     10  C   UNL     1       3.898   6.240  18.213  0.00  0.00    +0.000 A 
ATOM     11  C   UNL     1       5.131   5.680  17.510  0.00  0.00    +0.000 C 
ATOM     12  C   UNL     1       6.106   6.797  17.102  0.00  0.00    +0.000 C 
ATOM     13  C   UNL     1       4.679   4.931  16.235  0.00  0.00    +0.000 C 
ATOM     14  C   UNL     1       5.898   4.651  18.443  0.00  0.00    +0.000 C 
ENDROOT
BRANCH   9  15
ATOM     15  O   UNL     1       3.324   8.433  17.236  0.00  0.00    +0.000 OA
ATOM     16  H   UNL     1       3.486   9.201  17.812  0.00  0.00    +0.000 HD
ENDBRANCH   9  15
BRANCH   1  17
ATOM     17  C   UNL     1       1.845   3.086  21.078  0.00  0.00    +0.000 C 
BRANCH  17  19
ATOM     18  C   UNL     1       0.876   2.241  18.918  0.00  0.00    +0.000 C 
ATOM     19  C   UNL     1       0.694   3.203  20.080  0.00  0.00    +0.000 C 
ENDBRANCH  17  19
ENDBRANCH   1  17
TORSDOF 3
ENDMDL
MODEL 9
REMARK VINA RESULT:      -6.7      2.230      4.979
REMARK  Name = 
REMARK  6 active torsions:
REMARK  status: ('A' for Active; 'I' for Inactive)
REMARK    1  A    between atoms: C_1  and  C_2
REMARK    2  A    between atoms: C_2  and  C_3
REMARK    3  A    between atoms: C_3  and  C_4
REMARK    4  A    between atoms: C_12  and  O_13
REMARK    5  A    between atoms: C_15  and  C_16
REMARK    6  A    between atoms: C_15  and  C_17
REMARK                            x       y       z     vdW  Elec       q    Type
REMARK                         _______ _______ _______ _____ _____    ______ ____
ROOT
ATOM      1  C   UNL     1       2.374   4.276  19.179  0.00  0.00    +0.000 A 
ATOM      2  N   UNL     1       1.406   3.822  18.356  0.00  0.00    +0.000 NA
ATOM      3  O   UNL     1       2.022   3.589  17.122  0.00  0.00    +0.000 OA
ATOM      4  C   UNL     1       3.325   3.928  17.225  0.00  0.00    +0.000 A 
ATOM      5  C   UNL     1       3.586   4.358  18.495  0.00  0.00    +0.000 A 
ATOM      6  C   UNL     1       4.954   4.780  18.795  0.00  0.00    +0.000 A 
ATOM      7  O   UNL     1       5.529   5.082  19.984  0.00  0.00    +0.000 OA
ATOM      8  N   UNL     1       6.868   5.408  19.762  0.00  0.00    +0.000 NA
ATOM      9  C   UNL     1       7.015   5.313  18.443  0.00  0.00    +0.000 A 
ATOM     10  C   UNL     1       5.860   4.928  17.758  0.00  0.00    +0.000 A 
ATOM     11  C   UNL     1       5.505   4.775  16.282  0.00  0.00    +0.000 C 
ATOM     12  C   UNL     1       6.697   4.252  15.464  0.00  0.00    +0.000 C 
ATOM     13  C   UNL     1       5.093   6.157  15.723  0.00  0.00    +0.000 C 
ATOM     14  C   UNL     1       4.282   3.781  16.093  0.00  0.00    +0.000 C 
ENDROOT
BRANCH   9  15
ATOM     15  O   UNL     1       8.221   5.615  17.964  0.00  0.00    +0.000 OA
ATOM     16  H   UNL     1       8.851   5.387  18.671  0.00  0.00    +0.000 HD
ENDBRANCH   9  15
BRANCH   1  17
ATOM     17  C   UNL     1       2.072   4.679  20.580  0.00  0.00    +0.000 C 
BRANCH  17  19
ATOM     18  C   UNL     1       2.196   7.102  19.924  0.00  0.00    +0.000 C 
ATOM     19  C   UNL     1       1.403   6.048  20.680  0.00  0.00    +0.000 C 
ENDBRANCH  17  19
ENDBRANCH   1  17
TORSDOF 3
ENDMDL
