MODEL 1
REMARK VINA RESULT:      -6.8      0.000      0.000
REMARK  Name = 
REMARK  11 active torsions:
REMARK  status: ('A' for Active; 'I' for Inactive)
REMARK    1  A    between atoms: C_1  and  C_2
REMARK    2  A    between atoms: C_8  and  C_9
REMARK    3  A    between atoms: N_16  and  C_17
REMARK    4  A    between atoms: C_17  and  C_18
REMARK    5  A    between atoms: C_18  and  C_19
REMARK    6  A    between atoms: C_18  and  C_20
REMARK    7  A    between atoms: C_18  and  N_21
REMARK    8  A    between atoms: N_23  and  C_24
REMARK    9  A    between atoms: C_24  and  C_25
REMARK   10  A    between atoms: C_24  and  C_26
REMARK   11  A    between atoms: C_24  and  C_27
REMARK                            x       y       z     vdW  Elec       q    Type
REMARK                         _______ _______ _______ _____ _____    ______ ____
ROOT
ATOM      1  C   UNL     1       0.486  10.450  18.564  0.00  0.00    +0.000 A 
ATOM      2  C   UNL     1      -0.904  10.103  18.518  0.00  0.00    +0.000 A 
ATOM      3  C   UNL     1      -1.917  11.036  18.625  0.00  0.00    +0.000 A 
ATOM      4  C   UNL     1      -1.547  12.345  18.769  0.00  0.00    +0.000 A 
ATOM      5  C   UNL     1      -0.179  12.704  18.733  0.00  0.00    +0.000 A 
ATOM      6  C   UNL     1       0.119  14.099  18.940  0.00  0.00    +0.000 A 
ATOM      7  O   UNL     1      -0.823  14.854  19.183  0.00  0.00    +0.000 OA
ATOM      8  N   UNL     1       1.462  14.474  18.970  0.00  0.00    +0.000 N 
ATOM      9  C   UNL     1       2.555  13.619  18.776  0.00  0.00    +0.000 A 
ATOM     10  N   UNL     1       3.938  14.008  18.780  0.00  0.00    +0.000 N 
ATOM     11  N   UNL     1       2.280  12.320  18.629  0.00  0.00    +0.000 NA
ATOM     12  C   UNL     1       0.896  11.821  18.630  0.00  0.00    +0.000 A 
ATOM     13  H   UNL     1       4.475  13.153  18.631  0.00  0.00    +0.000 HD
ENDROOT
BRANCH   1  21
ATOM     14  C   UNL     1       1.556   5.269  20.446  0.00  0.00    +0.000 C 
ATOM     15  C   UNL     1       2.705   6.213  20.144  0.00  0.00    +0.000 C 
ATOM     16  N   UNL     1       3.581   5.692  19.083  0.00  0.00    +0.000 N 
ATOM     17  C   UNL     1       3.640   6.477  17.932  0.00  0.00    +0.000 C 
ATOM     18  O   UNL     1       4.293   6.264  16.927  0.00  0.00    +0.000 OA
ATOM     19  C   UNL     1       2.781   7.583  18.213  0.00  0.00    +0.000 A 
ATOM     20  C   UNL     1       2.246   8.746  17.675  0.00  0.00    +0.000 A 
ATOM     21  C   UNL     1       1.390   9.293  18.648  0.00  0.00    +0.000 A 
ATOM     22  N   UNL     1       1.430   8.462  19.757  0.00  0.00    +0.000 N 
ATOM     23  C   UNL     1       2.271   7.425  19.465  0.00  0.00    +0.000 A 
ATOM     24  H   UNL     1       4.143   4.858  19.158  0.00  0.00    +0.000 HD
ATOM     25  H   UNL     1       0.869   8.618  20.589  0.00  0.00    +0.000 HD
ENDBRANCH   1  21
BRANCH  10  26
ATOM     26  C   UNL     1       4.934  15.184  18.728  0.00  0.00    +0.000 C 
ATOM     27  C   UNL     1       4.563  16.615  18.262  0.00  0.00    +0.000 C 
ATOM     28  C   UNL     1       5.550  15.382  20.160  0.00  0.00    +0.000 C 
ATOM     29  C   UNL     1       6.147  14.820  17.825  0.00  0.00    +0.000 C 
ENDBRANCH  10  26
BRANCH   8  30
ATOM     30  C   UNL     1       1.575  15.784  19.510  0.00  0.00    +0.000 C 
BRANCH  30  31
ATOM     31  C   UNL     1       1.606  15.800  21.071  0.00  0.00    +0.000 C 
ATOM     32  C   UNL     1       2.088  14.465  21.663  0.00  0.00    +0.000 C 
ATOM     33  C   UNL     1       2.477  17.010  21.419  0.00  0.00    +0.000 C 
BRANCH  31  34
ATOM     34  N   UNL     1       0.304  16.015  21.743  0.00  0.00    +0.000 NA
ATOM     35  H   UNL     1       0.419  16.672  22.518  0.00  0.00    +0.000 HD
ATOM     36  H   UNL     1       0.019  15.142  22.197  0.00  0.00    +0.000 HD
ENDBRANCH  31  34
ENDBRANCH  30  31
ENDBRANCH   8  30
TORSDOF 5
ENDMDL
MODEL 2
REMARK VINA RESULT:      -6.5      5.390      7.320
REMARK  Name = 
REMARK  11 active torsions:
REMARK  status: ('A' for Active; 'I' for Inactive)
REMARK    1  A    between atoms: C_1  and  C_2
REMARK    2  A    between atoms: C_8  and  C_9
REMARK    3  A    between atoms: N_16  and  C_17
REMARK    4  A    between atoms: C_17  and  C_18
REMARK    5  A    between atoms: C_18  and  C_19
REMARK    6  A    between atoms: C_18  and  C_20
REMARK    7  A    between atoms: C_18  and  N_21
REMARK    8  A    between atoms: N_23  and  C_24
REMARK    9  A    between atoms: C_24  and  C_25
REMARK   10  A    between atoms: C_24  and  C_26
REMARK   11  A    between atoms: C_24  and  C_27
REMARK                            x       y       z     vdW  Elec       q    Type
REMARK                         _______ _______ _______ _____ _____    ______ ____
ROOT
ATOM      1  C   UNL     1      -5.745  12.170  19.669  0.00  0.00    +0.000 A 
ATOM      2  C   UNL     1      -6.919  11.369  19.853  0.00  0.00    +0.000 A 
ATOM      3  C   UNL     1      -7.695  11.422  20.995  0.00  0.00    +0.000 A 
ATOM      4  C   UNL     1      -7.309  12.297  21.973  0.00  0.00    +0.000 A 
ATOM      5  C   UNL     1      -6.199  13.150  21.764  0.00  0.00    +0.000 A 
ATOM      6  C   UNL     1      -5.836  14.005  22.866  0.00  0.00    +0.000 A 
ATOM      7  O   UNL     1      -6.478  13.890  23.911  0.00  0.00    +0.000 OA
ATOM      8  N   UNL     1      -4.710  14.813  22.711  0.00  0.00    +0.000 N 
ATOM      9  C   UNL     1      -3.917  14.900  21.559  0.00  0.00    +0.000 A 
ATOM     10  N   UNL     1      -2.773  15.752  21.389  0.00  0.00    +0.000 N 
ATOM     11  N   UNL     1      -4.227  14.075  20.555  0.00  0.00    +0.000 NA
ATOM     12  C   UNL     1      -5.370  13.153  20.642  0.00  0.00    +0.000 A 
ATOM     13  H   UNL     1      -2.414  15.563  20.453  0.00  0.00    +0.000 HD
ENDROOT
BRANCH   1  21
ATOM     14  C   UNL     1      -1.085   9.948  17.463  0.00  0.00    +0.000 C 
ATOM     15  C   UNL     1      -1.858  10.998  16.687  0.00  0.00    +0.000 C 
ATOM     16  N   UNL     1      -2.361  10.477  15.406  0.00  0.00    +0.000 N 
ATOM     17  C   UNL     1      -3.750  10.464  15.283  0.00  0.00    +0.000 C 
ATOM     18  O   UNL     1      -4.402  10.089  14.325  0.00  0.00    +0.000 OA
ATOM     19  C   UNL     1      -4.221  11.003  16.519  0.00  0.00    +0.000 A 
ATOM     20  C   UNL     1      -5.368  11.304  17.240  0.00  0.00    +0.000 A 
ATOM     21  C   UNL     1      -4.951  11.807  18.485  0.00  0.00    +0.000 A 
ATOM     22  N   UNL     1      -3.565  11.812  18.493  0.00  0.00    +0.000 N 
ATOM     23  C   UNL     1      -3.144  11.308  17.293  0.00  0.00    +0.000 A 
ATOM     24  H   UNL     1      -1.780  10.181  14.637  0.00  0.00    +0.000 HD
ATOM     25  H   UNL     1      -3.014  12.097  19.296  0.00  0.00    +0.000 HD
ENDBRANCH   1  21
BRANCH  10  26
ATOM     26  C   UNL     1      -1.980  16.952  21.945  0.00  0.00    +0.000 C 
ATOM     27  C   UNL     1      -0.940  16.849  23.089  0.00  0.00    +0.000 C 
ATOM     28  C   UNL     1      -1.199  17.628  20.760  0.00  0.00    +0.000 C 
ATOM     29  C   UNL     1      -2.956  18.053  22.451  0.00  0.00    +0.000 C 
ENDBRANCH  10  26
BRANCH   8  30
ATOM     30  C   UNL     1      -4.313  15.315  23.980  0.00  0.00    +0.000 C 
BRANCH  30  31
ATOM     31  C   UNL     1      -3.351  14.352  24.744  0.00  0.00    +0.000 C 
ATOM     32  C   UNL     1      -2.369  13.635  23.804  0.00  0.00    +0.000 C 
ATOM     33  C   UNL     1      -2.694  15.240  25.806  0.00  0.00    +0.000 C 
BRANCH  31  34
ATOM     34  N   UNL     1      -3.995  13.236  25.473  0.00  0.00    +0.000 NA
ATOM     35  H   UNL     1      -4.246  12.493  24.817  0.00  0.00    +0.000 HD
ATOM     36  H   UNL     1      -4.896  13.558  25.841  0.00  0.00    +0.000 HD
ENDBRANCH  31  34
ENDBRANCH  30  31
ENDBRANCH   8  30
TORSDOF 5
ENDMDL
MODEL 3
REMARK VINA RESULT:      -6.5      4.396      6.325
REMARK  Name = 
REMARK  11 active torsions:
REMARK  status: ('A' for Active; 'I' for Inactive)
REMARK    1  A    between atoms: C_1  and  C_2
REMARK    2  A    between atoms: C_8  and  C_9
REMARK    3  A    between atoms: N_16  and  C_17
REMARK    4  A    between atoms: C_17  and  C_18
REMARK    5  A    between atoms: C_18  and  C_19
REMARK    6  A    between atoms: C_18  and  C_20
REMARK    7  A    between atoms: C_18  and  N_21
REMARK    8  A    between atoms: N_23  and  C_24
REMARK    9  A    between atoms: C_24  and  C_25
REMARK   10  A    between atoms: C_24  and  C_26
REMARK   11  A    between atoms: C_24  and  C_27
REMARK                            x       y       z     vdW  Elec       q    Type
REMARK                         _______ _______ _______ _____ _____    ______ ____
ROOT
ATOM      1  C   UNL     1      -2.965  11.518  18.721  0.00  0.00    +0.000 A 
ATOM      2  C   UNL     1      -3.751  11.049  17.618  0.00  0.00    +0.000 A 
ATOM      3  C   UNL     1      -5.089  11.356  17.462  0.00  0.00    +0.000 A 
ATOM      4  C   UNL     1      -5.661  12.155  18.413  0.00  0.00    +0.000 A 
ATOM      5  C   UNL     1      -4.872  12.689  19.459  0.00  0.00    +0.000 A 
ATOM      6  C   UNL     1      -5.567  13.482  20.441  0.00  0.00    +0.000 A 
ATOM      7  O   UNL     1      -6.789  13.588  20.326  0.00  0.00    +0.000 OA
ATOM      8  N   UNL     1      -4.828  13.971  21.518  0.00  0.00    +0.000 N 
ATOM      9  C   UNL     1      -3.451  13.794  21.712  0.00  0.00    +0.000 A 
ATOM     10  N   UNL     1      -2.683  14.321  22.806  0.00  0.00    +0.000 N 
ATOM     11  N   UNL     1      -2.816  13.022  20.827  0.00  0.00    +0.000 NA
ATOM     12  C   UNL     1      -3.520  12.424  19.682  0.00  0.00    +0.000 A 
ATOM     13  H   UNL     1      -1.725  13.997  22.662  0.00  0.00    +0.000 HD
ENDROOT
BRANCH   1  21
ATOM     14  C   UNL     1       0.646   8.156  21.402  0.00  0.00    +0.000 C 
ATOM     15  C   UNL     1       1.170   9.297  20.550  0.00  0.00    +0.000 C 
ATOM     16  N   UNL     1       2.002   8.815  19.436  0.00  0.00    +0.000 N 
ATOM     17  C   UNL     1       1.508   9.106  18.165  0.00  0.00    +0.000 C 
ATOM     18  O   UNL     1       2.014   8.822  17.095  0.00  0.00    +0.000 OA
ATOM     19  C   UNL     1       0.297   9.822  18.412  0.00  0.00    +0.000 A 
ATOM     20  C   UNL     1      -0.791  10.422  17.791  0.00  0.00    +0.000 A 
ATOM     21  C   UNL     1      -1.631  10.904  18.811  0.00  0.00    +0.000 A 
ATOM     22  N   UNL     1      -1.037  10.597  20.025  0.00  0.00    +0.000 N 
ATOM     23  C   UNL     1       0.126   9.930  19.757  0.00  0.00    +0.000 A 
ATOM     24  H   UNL     1       2.887   8.344  19.541  0.00  0.00    +0.000 HD
ATOM     25  H   UNL     1      -1.464  10.806  20.922  0.00  0.00    +0.000 HD
ENDBRANCH   1  21
BRANCH  10  26
ATOM     26  C   UNL     1      -2.655  15.309  23.989  0.00  0.00    +0.000 C 
ATOM     27  C   UNL     1      -3.057  14.938  25.439  0.00  0.00    +0.000 C 
ATOM     28  C   UNL     1      -1.202  15.893  24.119  0.00  0.00    +0.000 C 
ATOM     29  C   UNL     1      -3.549  16.544  23.678  0.00  0.00    +0.000 C 
ENDBRANCH  10  26
BRANCH   8  30
ATOM     30  C   UNL     1      -5.714  14.423  22.533  0.00  0.00    +0.000 C 
BRANCH  30  31
ATOM     31  C   UNL     1      -6.271  13.264  23.418  0.00  0.00    +0.000 C 
ATOM     32  C   UNL     1      -5.197  12.656  24.334  0.00  0.00    +0.000 C 
ATOM     33  C   UNL     1      -7.464  13.888  24.148  0.00  0.00    +0.000 C 
BRANCH  31  34
ATOM     34  N   UNL     1      -6.797  12.087  22.689  0.00  0.00    +0.000 NA
ATOM     35  H   UNL     1      -6.731  12.246  21.681  0.00  0.00    +0.000 HD
ATOM     36  H   UNL     1      -7.804  12.013  22.864  0.00  0.00    +0.000 HD
ENDBRANCH  31  34
ENDBRANCH  30  31
ENDBRANCH   8  30
TORSDOF 5
ENDMDL
MODEL 4
REMARK VINA RESULT:      -6.4      5.022      7.451
REMARK  Name = 
REMARK  11 active torsions:
REMARK  status: ('A' for Active; 'I' for Inactive)
REMARK    1  A    between atoms: C_1  and  C_2
REMARK    2  A    between atoms: C_8  and  C_9
REMARK    3  A    between atoms: N_16  and  C_17
REMARK    4  A    between atoms: C_17  and  C_18
REMARK    5  A    between atoms: C_18  and  C_19
REMARK    6  A    between atoms: C_18  and  C_20
REMARK    7  A    between atoms: C_18  and  N_21
REMARK    8  A    between atoms: N_23  and  C_24
REMARK    9  A    between atoms: C_24  and  C_25
REMARK   10  A    between atoms: C_24  and  C_26
REMARK   11  A    between atoms: C_24  and  C_27
REMARK                            x       y       z     vdW  Elec       q    Type
REMARK                         _______ _______ _______ _____ _____    ______ ____
ROOT
ATOM      1  C   UNL     1      -3.853  11.681  18.631  0.00  0.00    +0.000 A 
ATOM      2  C   UNL     1      -4.553  10.743  17.803  0.00  0.00    +0.000 A 
ATOM      3  C   UNL     1      -5.919  10.547  17.877  0.00  0.00    +0.000 A 
ATOM      4  C   UNL     1      -6.610  11.303  18.784  0.00  0.00    +0.000 A 
ATOM      5  C   UNL     1      -5.938  12.288  19.546  0.00  0.00    +0.000 A 
ATOM      6  C   UNL     1      -6.737  13.003  20.509  0.00  0.00    +0.000 A 
ATOM      7  O   UNL     1      -7.916  12.670  20.630  0.00  0.00    +0.000 OA
ATOM      8  N   UNL     1      -6.090  13.938  21.317  0.00  0.00    +0.000 N 
ATOM      9  C   UNL     1      -4.731  14.275  21.251  0.00  0.00    +0.000 A 
ATOM     10  N   UNL     1      -4.069  15.257  22.065  0.00  0.00    +0.000 N 
ATOM     11  N   UNL     1      -3.982  13.580  20.390  0.00  0.00    +0.000 NA
ATOM     12  C   UNL     1      -4.566  12.542  19.526  0.00  0.00    +0.000 A 
ATOM     13  H   UNL     1      -3.088  15.246  21.782  0.00  0.00    +0.000 HD
ENDROOT
BRANCH   1  21
ATOM     14  C   UNL     1       1.224  13.693  19.937  0.00  0.00    +0.000 C 
ATOM     15  C   UNL     1       1.039  12.882  18.668  0.00  0.00    +0.000 C 
ATOM     16  N   UNL     1       1.847  11.652  18.679  0.00  0.00    +0.000 N 
ATOM     17  C   UNL     1       1.113  10.467  18.633  0.00  0.00    +0.000 C 
ATOM     18  O   UNL     1       1.548   9.330  18.625  0.00  0.00    +0.000 OA
ATOM     19  C   UNL     1      -0.248  10.895  18.579  0.00  0.00    +0.000 A 
ATOM     20  C   UNL     1      -1.561  10.443  18.552  0.00  0.00    +0.000 A 
ATOM     21  C   UNL     1      -2.388  11.580  18.544  0.00  0.00    +0.000 A 
ATOM     22  N   UNL     1      -1.566  12.697  18.556  0.00  0.00    +0.000 N 
ATOM     23  C   UNL     1      -0.273  12.256  18.589  0.00  0.00    +0.000 A 
ATOM     24  H   UNL     1       2.855  11.625  18.679  0.00  0.00    +0.000 HD
ATOM     25  H   UNL     1      -1.920  13.647  18.589  0.00  0.00    +0.000 HD
ENDBRANCH   1  21
BRANCH  10  26
ATOM     26  C   UNL     1      -4.246  16.436  23.041  0.00  0.00    +0.000 C 
ATOM     27  C   UNL     1      -4.746  16.287  24.500  0.00  0.00    +0.000 C 
ATOM     28  C   UNL     1      -2.873  17.191  23.170  0.00  0.00    +0.000 C 
ATOM     29  C   UNL     1      -5.219  17.490  22.439  0.00  0.00    +0.000 C 
ENDBRANCH  10  26
BRANCH   8  30
ATOM     30  C   UNL     1      -6.934  14.285  22.405  0.00  0.00    +0.000 C 
BRANCH  30  31
ATOM     31  C   UNL     1      -6.882  13.252  23.574  0.00  0.00    +0.000 C 
ATOM     32  C   UNL     1      -5.445  12.954  24.031  0.00  0.00    +0.000 C 
ATOM     33  C   UNL     1      -7.789  13.854  24.651  0.00  0.00    +0.000 C 
BRANCH  31  34
ATOM     34  N   UNL     1      -7.425  11.907  23.275  0.00  0.00    +0.000 NA
ATOM     35  H   UNL     1      -6.658  11.237  23.181  0.00  0.00    +0.000 HD
ATOM     36  H   UNL     1      -7.856  11.924  22.346  0.00  0.00    +0.000 HD
ENDBRANCH  31  34
ENDBRANCH  30  31
ENDBRANCH   8  30
TORSDOF 5
ENDMDL
MODEL 5
REMARK VINA RESULT:      -6.3      3.542      5.492
REMARK  Name = 
REMARK  11 active torsions:
REMARK  status: ('A' for Active; 'I' for Inactive)
REMARK    1  A    between atoms: C_1  and  C_2
REMARK    2  A    between atoms: C_8  and  C_9
REMARK    3  A    between atoms: N_16  and  C_17
REMARK    4  A    between atoms: C_17  and  C_18
REMARK    5  A    between atoms: C_18  and  C_19
REMARK    6  A    between atoms: C_18  and  C_20
REMARK    7  A    between atoms: C_18  and  N_21
REMARK    8  A    between atoms: N_23  and  C_24
REMARK    9  A    between atoms: C_24  and  C_25
REMARK   10  A    between atoms: C_24  and  C_26
REMARK   11  A    between atoms: C_24  and  C_27
REMARK                            x       y       z     vdW  Elec       q    Type
REMARK                         _______ _______ _______ _____ _____    ______ ____
ROOT
ATOM      1  C   UNL     1      -0.719  11.327  19.552  0.00  0.00    +0.000 A 
ATOM      2  C   UNL     1      -0.348  10.181  20.329  0.00  0.00    +0.000 A 
ATOM      3  C   UNL     1       0.682  10.197  21.249  0.00  0.00    +0.000 A 
ATOM      4  C   UNL     1       1.354  11.377  21.414  0.00  0.00    +0.000 A 
ATOM      5  C   UNL     1       0.940  12.533  20.712  0.00  0.00    +0.000 A 
ATOM      6  C   UNL     1       1.734  13.719  20.911  0.00  0.00    +0.000 A 
ATOM      7  O   UNL     1       2.732  13.623  21.628  0.00  0.00    +0.000 OA
ATOM      8  N   UNL     1       1.387  14.859  20.186  0.00  0.00    +0.000 N 
ATOM      9  C   UNL     1       0.304  14.968  19.303  0.00  0.00    +0.000 A 
ATOM     10  N   UNL     1      -0.071  16.149  18.576  0.00  0.00    +0.000 N 
ATOM     11  N   UNL     1      -0.404  13.857  19.084  0.00  0.00    +0.000 NA
ATOM     12  C   UNL     1      -0.087  12.594  19.769  0.00  0.00    +0.000 A 
ATOM     13  H   UNL     1      -0.883  15.891  18.014  0.00  0.00    +0.000 HD
ENDROOT
BRANCH   1  21
ATOM     14  C   UNL     1      -5.550  12.526  16.954  0.00  0.00    +0.000 C 
ATOM     15  C   UNL     1      -5.002  11.113  16.908  0.00  0.00    +0.000 C 
ATOM     16  N   UNL     1      -4.709  10.680  15.533  0.00  0.00    +0.000 N 
ATOM     17  C   UNL     1      -3.368  10.390  15.281  0.00  0.00    +0.000 C 
ATOM     18  O   UNL     1      -2.880  10.010  14.233  0.00  0.00    +0.000 OA
ATOM     19  C   UNL     1      -2.715  10.623  16.530  0.00  0.00    +0.000 A 
ATOM     20  C   UNL     1      -1.477  10.628  17.159  0.00  0.00    +0.000 A 
ATOM     21  C   UNL     1      -1.691  11.039  18.486  0.00  0.00    +0.000 A 
ATOM     22  N   UNL     1      -3.050  11.266  18.641  0.00  0.00    +0.000 N 
ATOM     23  C   UNL     1      -3.649  11.019  17.438  0.00  0.00    +0.000 A 
ATOM     24  H   UNL     1      -5.401  10.551  14.811  0.00  0.00    +0.000 HD
ATOM     25  H   UNL     1      -3.462  11.609  19.504  0.00  0.00    +0.000 HD
ENDBRANCH   1  21
BRANCH  10  26
ATOM     26  C   UNL     1       0.118  17.671  18.428  0.00  0.00    +0.000 C 
ATOM     27  C   UNL     1       0.620  18.597  19.565  0.00  0.00    +0.000 C 
ATOM     28  C   UNL     1       1.105  17.940  17.234  0.00  0.00    +0.000 C 
ATOM     29  C   UNL     1      -1.218  18.338  17.992  0.00  0.00    +0.000 C 
ENDBRANCH  10  26
BRANCH   8  30
ATOM     30  C   UNL     1       2.452  15.798  20.245  0.00  0.00    +0.000 C 
BRANCH  30  31
ATOM     31  C   UNL     1       3.586  15.502  19.214  0.00  0.00    +0.000 C 
ATOM     32  C   UNL     1       3.091  14.672  18.019  0.00  0.00    +0.000 C 
ATOM     33  C   UNL     1       4.138  16.884  18.854  0.00  0.00    +0.000 C 
BRANCH  31  34
ATOM     34  N   UNL     1       4.732  14.713  19.720  0.00  0.00    +0.000 NA
ATOM     35  H   UNL     1       5.521  15.333  19.914  0.00  0.00    +0.000 HD
ATOM     36  H   UNL     1       5.072  14.105  18.968  0.00  0.00    +0.000 HD
ENDBRANCH  31  34
ENDBRANCH  30  31
ENDBRANCH   8  30
TORSDOF 5
ENDMDL
MODEL 6
REMARK VINA RESULT:      -6.2      5.061      6.965
REMARK  Name = 
REMARK  11 active torsions:
REMARK  status: ('A' for Active; 'I' for Inactive)
REMARK    1  A    between atoms: C_1  and  C_2
REMARK    2  A    between atoms: C_8  and  C_9
REMARK    3  A    between atoms: N_16  and  C_17
REMARK    4  A    between atoms: C_17  and  C_18
REMARK    5  A    between atoms: C_18  and  C_19
REMARK    6  A    between atoms: C_18  and  C_20
REMARK    7  A    between atoms: C_18  and  N_21
REMARK    8  A    between atoms: N_23  and  C_24
REMARK    9  A    between atoms: C_24  and  C_25
REMARK   10  A    between atoms: C_24  and  C_26
REMARK   11  A    between atoms: C_24  and  C_27
REMARK                            x       y       z     vdW  Elec       q    Type
REMARK                         _______ _______ _______ _____ _____    ______ ____
ROOT
ATOM      1  C   UNL     1      -5.337  12.618  20.107  0.00  0.00    +0.000 A 
ATOM      2  C   UNL     1      -6.520  11.860  20.391  0.00  0.00    +0.000 A 
ATOM      3  C   UNL     1      -7.263  12.027  21.543  0.00  0.00    +0.000 A 
ATOM      4  C   UNL     1      -6.833  12.974  22.431  0.00  0.00    +0.000 A 
ATOM      5  C   UNL     1      -5.715  13.783  22.120  0.00  0.00    +0.000 A 
ATOM      6  C   UNL     1      -5.305  14.722  23.134  0.00  0.00    +0.000 A 
ATOM      7  O   UNL     1      -5.919  14.711  24.201  0.00  0.00    +0.000 OA
ATOM      8  N   UNL     1      -4.169  15.491  22.881  0.00  0.00    +0.000 N 
ATOM      9  C   UNL     1      -3.407  15.462  21.705  0.00  0.00    +0.000 A 
ATOM     10  N   UNL     1      -2.253  16.273  21.432  0.00  0.00    +0.000 N 
ATOM     11  N   UNL     1      -3.760  14.561  20.785  0.00  0.00    +0.000 NA
ATOM     12  C   UNL     1      -4.917  13.672  20.981  0.00  0.00    +0.000 A 
ATOM     13  H   UNL     1      -1.924  15.996  20.506  0.00  0.00    +0.000 HD
ENDROOT
BRANCH   1  21
ATOM     14  C   UNL     1      -0.844  10.001  17.987  0.00  0.00    +0.000 C 
ATOM     15  C   UNL     1      -1.569  11.044  17.158  0.00  0.00    +0.000 C 
ATOM     16  N   UNL     1      -2.120  10.475  15.918  0.00  0.00    +0.000 N 
ATOM     17  C   UNL     1      -3.509  10.535  15.811  0.00  0.00    +0.000 C 
ATOM     18  O   UNL     1      -4.196  10.140  14.886  0.00  0.00    +0.000 OA
ATOM     19  C   UNL     1      -3.930  11.174  17.017  0.00  0.00    +0.000 A 
ATOM     20  C   UNL     1      -5.047  11.584  17.732  0.00  0.00    +0.000 A 
ATOM     21  C   UNL     1      -4.583  12.138  18.939  0.00  0.00    +0.000 A 
ATOM     22  N   UNL     1      -3.199  12.064  18.930  0.00  0.00    +0.000 N 
ATOM     23  C   UNL     1      -2.826  11.464  17.759  0.00  0.00    +0.000 A 
ATOM     24  H   UNL     1      -1.569  10.100  15.162  0.00  0.00    +0.000 HD
ATOM     25  H   UNL     1      -2.620  12.365  19.707  0.00  0.00    +0.000 HD
ENDBRANCH   1  21
BRANCH  10  26
ATOM     26  C   UNL     1      -1.423  17.499  21.861  0.00  0.00    +0.000 C 
ATOM     27  C   UNL     1      -1.954  18.626  22.783  0.00  0.00    +0.000 C 
ATOM     28  C   UNL     1      -0.113  16.994  22.568  0.00  0.00    +0.000 C 
ATOM     29  C   UNL     1      -0.921  18.273  20.609  0.00  0.00    +0.000 C 
ENDBRANCH  10  26
BRANCH   8  30
ATOM     30  C   UNL     1      -3.727  16.092  24.090  0.00  0.00    +0.000 C 
BRANCH  30  31
ATOM     31  C   UNL     1      -2.755  15.182  24.905  0.00  0.00    +0.000 C 
ATOM     32  C   UNL     1      -1.984  14.198  24.011  0.00  0.00    +0.000 C 
ATOM     33  C   UNL     1      -1.879  16.168  25.683  0.00  0.00    +0.000 C 
BRANCH  31  34
ATOM     34  N   UNL     1      -3.386  14.299  25.913  0.00  0.00    +0.000 NA
ATOM     35  H   UNL     1      -4.219  14.750  26.296  0.00  0.00    +0.000 HD
ATOM     36  H   UNL     1      -2.756  14.213  26.716  0.00  0.00    +0.000 HD
ENDBRANCH  31  34
ENDBRANCH  30  31
ENDBRANCH   8  30
TORSDOF 5
ENDMDL
MODEL 7
REMARK VINA RESULT:      -6.2      1.038      1.401
REMARK  Name = 
REMARK  11 active torsions:
REMARK  status: ('A' for Active; 'I' for Inactive)
REMARK    1  A    between atoms: C_1  and  C_2
REMARK    2  A    between atoms: C_8  and  C_9
REMARK    3  A    between atoms: N_16  and  C_17
REMARK    4  A    between atoms: C_17  and  C_18
REMARK    5  A    between atoms: C_18  and  C_19
REMARK    6  A    between atoms: C_18  and  C_20
REMARK    7  A    between atoms: C_18  and  N_21
REMARK    8  A    between atoms: N_23  and  C_24
REMARK    9  A    between atoms: C_24  and  C_25
REMARK   10  A    between atoms: C_24  and  C_26
REMARK   11  A    between atoms: C_24  and  C_27
REMARK                            x       y       z     vdW  Elec       q    Type
REMARK                         _______ _______ _______ _____ _____    ______ ____
ROOT
ATOM      1  C   UNL     1       0.340  10.488  18.660  0.00  0.00    +0.000 A 
ATOM      2  C   UNL     1      -1.006  10.083  18.382  0.00  0.00    +0.000 A 
ATOM      3  C   UNL     1      -2.091  10.927  18.522  0.00  0.00    +0.000 A 
ATOM      4  C   UNL     1      -1.837  12.206  18.937  0.00  0.00    +0.000 A 
ATOM      5  C   UNL     1      -0.504  12.636  19.135  0.00  0.00    +0.000 A 
ATOM      6  C   UNL     1      -0.334  13.984  19.617  0.00  0.00    +0.000 A 
ATOM      7  O   UNL     1      -1.352  14.631  19.868  0.00  0.00    +0.000 OA
ATOM      8  N   UNL     1       0.965  14.417  19.878  0.00  0.00    +0.000 N 
ATOM      9  C   UNL     1       2.133  13.669  19.676  0.00  0.00    +0.000 A 
ATOM     10  N   UNL     1       3.474  14.124  19.919  0.00  0.00    +0.000 N 
ATOM     11  N   UNL     1       1.973  12.406  19.272  0.00  0.00    +0.000 NA
ATOM     12  C   UNL     1       0.638  11.844  19.013  0.00  0.00    +0.000 A 
ATOM     13  H   UNL     1       4.086  13.339  19.691  0.00  0.00    +0.000 HD
ENDROOT
BRANCH   1  21
ATOM     14  C   UNL     1       1.705   5.232  20.087  0.00  0.00    +0.000 C 
ATOM     15  C   UNL     1       2.798   6.265  19.886  0.00  0.00    +0.000 C 
ATOM     16  N   UNL     1       3.712   5.895  18.794  0.00  0.00    +0.000 N 
ATOM     17  C   UNL     1       3.733   6.782  17.719  0.00  0.00    +0.000 C 
ATOM     18  O   UNL     1       4.406   6.699  16.707  0.00  0.00    +0.000 OA
ATOM     19  C   UNL     1       2.807   7.806  18.086  0.00  0.00    +0.000 A 
ATOM     20  C   UNL     1       2.207   8.978  17.646  0.00  0.00    +0.000 A 
ATOM     21  C   UNL     1       1.312   9.384  18.653  0.00  0.00    +0.000 A 
ATOM     22  N   UNL     1       1.393   8.461  19.684  0.00  0.00    +0.000 N 
ATOM     23  C   UNL     1       2.297   7.506  19.312  0.00  0.00    +0.000 A 
ATOM     24  H   UNL     1       4.323   5.092  18.802  0.00  0.00    +0.000 HD
ATOM     25  H   UNL     1       0.816   8.507  20.518  0.00  0.00    +0.000 HD
ENDBRANCH   1  21
BRANCH  10  26
ATOM     26  C   UNL     1       4.380  15.339  20.196  0.00  0.00    +0.000 C 
ATOM     27  C   UNL     1       4.444  16.597  19.293  0.00  0.00    +0.000 C 
ATOM     28  C   UNL     1       4.045  15.898  21.627  0.00  0.00    +0.000 C 
ATOM     29  C   UNL     1       5.867  14.892  20.287  0.00  0.00    +0.000 C 
ENDBRANCH  10  26
BRANCH   8  30
ATOM     30  C   UNL     1       0.919  15.610  20.648  0.00  0.00    +0.000 C 
BRANCH  30  31
ATOM     31  C   UNL     1       0.725  16.892  19.778  0.00  0.00    +0.000 C 
ATOM     32  C   UNL     1       1.400  18.128  20.394  0.00  0.00    +0.000 C 
ATOM     33  C   UNL     1       1.251  16.492  18.396  0.00  0.00    +0.000 C 
BRANCH  31  34
ATOM     34  N   UNL     1      -0.674  17.336  19.581  0.00  0.00    +0.000 NA
ATOM     35  H   UNL     1      -0.690  18.181  19.006  0.00  0.00    +0.000 HD
ATOM     36  H   UNL     1      -1.053  17.640  20.483  0.00  0.00    +0.000 HD
ENDBRANCH  31  34
ENDBRANCH  30  31
ENDBRANCH   8  30
TORSDOF 5
ENDMDL
MODEL 8
REMARK VINA RESULT:      -6.1      3.488      6.483
REMARK  Name = 
REMARK  11 active torsions:
REMARK  status: ('A' for Active; 'I' for Inactive)
REMARK    1  A    between atoms: C_1  and  C_2
REMARK    2  A    between atoms: C_8  and  C_9
REMARK    3  A    between atoms: N_16  and  C_17
REMARK    4  A    between atoms: C_17  and  C_18
REMARK    5  A    between atoms: C_18  and  C_19
REMARK    6  A    between atoms: C_18  and  C_20
REMARK    7  A    between atoms: C_18  and  N_21
REMARK    8  A    between atoms: N_23  and  C_24
REMARK    9  A    between atoms: C_24  and  C_25
REMARK   10  A    between atoms: C_24  and  C_26
REMARK   11  A    between atoms: C_24  and  C_27
REMARK                            x       y       z     vdW  Elec       q    Type
REMARK                         _______ _______ _______ _____ _____    ______ ____
ROOT
ATOM      1  C   UNL     1      -0.465  12.141  21.070  0.00  0.00    +0.000 A 
ATOM      2  C   UNL     1      -1.034  11.178  20.174  0.00  0.00    +0.000 A 
ATOM      3  C   UNL     1      -0.446  10.826  18.975  0.00  0.00    +0.000 A 
ATOM      4  C   UNL     1       0.738  11.432  18.658  0.00  0.00    +0.000 A 
ATOM      5  C   UNL     1       1.347  12.321  19.575  0.00  0.00    +0.000 A 
ATOM      6  C   UNL     1       2.569  12.949  19.138  0.00  0.00    +0.000 A 
ATOM      7  O   UNL     1       2.956  12.707  17.994  0.00  0.00    +0.000 OA
ATOM      8  N   UNL     1       3.161  13.877  19.994  0.00  0.00    +0.000 N 
ATOM      9  C   UNL     1       2.693  14.228  21.268  0.00  0.00    +0.000 A 
ATOM     10  N   UNL     1       3.316  15.163  22.163  0.00  0.00    +0.000 N 
ATOM     11  N   UNL     1       1.538  13.681  21.654  0.00  0.00    +0.000 NA
ATOM     12  C   UNL     1       0.815  12.725  20.800  0.00  0.00    +0.000 A 
ATOM     13  H   UNL     1       2.720  15.206  22.990  0.00  0.00    +0.000 HD
ENDROOT
BRANCH   1  21
ATOM     14  C   UNL     1      -3.131  16.140  23.973  0.00  0.00    +0.000 C 
ATOM     15  C   UNL     1      -2.751  14.840  24.657  0.00  0.00    +0.000 C 
ATOM     16  N   UNL     1      -3.932  14.109  25.144  0.00  0.00    +0.000 N 
ATOM     17  C   UNL     1      -4.128  12.857  24.563  0.00  0.00    +0.000 C 
ATOM     18  O   UNL     1      -5.022  12.065  24.802  0.00  0.00    +0.000 OA
ATOM     19  C   UNL     1      -3.040  12.716  23.649  0.00  0.00    +0.000 A 
ATOM     20  C   UNL     1      -2.490  11.876  22.690  0.00  0.00    +0.000 A 
ATOM     21  C   UNL     1      -1.351  12.526  22.180  0.00  0.00    +0.000 A 
ATOM     22  N   UNL     1      -1.226  13.736  22.843  0.00  0.00    +0.000 N 
ATOM     23  C   UNL     1      -2.269  13.835  23.721  0.00  0.00    +0.000 A 
ATOM     24  H   UNL     1      -4.552  14.435  25.869  0.00  0.00    +0.000 HD
ATOM     25  H   UNL     1      -0.500  14.414  22.632  0.00  0.00    +0.000 HD
ENDBRANCH   1  21
BRANCH  10  26
ATOM     26  C   UNL     1       4.586  15.979  22.477  0.00  0.00    +0.000 C 
ATOM     27  C   UNL     1       4.877  17.388  21.900  0.00  0.00    +0.000 C 
ATOM     28  C   UNL     1       4.693  16.160  24.035  0.00  0.00    +0.000 C 
ATOM     29  C   UNL     1       5.855  15.168  22.088  0.00  0.00    +0.000 C 
ENDBRANCH  10  26
BRANCH   8  30
ATOM     30  C   UNL     1       4.134  14.625  19.280  0.00  0.00    +0.000 C 
BRANCH  30  31
ATOM     31  C   UNL     1       3.512  15.758  18.404  0.00  0.00    +0.000 C 
ATOM     32  C   UNL     1       2.073  16.100  18.822  0.00  0.00    +0.000 C 
ATOM     33  C   UNL     1       4.509  16.916  18.521  0.00  0.00    +0.000 C 
BRANCH  31  34
ATOM     34  N   UNL     1       3.382  15.463  16.959  0.00  0.00    +0.000 NA
ATOM     35  H   UNL     1       3.407  16.334  16.424  0.00  0.00    +0.000 HD
ATOM     36  H   UNL     1       2.444  15.090  16.782  0.00  0.00    +0.000 HD
ENDBRANCH  31  34
ENDBRANCH  30  31
ENDBRANCH   8  30
TORSDOF 5
ENDMDL
MODEL 9
REMARK VINA RESULT:      -6.1      5.734      9.139
REMARK  Name = 
REMARK  11 active torsions:
REMARK  status: ('A' for Active; 'I' for Inactive)
REMARK    1  A    between atoms: C_1  and  C_2
REMARK    2  A    between atoms: C_8  and  C_9
REMARK    3  A    between atoms: N_16  and  C_17
REMARK    4  A    between atoms: C_17  and  C_18
REMARK    5  A    between atoms: C_18  and  C_19
REMARK    6  A    between atoms: C_18  and  C_20
REMARK    7  A    between atoms: C_18  and  N_21
REMARK    8  A    between atoms: N_23  and  C_24
REMARK    9  A    between atoms: C_24  and  C_25
REMARK   10  A    between atoms: C_24  and  C_26
REMARK   11  A    between atoms: C_24  and  C_27
REMARK                            x       y       z     vdW  Elec       q    Type
REMARK                         _______ _______ _______ _____ _____    ______ ____
ROOT
ATOM      1  C   UNL     1       6.261  14.106  21.964  0.00  0.00    +0.000 A 
ATOM      2  C   UNL     1       5.993  13.063  22.910  0.00  0.00    +0.000 A 
ATOM      3  C   UNL     1       6.910  12.081  23.228  0.00  0.00    +0.000 A 
ATOM      4  C   UNL     1       8.126  12.136  22.605  0.00  0.00    +0.000 A 
ATOM      5  C   UNL     1       8.428  13.208  21.732  0.00  0.00    +0.000 A 
ATOM      6  C   UNL     1       9.714  13.160  21.084  0.00  0.00    +0.000 A 
ATOM      7  O   UNL     1      10.421  12.174  21.295  0.00  0.00    +0.000 OA
ATOM      8  N   UNL     1      10.016  14.171  20.172  0.00  0.00    +0.000 N 
ATOM      9  C   UNL     1       9.193  15.260  19.856  0.00  0.00    +0.000 A 
ATOM     10  N   UNL     1       9.514  16.317  18.938  0.00  0.00    +0.000 N 
ATOM     11  N   UNL     1       7.983  15.281  20.423  0.00  0.00    +0.000 NA
ATOM     12  C   UNL     1       7.556  14.233  21.364  0.00  0.00    +0.000 A 
ATOM     13  H   UNL     1       8.702  16.935  18.921  0.00  0.00    +0.000 HD
ENDROOT
BRANCH   1  21
ATOM     14  C   UNL     1       2.912  16.340  18.050  0.00  0.00    +0.000 C 
ATOM     15  C   UNL     1       3.037  17.010  19.406  0.00  0.00    +0.000 C 
ATOM     16  N   UNL     1       1.749  17.058  20.116  0.00  0.00    +0.000 N 
ATOM     17  C   UNL     1       1.716  16.354  21.320  0.00  0.00    +0.000 C 
ATOM     18  O   UNL     1       0.776  16.250  22.087  0.00  0.00    +0.000 OA
ATOM     19  C   UNL     1       3.030  15.809  21.448  0.00  0.00    +0.000 A 
ATOM     20  C   UNL     1       3.832  15.005  22.247  0.00  0.00    +0.000 A 
ATOM     21  C   UNL     1       5.085  14.917  21.614  0.00  0.00    +0.000 A 
ATOM     22  N   UNL     1       5.024  15.673  20.455  0.00  0.00    +0.000 N 
ATOM     23  C   UNL     1       3.764  16.195  20.369  0.00  0.00    +0.000 A 
ATOM     24  H   UNL     1       0.943  17.581  19.811  0.00  0.00    +0.000 HD
ATOM     25  H   UNL     1       5.793  15.744  19.796  0.00  0.00    +0.000 HD
ENDBRANCH   1  21
BRANCH  10  26
ATOM     26  C   UNL     1      10.624  17.004  18.119  0.00  0.00    +0.000 C 
ATOM     27  C   UNL     1      12.111  17.065  18.554  0.00  0.00    +0.000 C 
ATOM     28  C   UNL     1      10.659  16.363  16.684  0.00  0.00    +0.000 C 
ATOM     29  C   UNL     1      10.265  18.497  17.874  0.00  0.00    +0.000 C 
ENDBRANCH  10  26
BRANCH   8  30
ATOM     30  C   UNL     1      11.144  13.787  19.398  0.00  0.00    +0.000 C 
BRANCH  30  31
ATOM     31  C   UNL     1      10.780  12.828  18.222  0.00  0.00    +0.000 C 
ATOM     32  C   UNL     1       9.335  13.018  17.734  0.00  0.00    +0.000 C 
ATOM     33  C   UNL     1      11.857  13.098  17.167  0.00  0.00    +0.000 C 
BRANCH  31  34
ATOM     34  N   UNL     1      10.845  11.379  18.523  0.00  0.00    +0.000 NA
ATOM     35  H   UNL     1      10.376  10.851  17.785  0.00  0.00    +0.000 HD
ATOM     36  H   UNL     1      10.284  11.190  19.359  0.00  0.00    +0.000 HD
ENDBRANCH  31  34
ENDBRANCH  30  31
ENDBRANCH   8  30
TORSDOF 5
ENDMDL
