MODEL 1
REMARK VINA RESULT:      -8.0      0.000      0.000
REMARK  Name = 
REMARK  11 active torsions:
REMARK  status: ('A' for Active; 'I' for Inactive)
REMARK    1  A    between atoms: C_1  and  O_2
REMARK    2  A    between atoms: O_2  and  C_3
REMARK    3  A    between atoms: C_7  and  C_8
REMARK    4  A    between atoms: N_13  and  C_14
REMARK    5  A    between atoms: C_15  and  C_16
REMARK    6  A    between atoms: C_15  and  C_19
REMARK    7  A    between atoms: C_16  and  C_17
REMARK    8  A    between atoms: N_21  and  C_22
REMARK    9  A    between atoms: C_22  and  C_23
REMARK   10  A    between atoms: C_23  and  O_25
REMARK   11  A    between atoms: C_28  and  O_29
REMARK                            x       y       z     vdW  Elec       q    Type
REMARK                         _______ _______ _______ _____ _____    ______ ____
ROOT
ATOM      1  C   UNL     1       2.140   6.383  19.983  0.00  0.00    +0.000 C 
ATOM      2  C   UNL     1       2.903   5.499  19.326  0.00  0.00    +0.000 C 
ATOM      3  S   UNL     1       3.024   3.844  19.782  0.00  0.00    +0.000 S 
ATOM      4  C   UNL     1       3.845   3.403  18.286  0.00  0.00    +0.000 C 
ATOM      5  S   UNL     1       3.995   1.813  17.800  0.00  0.00    +0.000 S 
ATOM      6  N   UNL     1       4.249   4.553  17.621  0.00  0.00    +0.000 N 
ATOM      7  C   UNL     1       3.722   5.747  18.109  0.00  0.00    +0.000 C 
ATOM      8  O   UNL     1       3.967   6.862  17.668  0.00  0.00    +0.000 OA
ENDROOT
BRANCH   1  13
ATOM      9  C   UNL     1       1.205  10.073  19.943  0.00  0.00    +0.000 A 
ATOM     10  C   UNL     1       1.149  10.268  18.555  0.00  0.00    +0.000 A 
ATOM     11  C   UNL     1       1.450   9.236  17.668  0.00  0.00    +0.000 A 
ATOM     12  C   UNL     1       1.795   7.983  18.163  0.00  0.00    +0.000 A 
ATOM     13  C   UNL     1       1.852   7.758  19.547  0.00  0.00    +0.000 A 
ATOM     14  C   UNL     1       1.578   8.815  20.437  0.00  0.00    +0.000 A 
BRANCH   9  16
ATOM     15  C   UNL     1       1.609  12.389  20.414  0.00  0.00    +0.000 C 
ATOM     16  O   UNL     1       0.866  11.201  20.642  0.00  0.00    +0.000 OA
ENDBRANCH   9  16
BRANCH  14  17
ATOM     17  O   UNL     1       1.671   8.600  21.788  0.00  0.00    +0.000 OA
ATOM     18  H   UNL     1       2.221   9.300  22.171  0.00  0.00    +0.000 HD
ENDBRANCH  14  17
ENDBRANCH   1  13
BRANCH   6  19
ATOM     19  C   UNL     1       5.022   4.612  16.465  0.00  0.00    +0.000 C 
ATOM     20  C   UNL     1       6.350   4.806  16.337  0.00  0.00    +0.000 C 
BRANCH  20  21
ATOM     21  C   UNL     1       6.860   4.825  14.916  0.00  0.00    +0.000 C 
ATOM     22  O   UNL     1       7.918   5.362  14.607  0.00  0.00    +0.000 OA
ATOM     23  N   UNL     1       6.095   4.147  14.008  0.00  0.00    +0.000 N 
ATOM     24  H   UNL     1       5.147   3.867  14.290  0.00  0.00    +0.000 HD
BRANCH  23  25
ATOM     25  C   UNL     1       6.405   4.023  12.583  0.00  0.00    +0.000 C 
BRANCH  25  26
ATOM     26  C   UNL     1       5.539   2.932  11.959  0.00  0.00    +0.000 C 
ATOM     27  O   UNL     1       5.923   1.793  11.731  0.00  0.00    +0.000 OA
BRANCH  26  28
ATOM     28  O   UNL     1       4.255   3.324  11.747  0.00  0.00    +0.000 OA
ATOM     29  H   UNL     1       4.213   3.826  10.909  0.00  0.00    +0.000 HD
ENDBRANCH  26  28
ENDBRANCH  25  26
ENDBRANCH  23  25
ENDBRANCH  20  21
BRANCH  20  30
ATOM     30  C   UNL     1       7.276   5.168  17.458  0.00  0.00    +0.000 C 
ATOM     31  C   UNL     1       7.527   6.619  17.788  0.00  0.00    +0.000 C 
ATOM     32  O   UNL     1       7.926   4.283  18.018  0.00  0.00    +0.000 OA
ENDBRANCH  20  30
ENDBRANCH   6  19
TORSDOF 9
ENDMDL
MODEL 2
REMARK VINA RESULT:      -7.9      1.518      1.834
REMARK  Name = 
REMARK  11 active torsions:
REMARK  status: ('A' for Active; 'I' for Inactive)
REMARK    1  A    between atoms: C_1  and  O_2
REMARK    2  A    between atoms: O_2  and  C_3
REMARK    3  A    between atoms: C_7  and  C_8
REMARK    4  A    between atoms: N_13  and  C_14
REMARK    5  A    between atoms: C_15  and  C_16
REMARK    6  A    between atoms: C_15  and  C_19
REMARK    7  A    between atoms: C_16  and  C_17
REMARK    8  A    between atoms: N_21  and  C_22
REMARK    9  A    between atoms: C_22  and  C_23
REMARK   10  A    between atoms: C_23  and  O_25
REMARK   11  A    between atoms: C_28  and  O_29
REMARK                            x       y       z     vdW  Elec       q    Type
REMARK                         _______ _______ _______ _____ _____    ______ ____
ROOT
ATOM      1  C   UNL     1       1.116   7.195  21.094  0.00  0.00    +0.000 C 
ATOM      2  C   UNL     1       1.852   6.326  20.387  0.00  0.00    +0.000 C 
ATOM      3  S   UNL     1       1.974   4.656  20.788  0.00  0.00    +0.000 S 
ATOM      4  C   UNL     1       2.746   4.256  19.255  0.00  0.00    +0.000 C 
ATOM      5  S   UNL     1       2.869   2.681  18.717  0.00  0.00    +0.000 S 
ATOM      6  N   UNL     1       3.139   5.423  18.614  0.00  0.00    +0.000 N 
ATOM      7  C   UNL     1       2.635   6.606  19.154  0.00  0.00    +0.000 C 
ATOM      8  O   UNL     1       2.876   7.731  18.739  0.00  0.00    +0.000 OA
ENDROOT
BRANCH   1  13
ATOM      9  C   UNL     1       0.757  10.984  21.120  0.00  0.00    +0.000 A 
ATOM     10  C   UNL     1       0.047  11.144  19.921  0.00  0.00    +0.000 A 
ATOM     11  C   UNL     1      -0.264  10.050  19.115  0.00  0.00    +0.000 A 
ATOM     12  C   UNL     1       0.119   8.773  19.510  0.00  0.00    +0.000 A 
ATOM     13  C   UNL     1       0.825   8.583  20.708  0.00  0.00    +0.000 A 
ATOM     14  C   UNL     1       1.163   9.698  21.502  0.00  0.00    +0.000 A 
BRANCH   9  16
ATOM     15  C   UNL     1      -0.012  13.201  21.614  0.00  0.00    +0.000 C 
ATOM     16  O   UNL     1       0.954  12.173  21.771  0.00  0.00    +0.000 OA
ENDBRANCH   9  16
BRANCH  14  17
ATOM     17  O   UNL     1       1.885   9.511  22.653  0.00  0.00    +0.000 OA
ATOM     18  H   UNL     1       2.512  10.245  22.742  0.00  0.00    +0.000 HD
ENDBRANCH  14  17
ENDBRANCH   1  13
BRANCH   6  19
ATOM     19  C   UNL     1       3.876   5.513  17.438  0.00  0.00    +0.000 C 
ATOM     20  C   UNL     1       5.208   5.404  17.256  0.00  0.00    +0.000 C 
BRANCH  20  21
ATOM     21  C   UNL     1       5.676   5.568  15.830  0.00  0.00    +0.000 C 
ATOM     22  O   UNL     1       5.485   6.598  15.192  0.00  0.00    +0.000 OA
ATOM     23  N   UNL     1       6.385   4.516  15.321  0.00  0.00    +0.000 N 
ATOM     24  H   UNL     1       6.367   3.627  15.837  0.00  0.00    +0.000 HD
BRANCH  23  25
ATOM     25  C   UNL     1       6.946   4.465  13.970  0.00  0.00    +0.000 C 
BRANCH  25  26
ATOM     26  C   UNL     1       6.034   3.642  13.063  0.00  0.00    +0.000 C 
ATOM     27  O   UNL     1       4.825   3.801  12.973  0.00  0.00    +0.000 OA
BRANCH  26  28
ATOM     28  O   UNL     1       6.711   2.751  12.290  0.00  0.00    +0.000 OA
ATOM     29  H   UNL     1       6.148   2.502  11.531  0.00  0.00    +0.000 HD
ENDBRANCH  26  28
ENDBRANCH  25  26
ENDBRANCH  23  25
ENDBRANCH  20  21
BRANCH  20  30
ATOM     30  C   UNL     1       6.219   5.317  18.359  0.00  0.00    +0.000 C 
ATOM     31  C   UNL     1       7.442   6.201  18.330  0.00  0.00    +0.000 C 
ATOM     32  O   UNL     1       6.111   4.435  19.213  0.00  0.00    +0.000 OA
ENDBRANCH  20  30
ENDBRANCH   6  19
TORSDOF 9
ENDMDL
MODEL 3
REMARK VINA RESULT:      -7.5      1.887      2.370
REMARK  Name = 
REMARK  11 active torsions:
REMARK  status: ('A' for Active; 'I' for Inactive)
REMARK    1  A    between atoms: C_1  and  O_2
REMARK    2  A    between atoms: O_2  and  C_3
REMARK    3  A    between atoms: C_7  and  C_8
REMARK    4  A    between atoms: N_13  and  C_14
REMARK    5  A    between atoms: C_15  and  C_16
REMARK    6  A    between atoms: C_15  and  C_19
REMARK    7  A    between atoms: C_16  and  C_17
REMARK    8  A    between atoms: N_21  and  C_22
REMARK    9  A    between atoms: C_22  and  C_23
REMARK   10  A    between atoms: C_23  and  O_25
REMARK   11  A    between atoms: C_28  and  O_29
REMARK                            x       y       z     vdW  Elec       q    Type
REMARK                         _______ _______ _______ _____ _____    ______ ____
ROOT
ATOM      1  C   UNL     1       0.922   7.585  21.078  0.00  0.00    +0.000 C 
ATOM      2  C   UNL     1       1.595   6.652  20.391  0.00  0.00    +0.000 C 
ATOM      3  S   UNL     1       1.629   4.993  20.851  0.00  0.00    +0.000 S 
ATOM      4  C   UNL     1       2.349   4.495  19.321  0.00  0.00    +0.000 C 
ATOM      5  S   UNL     1       2.373   2.897  18.840  0.00  0.00    +0.000 S 
ATOM      6  N   UNL     1       2.795   5.614  18.632  0.00  0.00    +0.000 N 
ATOM      7  C   UNL     1       2.369   6.842  19.136  0.00  0.00    +0.000 C 
ATOM      8  O   UNL     1       2.666   7.936  18.677  0.00  0.00    +0.000 OA
ENDROOT
BRANCH   1  13
ATOM      9  C   UNL     1       0.773  11.387  20.974  0.00  0.00    +0.000 A 
ATOM     10  C   UNL     1       0.057  11.544  19.778  0.00  0.00    +0.000 A 
ATOM     11  C   UNL     1      -0.324  10.442  19.015  0.00  0.00    +0.000 A 
ATOM     12  C   UNL     1      -0.007   9.161  19.451  0.00  0.00    +0.000 A 
ATOM     13  C   UNL     1       0.703   8.974  20.647  0.00  0.00    +0.000 A 
ATOM     14  C   UNL     1       1.113  10.095  21.396  0.00  0.00    +0.000 A 
BRANCH   9  16
ATOM     15  C   UNL     1       0.028  13.576  21.610  0.00  0.00    +0.000 C 
ATOM     16  O   UNL     1       1.044  12.585  21.580  0.00  0.00    +0.000 OA
ENDBRANCH   9  16
BRANCH  14  17
ATOM     17  O   UNL     1       1.838   9.909  22.545  0.00  0.00    +0.000 OA
ATOM     18  H   UNL     1       1.708  10.681  23.116  0.00  0.00    +0.000 HD
ENDBRANCH  14  17
ENDBRANCH   1  13
BRANCH   6  19
ATOM     19  C   UNL     1       3.515   5.619  17.441  0.00  0.00    +0.000 C 
ATOM     20  C   UNL     1       4.819   5.351  17.233  0.00  0.00    +0.000 C 
BRANCH  20  21
ATOM     21  C   UNL     1       5.276   5.464  15.798  0.00  0.00    +0.000 C 
ATOM     22  O   UNL     1       5.274   6.530  15.191  0.00  0.00    +0.000 OA
ATOM     23  N   UNL     1       5.752   4.310  15.241  0.00  0.00    +0.000 N 
ATOM     24  H   UNL     1       5.573   3.426  15.734  0.00  0.00    +0.000 HD
BRANCH  23  25
ATOM     25  C   UNL     1       6.259   4.191  13.873  0.00  0.00    +0.000 C 
BRANCH  25  26
ATOM     26  C   UNL     1       7.489   5.078  13.698  0.00  0.00    +0.000 C 
ATOM     27  O   UNL     1       7.908   5.470  12.618  0.00  0.00    +0.000 OA
BRANCH  26  28
ATOM     28  O   UNL     1       8.041   5.466  14.878  0.00  0.00    +0.000 OA
ATOM     29  H   UNL     1       8.231   4.670  15.413  0.00  0.00    +0.000 HD
ENDBRANCH  26  28
ENDBRANCH  25  26
ENDBRANCH  23  25
ENDBRANCH  20  21
BRANCH  20  30
ATOM     30  C   UNL     1       5.834   5.137  18.314  0.00  0.00    +0.000 C 
ATOM     31  C   UNL     1       7.019   6.064  18.429  0.00  0.00    +0.000 C 
ATOM     32  O   UNL     1       5.764   4.129  19.021  0.00  0.00    +0.000 OA
ENDBRANCH  20  30
ENDBRANCH   6  19
TORSDOF 9
ENDMDL
MODEL 4
REMARK VINA RESULT:      -7.4      1.246      1.432
REMARK  Name = 
REMARK  11 active torsions:
REMARK  status: ('A' for Active; 'I' for Inactive)
REMARK    1  A    between atoms: C_1  and  O_2
REMARK    2  A    between atoms: O_2  and  C_3
REMARK    3  A    between atoms: C_7  and  C_8
REMARK    4  A    between atoms: N_13  and  C_14
REMARK    5  A    between atoms: C_15  and  C_16
REMARK    6  A    between atoms: C_15  and  C_19
REMARK    7  A    between atoms: C_16  and  C_17
REMARK    8  A    between atoms: N_21  and  C_22
REMARK    9  A    between atoms: C_22  and  C_23
REMARK   10  A    between atoms: C_23  and  O_25
REMARK   11  A    between atoms: C_28  and  O_29
REMARK                            x       y       z     vdW  Elec       q    Type
REMARK                         _______ _______ _______ _____ _____    ______ ____
ROOT
ATOM      1  C   UNL     1       1.573   6.707  20.572  0.00  0.00    +0.000 C 
ATOM      2  C   UNL     1       2.373   5.751  20.079  0.00  0.00    +0.000 C 
ATOM      3  S   UNL     1       2.269   4.101  20.560  0.00  0.00    +0.000 S 
ATOM      4  C   UNL     1       3.322   3.564  19.253  0.00  0.00    +0.000 C 
ATOM      5  S   UNL     1       3.432   1.957  18.816  0.00  0.00    +0.000 S 
ATOM      6  N   UNL     1       3.939   4.664  18.672  0.00  0.00    +0.000 N 
ATOM      7  C   UNL     1       3.426   5.907  19.041  0.00  0.00    +0.000 C 
ATOM      8  O   UNL     1       3.842   6.988  18.648  0.00  0.00    +0.000 OA
ENDROOT
BRANCH   1  13
ATOM      9  C   UNL     1       1.305  10.499  20.390  0.00  0.00    +0.000 A 
ATOM     10  C   UNL     1       1.136  10.639  19.004  0.00  0.00    +0.000 A 
ATOM     11  C   UNL     1       1.154   9.531  18.159  0.00  0.00    +0.000 A 
ATOM     12  C   UNL     1       1.323   8.260  18.696  0.00  0.00    +0.000 A 
ATOM     13  C   UNL     1       1.487   8.090  20.079  0.00  0.00    +0.000 A 
ATOM     14  C   UNL     1       1.500   9.218  20.923  0.00  0.00    +0.000 A 
BRANCH   9  16
ATOM     15  C   UNL     1       1.510  12.888  20.312  0.00  0.00    +0.000 C 
ATOM     16  O   UNL     1       1.247  11.700  21.045  0.00  0.00    +0.000 OA
ENDBRANCH   9  16
BRANCH  14  17
ATOM     17  O   UNL     1       1.697   9.050  22.270  0.00  0.00    +0.000 OA
ATOM     18  H   UNL     1       2.649   9.098  22.447  0.00  0.00    +0.000 HD
ENDBRANCH  14  17
ENDBRANCH   1  13
BRANCH   6  19
ATOM     19  C   UNL     1       4.920   4.637  17.686  0.00  0.00    +0.000 C 
ATOM     20  C   UNL     1       6.238   4.899  17.789  0.00  0.00    +0.000 C 
BRANCH  20  21
ATOM     21  C   UNL     1       7.017   4.785  16.500  0.00  0.00    +0.000 C 
ATOM     22  O   UNL     1       8.098   4.208  16.436  0.00  0.00    +0.000 OA
ATOM     23  N   UNL     1       6.406   5.311  15.396  0.00  0.00    +0.000 N 
ATOM     24  H   UNL     1       5.592   5.923  15.541  0.00  0.00    +0.000 HD
BRANCH  23  25
ATOM     25  C   UNL     1       6.969   5.299  14.046  0.00  0.00    +0.000 C 
BRANCH  25  26
ATOM     26  C   UNL     1       6.566   4.013  13.328  0.00  0.00    +0.000 C 
ATOM     27  O   UNL     1       6.704   3.821  12.129  0.00  0.00    +0.000 OA
BRANCH  26  28
ATOM     28  O   UNL     1       6.102   3.053  14.172  0.00  0.00    +0.000 OA
ATOM     29  H   UNL     1       5.228   2.752  13.855  0.00  0.00    +0.000 HD
ENDBRANCH  26  28
ENDBRANCH  25  26
ENDBRANCH  23  25
ENDBRANCH  20  21
BRANCH  20  30
ATOM     30  C   UNL     1       6.910   5.450  19.010  0.00  0.00    +0.000 C 
ATOM     31  C   UNL     1       7.919   6.565  18.876  0.00  0.00    +0.000 C 
ATOM     32  O   UNL     1       6.732   4.902  20.100  0.00  0.00    +0.000 OA
ENDBRANCH  20  30
ENDBRANCH   6  19
TORSDOF 9
ENDMDL
MODEL 5
REMARK VINA RESULT:      -6.9      1.916      2.635
REMARK  Name = 
REMARK  11 active torsions:
REMARK  status: ('A' for Active; 'I' for Inactive)
REMARK    1  A    between atoms: C_1  and  O_2
REMARK    2  A    between atoms: O_2  and  C_3
REMARK    3  A    between atoms: C_7  and  C_8
REMARK    4  A    between atoms: N_13  and  C_14
REMARK    5  A    between atoms: C_15  and  C_16
REMARK    6  A    between atoms: C_15  and  C_19
REMARK    7  A    between atoms: C_16  and  C_17
REMARK    8  A    between atoms: N_21  and  C_22
REMARK    9  A    between atoms: C_22  and  C_23
REMARK   10  A    between atoms: C_23  and  O_25
REMARK   11  A    between atoms: C_28  and  O_29
REMARK                            x       y       z     vdW  Elec       q    Type
REMARK                         _______ _______ _______ _____ _____    ______ ____
ROOT
ATOM      1  C   UNL     1       0.835   8.941  20.479  0.00  0.00    +0.000 C 
ATOM      2  C   UNL     1       1.631   7.982  19.988  0.00  0.00    +0.000 C 
ATOM      3  S   UNL     1       1.871   6.469  20.774  0.00  0.00    +0.000 S 
ATOM      4  C   UNL     1       2.670   5.767  19.368  0.00  0.00    +0.000 C 
ATOM      5  S   UNL     1       2.905   4.121  19.220  0.00  0.00    +0.000 S 
ATOM      6  N   UNL     1       2.979   6.771  18.461  0.00  0.00    +0.000 N 
ATOM      7  C   UNL     1       2.392   8.011  18.711  0.00  0.00    +0.000 C 
ATOM      8  O   UNL     1       2.553   9.018  18.035  0.00  0.00    +0.000 OA
ENDROOT
BRANCH   1  13
ATOM      9  C   UNL     1       0.423  12.593  19.487  0.00  0.00    +0.000 A 
ATOM     10  C   UNL     1      -0.523  12.435  18.464  0.00  0.00    +0.000 A 
ATOM     11  C   UNL     1      -0.974  11.172  18.087  0.00  0.00    +0.000 A 
ATOM     12  C   UNL     1      -0.496  10.045  18.746  0.00  0.00    +0.000 A 
ATOM     13  C   UNL     1       0.447  10.174  19.778  0.00  0.00    +0.000 A 
ATOM     14  C   UNL     1       0.923  11.452  20.131  0.00  0.00    +0.000 A 
BRANCH   9  16
ATOM     15  C   UNL     1       1.900  14.446  19.114  0.00  0.00    +0.000 C 
ATOM     16  O   UNL     1       0.731  13.908  19.714  0.00  0.00    +0.000 OA
ENDBRANCH   9  16
BRANCH  14  17
ATOM     17  O   UNL     1       1.870  11.571  21.115  0.00  0.00    +0.000 OA
ATOM     18  H   UNL     1       1.440  11.914  21.913  0.00  0.00    +0.000 HD
ENDBRANCH  14  17
ENDBRANCH   1  13
BRANCH   6  19
ATOM     19  C   UNL     1       3.708   6.627  17.285  0.00  0.00    +0.000 C 
ATOM     20  C   UNL     1       5.019   6.360  17.123  0.00  0.00    +0.000 C 
BRANCH  20  21
ATOM     21  C   UNL     1       5.486   6.283  15.688  0.00  0.00    +0.000 C 
ATOM     22  O   UNL     1       5.038   7.016  14.813  0.00  0.00    +0.000 OA
ATOM     23  N   UNL     1       6.488   5.386  15.445  0.00  0.00    +0.000 N 
ATOM     24  H   UNL     1       6.700   4.691  16.172  0.00  0.00    +0.000 HD
BRANCH  23  25
ATOM     25  C   UNL     1       7.101   5.155  14.136  0.00  0.00    +0.000 C 
BRANCH  25  26
ATOM     26  C   UNL     1       6.477   3.924  13.483  0.00  0.00    +0.000 C 
ATOM     27  O   UNL     1       6.470   3.711  12.279  0.00  0.00    +0.000 OA
BRANCH  26  28
ATOM     28  O   UNL     1       5.991   3.029  14.383  0.00  0.00    +0.000 OA
ATOM     29  H   UNL     1       6.601   2.988  15.146  0.00  0.00    +0.000 HD
ENDBRANCH  26  28
ENDBRANCH  25  26
ENDBRANCH  23  25
ENDBRANCH  20  21
BRANCH  20  30
ATOM     30  C   UNL     1       6.029   6.320  18.229  0.00  0.00    +0.000 C 
ATOM     31  C   UNL     1       7.299   7.128  18.120  0.00  0.00    +0.000 C 
ATOM     32  O   UNL     1       5.877   5.526  19.161  0.00  0.00    +0.000 OA
ENDBRANCH  20  30
ENDBRANCH   6  19
TORSDOF 9
ENDMDL
MODEL 6
REMARK VINA RESULT:      -6.8      5.485      7.944
REMARK  Name = 
REMARK  11 active torsions:
REMARK  status: ('A' for Active; 'I' for Inactive)
REMARK    1  A    between atoms: C_1  and  O_2
REMARK    2  A    between atoms: O_2  and  C_3
REMARK    3  A    between atoms: C_7  and  C_8
REMARK    4  A    between atoms: N_13  and  C_14
REMARK    5  A    between atoms: C_15  and  C_16
REMARK    6  A    between atoms: C_15  and  C_19
REMARK    7  A    between atoms: C_16  and  C_17
REMARK    8  A    between atoms: N_21  and  C_22
REMARK    9  A    between atoms: C_22  and  C_23
REMARK   10  A    between atoms: C_23  and  O_25
REMARK   11  A    between atoms: C_28  and  O_29
REMARK                            x       y       z     vdW  Elec       q    Type
REMARK                         _______ _______ _______ _____ _____    ______ ____
ROOT
ATOM      1  C   UNL     1       0.604  14.427  19.336  0.00  0.00    +0.000 C 
ATOM      2  C   UNL     1       0.246  13.143  19.201  0.00  0.00    +0.000 C 
ATOM      3  S   UNL     1      -1.347  12.654  18.767  0.00  0.00    +0.000 S 
ATOM      4  C   UNL     1      -0.849  10.989  18.473  0.00  0.00    +0.000 C 
ATOM      5  S   UNL     1      -1.818   9.915  17.641  0.00  0.00    +0.000 S 
ATOM      6  N   UNL     1       0.430  10.792  18.977  0.00  0.00    +0.000 N 
ATOM      7  C   UNL     1       1.117  11.947  19.347  0.00  0.00    +0.000 C 
ATOM      8  O   UNL     1       2.244  11.978  19.822  0.00  0.00    +0.000 OA
ENDROOT
BRANCH   1  13
ATOM      9  C   UNL     1       3.904  15.507  20.896  0.00  0.00    +0.000 A 
ATOM     10  C   UNL     1       4.517  16.048  19.757  0.00  0.00    +0.000 A 
ATOM     11  C   UNL     1       3.885  16.019  18.514  0.00  0.00    +0.000 A 
ATOM     12  C   UNL     1       2.617  15.461  18.401  0.00  0.00    +0.000 A 
ATOM     13  C   UNL     1       1.977  14.918  19.526  0.00  0.00    +0.000 A 
ATOM     14  C   UNL     1       2.635  14.922  20.772  0.00  0.00    +0.000 A 
BRANCH   9  16
ATOM     15  C   UNL     1       5.379  14.504  22.499  0.00  0.00    +0.000 C 
ATOM     16  O   UNL     1       4.678  15.641  22.017  0.00  0.00    +0.000 OA
ENDBRANCH   9  16
BRANCH  14  17
ATOM     17  O   UNL     1       2.022  14.359  21.860  0.00  0.00    +0.000 OA
ATOM     18  H   UNL     1       1.971  13.401  21.720  0.00  0.00    +0.000 HD
ENDBRANCH  14  17
ENDBRANCH   1  13
BRANCH   6  19
ATOM     19  C   UNL     1       1.119   9.584  19.033  0.00  0.00    +0.000 C 
ATOM     20  C   UNL     1       1.112   8.644  19.999  0.00  0.00    +0.000 C 
BRANCH  20  21
ATOM     21  C   UNL     1       1.998   7.449  19.737  0.00  0.00    +0.000 C 
ATOM     22  O   UNL     1       2.815   7.427  18.824  0.00  0.00    +0.000 OA
ATOM     23  N   UNL     1       1.872   6.419  20.627  0.00  0.00    +0.000 N 
ATOM     24  H   UNL     1       1.062   6.425  21.261  0.00  0.00    +0.000 HD
BRANCH  23  25
ATOM     25  C   UNL     1       2.637   5.173  20.575  0.00  0.00    +0.000 C 
BRANCH  25  26
ATOM     26  C   UNL     1       1.746   4.001  20.981  0.00  0.00    +0.000 C 
ATOM     27  O   UNL     1       0.783   3.612  20.335  0.00  0.00    +0.000 OA
BRANCH  26  28
ATOM     28  O   UNL     1       2.175   3.367  22.104  0.00  0.00    +0.000 OA
ATOM     29  H   UNL     1       1.404   3.193  22.680  0.00  0.00    +0.000 HD
ENDBRANCH  26  28
ENDBRANCH  25  26
ENDBRANCH  23  25
ENDBRANCH  20  21
BRANCH  20  30
ATOM     30  C   UNL     1       0.452   8.793  21.337  0.00  0.00    +0.000 C 
ATOM     31  C   UNL     1       1.192   9.459  22.471  0.00  0.00    +0.000 C 
ATOM     32  O   UNL     1      -0.639   8.256  21.538  0.00  0.00    +0.000 OA
ENDBRANCH  20  30
ENDBRANCH   6  19
TORSDOF 9
ENDMDL
MODEL 7
REMARK VINA RESULT:      -6.8      4.754      7.664
REMARK  Name = 
REMARK  11 active torsions:
REMARK  status: ('A' for Active; 'I' for Inactive)
REMARK    1  A    between atoms: C_1  and  O_2
REMARK    2  A    between atoms: O_2  and  C_3
REMARK    3  A    between atoms: C_7  and  C_8
REMARK    4  A    between atoms: N_13  and  C_14
REMARK    5  A    between atoms: C_15  and  C_16
REMARK    6  A    between atoms: C_15  and  C_19
REMARK    7  A    between atoms: C_16  and  C_17
REMARK    8  A    between atoms: N_21  and  C_22
REMARK    9  A    between atoms: C_22  and  C_23
REMARK   10  A    between atoms: C_23  and  O_25
REMARK   11  A    between atoms: C_28  and  O_29
REMARK                            x       y       z     vdW  Elec       q    Type
REMARK                         _______ _______ _______ _____ _____    ______ ____
ROOT
ATOM      1  C   UNL     1       0.301  14.585  19.751  0.00  0.00    +0.000 C 
ATOM      2  C   UNL     1       0.005  13.298  19.521  0.00  0.00    +0.000 C 
ATOM      3  S   UNL     1      -1.600  12.739  19.247  0.00  0.00    +0.000 S 
ATOM      4  C   UNL     1      -1.048  11.155  18.707  0.00  0.00    +0.000 C 
ATOM      5  S   UNL     1      -2.055  10.102  17.893  0.00  0.00    +0.000 S 
ATOM      6  N   UNL     1       0.298  11.002  19.015  0.00  0.00    +0.000 N 
ATOM      7  C   UNL     1       0.958  12.161  19.420  0.00  0.00    +0.000 C 
ATOM      8  O   UNL     1       2.136  12.227  19.744  0.00  0.00    +0.000 OA
ENDROOT
BRANCH   1  13
ATOM      9  C   UNL     1       3.701  15.768  20.987  0.00  0.00    +0.000 A 
ATOM     10  C   UNL     1       4.131  16.438  19.832  0.00  0.00    +0.000 A 
ATOM     11  C   UNL     1       3.350  16.461  18.678  0.00  0.00    +0.000 A 
ATOM     12  C   UNL     1       2.113  15.827  18.671  0.00  0.00    +0.000 A 
ATOM     13  C   UNL     1       1.655  15.154  19.815  0.00  0.00    +0.000 A 
ATOM     14  C   UNL     1       2.464  15.108  20.967  0.00  0.00    +0.000 A 
BRANCH   9  16
ATOM     15  C   UNL     1       5.682  14.948  22.062  0.00  0.00    +0.000 C 
ATOM     16  O   UNL     1       4.602  15.869  22.014  0.00  0.00    +0.000 OA
ENDBRANCH   9  16
BRANCH  14  17
ATOM     17  O   UNL     1       2.028  14.420  22.070  0.00  0.00    +0.000 OA
ATOM     18  H   UNL     1       1.104  14.663  22.236  0.00  0.00    +0.000 HD
ENDBRANCH  14  17
ENDBRANCH   1  13
BRANCH   6  19
ATOM     19  C   UNL     1       1.059   9.850  18.847  0.00  0.00    +0.000 C 
ATOM     20  C   UNL     1       1.308   8.858  19.725  0.00  0.00    +0.000 C 
BRANCH  20  21
ATOM     21  C   UNL     1       2.196   7.751  19.208  0.00  0.00    +0.000 C 
ATOM     22  O   UNL     1       2.782   7.829  18.133  0.00  0.00    +0.000 OA
ATOM     23  N   UNL     1       2.354   6.685  20.048  0.00  0.00    +0.000 N 
ATOM     24  H   UNL     1       1.713   6.601  20.847  0.00  0.00    +0.000 HD
BRANCH  23  25
ATOM     25  C   UNL     1       3.178   5.510  19.759  0.00  0.00    +0.000 C 
BRANCH  25  26
ATOM     26  C   UNL     1       2.411   4.551  18.851  0.00  0.00    +0.000 C 
ATOM     27  O   UNL     1       2.681   4.349  17.676  0.00  0.00    +0.000 OA
BRANCH  26  28
ATOM     28  O   UNL     1       1.431   3.869  19.502  0.00  0.00    +0.000 OA
ATOM     29  H   UNL     1       1.051   3.206  18.892  0.00  0.00    +0.000 HD
ENDBRANCH  26  28
ENDBRANCH  25  26
ENDBRANCH  23  25
ENDBRANCH  20  21
BRANCH  20  30
ATOM     30  C   UNL     1       0.925   8.879  21.174  0.00  0.00    +0.000 C 
ATOM     31  C   UNL     1      -0.500   8.594  21.580  0.00  0.00    +0.000 C 
ATOM     32  O   UNL     1       1.746   9.255  22.013  0.00  0.00    +0.000 OA
ENDBRANCH  20  30
ENDBRANCH   6  19
TORSDOF 9
ENDMDL
MODEL 8
REMARK VINA RESULT:      -6.7      7.028     11.896
REMARK  Name = 
REMARK  11 active torsions:
REMARK  status: ('A' for Active; 'I' for Inactive)
REMARK    1  A    between atoms: C_1  and  O_2
REMARK    2  A    between atoms: O_2  and  C_3
REMARK    3  A    between atoms: C_7  and  C_8
REMARK    4  A    between atoms: N_13  and  C_14
REMARK    5  A    between atoms: C_15  and  C_16
REMARK    6  A    between atoms: C_15  and  C_19
REMARK    7  A    between atoms: C_16  and  C_17
REMARK    8  A    between atoms: N_21  and  C_22
REMARK    9  A    between atoms: C_22  and  C_23
REMARK   10  A    between atoms: C_23  and  O_25
REMARK   11  A    between atoms: C_28  and  O_29
REMARK                            x       y       z     vdW  Elec       q    Type
REMARK                         _______ _______ _______ _____ _____    ______ ____
ROOT
ATOM      1  C   UNL     1       1.381  12.269  20.391  0.00  0.00    +0.000 C 
ATOM      2  C   UNL     1       0.282  12.980  20.675  0.00  0.00    +0.000 C 
ATOM      3  S   UNL     1       0.322  14.659  21.054  0.00  0.00    +0.000 S 
ATOM      4  C   UNL     1      -1.427  14.821  20.915  0.00  0.00    +0.000 C 
ATOM      5  S   UNL     1      -2.166  16.313  20.796  0.00  0.00    +0.000 S 
ATOM      6  N   UNL     1      -2.008  13.561  20.866  0.00  0.00    +0.000 N 
ATOM      7  C   UNL     1      -1.125  12.498  20.678  0.00  0.00    +0.000 C 
ATOM      8  O   UNL     1      -1.442  11.317  20.621  0.00  0.00    +0.000 OA
ENDROOT
BRANCH   1  13
ATOM      9  C   UNL     1       1.454   8.469  20.181  0.00  0.00    +0.000 A 
ATOM     10  C   UNL     1       1.633   8.331  18.797  0.00  0.00    +0.000 A 
ATOM     11  C   UNL     1       1.684   9.445  17.960  0.00  0.00    +0.000 A 
ATOM     12  C   UNL     1       1.575  10.719  18.506  0.00  0.00    +0.000 A 
ATOM     13  C   UNL     1       1.401  10.887  19.888  0.00  0.00    +0.000 A 
ATOM     14  C   UNL     1       1.318   9.755  20.722  0.00  0.00    +0.000 A 
BRANCH   9  16
ATOM     15  C   UNL     1       2.077   6.153  20.210  0.00  0.00    +0.000 C 
ATOM     16  O   UNL     1       1.440   7.261  20.827  0.00  0.00    +0.000 OA
ENDBRANCH   9  16
BRANCH  14  17
ATOM     17  O   UNL     1       1.112   9.922  22.068  0.00  0.00    +0.000 OA
ATOM     18  H   UNL     1       1.837   9.489  22.543  0.00  0.00    +0.000 HD
ENDBRANCH  14  17
ENDBRANCH   1  13
BRANCH   6  19
ATOM     19  C   UNL     1      -3.370  13.277  20.867  0.00  0.00    +0.000 C 
ATOM     20  C   UNL     1      -4.194  13.061  21.911  0.00  0.00    +0.000 C 
BRANCH  20  21
ATOM     21  C   UNL     1      -5.629  12.765  21.545  0.00  0.00    +0.000 C 
ATOM     22  O   UNL     1      -6.320  11.979  22.185  0.00  0.00    +0.000 OA
ATOM     23  N   UNL     1      -6.125  13.481  20.492  0.00  0.00    +0.000 N 
ATOM     24  H   UNL     1      -5.458  13.991  19.898  0.00  0.00    +0.000 HD
BRANCH  23  25
ATOM     25  C   UNL     1      -7.490  13.367  19.975  0.00  0.00    +0.000 C 
BRANCH  25  26
ATOM     26  C   UNL     1      -7.565  12.230  18.958  0.00  0.00    +0.000 C 
ATOM     27  O   UNL     1      -7.443  12.376  17.751  0.00  0.00    +0.000 OA
BRANCH  26  28
ATOM     28  O   UNL     1      -7.704  11.007  19.534  0.00  0.00    +0.000 OA
ATOM     29  H   UNL     1      -8.444  11.041  20.171  0.00  0.00    +0.000 HD
ENDBRANCH  26  28
ENDBRANCH  25  26
ENDBRANCH  23  25
ENDBRANCH  20  21
BRANCH  20  30
ATOM     30  C   UNL     1      -3.753  12.921  23.337  0.00  0.00    +0.000 C 
ATOM     31  C   UNL     1      -3.604  14.149  24.202  0.00  0.00    +0.000 C 
ATOM     32  O   UNL     1      -3.391  11.820  23.755  0.00  0.00    +0.000 OA
ENDBRANCH  20  30
ENDBRANCH   6  19
TORSDOF 9
ENDMDL
MODEL 9
REMARK VINA RESULT:      -6.7      1.243      1.943
REMARK  Name = 
REMARK  11 active torsions:
REMARK  status: ('A' for Active; 'I' for Inactive)
REMARK    1  A    between atoms: C_1  and  O_2
REMARK    2  A    between atoms: O_2  and  C_3
REMARK    3  A    between atoms: C_7  and  C_8
REMARK    4  A    between atoms: N_13  and  C_14
REMARK    5  A    between atoms: C_15  and  C_16
REMARK    6  A    between atoms: C_15  and  C_19
REMARK    7  A    between atoms: C_16  and  C_17
REMARK    8  A    between atoms: N_21  and  C_22
REMARK    9  A    between atoms: C_22  and  C_23
REMARK   10  A    between atoms: C_23  and  O_25
REMARK   11  A    between atoms: C_28  and  O_29
REMARK                            x       y       z     vdW  Elec       q    Type
REMARK                         _______ _______ _______ _____ _____    ______ ____
ROOT
ATOM      1  C   UNL     1       2.226   6.567  20.309  0.00  0.00    +0.000 C 
ATOM      2  C   UNL     1       2.853   5.600  19.626  0.00  0.00    +0.000 C 
ATOM      3  S   UNL     1       3.069   4.007  20.243  0.00  0.00    +0.000 S 
ATOM      4  C   UNL     1       3.589   3.380  18.680  0.00  0.00    +0.000 C 
ATOM      5  S   UNL     1       3.653   1.741  18.366  0.00  0.00    +0.000 S 
ATOM      6  N   UNL     1       3.852   4.437  17.819  0.00  0.00    +0.000 N 
ATOM      7  C   UNL     1       3.420   5.689  18.255  0.00  0.00    +0.000 C 
ATOM      8  O   UNL     1       3.570   6.740  17.646  0.00  0.00    +0.000 OA
ENDROOT
BRANCH   1  13
ATOM      9  C   UNL     1       1.051  10.176  20.008  0.00  0.00    +0.000 A 
ATOM     10  C   UNL     1       0.991  10.269  18.610  0.00  0.00    +0.000 A 
ATOM     11  C   UNL     1       1.364   9.199  17.798  0.00  0.00    +0.000 A 
ATOM     12  C   UNL     1       1.787   8.009  18.380  0.00  0.00    +0.000 A 
ATOM     13  C   UNL     1       1.851   7.886  19.776  0.00  0.00    +0.000 A 
ATOM     14  C   UNL     1       1.503   8.983  20.589  0.00  0.00    +0.000 A 
BRANCH   9  16
ATOM     15  C   UNL     1      -0.674  11.368  21.172  0.00  0.00    +0.000 C 
ATOM     16  O   UNL     1       0.636  11.325  20.625  0.00  0.00    +0.000 OA
ENDBRANCH   9  16
BRANCH  14  17
ATOM     17  O   UNL     1       1.602   8.869  21.952  0.00  0.00    +0.000 OA
ATOM     18  H   UNL     1       1.088   8.096  22.232  0.00  0.00    +0.000 HD
ENDBRANCH  14  17
ENDBRANCH   1  13
BRANCH   6  19
ATOM     19  C   UNL     1       4.386   4.347  16.538  0.00  0.00    +0.000 C 
ATOM     20  C   UNL     1       5.656   4.543  16.129  0.00  0.00    +0.000 C 
BRANCH  20  21
ATOM     21  C   UNL     1       5.886   4.372  14.646  0.00  0.00    +0.000 C 
ATOM     22  O   UNL     1       5.005   3.982  13.887  0.00  0.00    +0.000 OA
ATOM     23  N   UNL     1       7.122   4.745  14.197  0.00  0.00    +0.000 N 
ATOM     24  H   UNL     1       7.861   4.902  14.894  0.00  0.00    +0.000 HD
BRANCH  23  25
ATOM     25  C   UNL     1       7.557   4.680  12.802  0.00  0.00    +0.000 C 
BRANCH  25  26
ATOM     26  C   UNL     1       8.348   5.937  12.447  0.00  0.00    +0.000 C 
ATOM     27  O   UNL     1       8.102   6.660  11.493  0.00  0.00    +0.000 OA
BRANCH  26  28
ATOM     28  O   UNL     1       9.322   6.228  13.350  0.00  0.00    +0.000 OA
ATOM     29  H   UNL     1       9.386   5.493  13.992  0.00  0.00    +0.000 HD
ENDBRANCH  26  28
ENDBRANCH  25  26
ENDBRANCH  23  25
ENDBRANCH  20  21
BRANCH  20  30
ATOM     30  C   UNL     1       6.762   5.073  16.990  0.00  0.00    +0.000 C 
ATOM     31  C   UNL     1       6.803   6.538  17.346  0.00  0.00    +0.000 C 
ATOM     32  O   UNL     1       7.702   4.334  17.294  0.00  0.00    +0.000 OA
ENDBRANCH  20  30
ENDBRANCH   6  19
TORSDOF 9
ENDMDL
