MODEL 1
REMARK VINA RESULT:      -6.7      0.000      0.000
REMARK  Name = 
REMARK  3 active torsions:
REMARK  status: ('A' for Active; 'I' for Inactive)
REMARK    1  A    between atoms: C_4  and  C_5
REMARK    2  A    between atoms: C_7  and  C_8
REMARK    3  A    between atoms: C_23  and  C_24
REMARK                            x       y       z     vdW  Elec       q    Type
REMARK                         _______ _______ _______ _____ _____    ______ ____
ROOT
ATOM      1  N   UNL     1      -1.853  12.152  17.127  0.00  0.00    +0.000 N 
ATOM      2  C   UNL     1      -1.233  12.356  18.364  0.00  0.00    +0.000 A 
ATOM      3  N   UNL     1      -1.633  11.440  19.775  0.00  0.00    +0.000 NA
ATOM      4  C   UNL     1      -0.381  11.476  21.059  0.00  0.00    +0.000 A 
ATOM      5  C   UNL     1       1.265  12.405  20.886  0.00  0.00    +0.000 A 
ATOM      6  C   UNL     1       1.457  13.325  19.407  0.00  0.00    +0.000 A 
ATOM      7  N   UNL     1       0.278  13.152  18.134  0.00  0.00    +0.000 NA
ATOM      8  H   UNL     1      -2.086  11.179  17.000  0.00  0.00    +0.000 HD
ATOM      9  H   UNL     1      -1.216  12.525  16.423  0.00  0.00    +0.000 HD
ENDROOT
BRANCH   6  10
ATOM     10  C   UNL     1       1.970  14.820  19.519  0.00  0.00    +0.000 A 
ATOM     11  C   UNL     1       3.196  15.097  20.179  0.00  0.00    +0.000 A 
ATOM     12  C   UNL     1       3.631  16.409  20.457  0.00  0.00    +0.000 A 
ATOM     13  C   UNL     1       2.868  17.508  20.080  0.00  0.00    +0.000 A 
ATOM     14  C   UNL     1       1.648  17.324  19.434  0.00  0.00    +0.000 A 
ATOM     15  C   UNL     1       0.875  18.475  19.138  0.00  0.00    +0.000 A 
ATOM     16  C   UNL     1      -0.395  18.379  18.580  0.00  0.00    +0.000 A 
ATOM     17  C   UNL     1      -0.909  17.129  18.338  0.00  0.00    +0.000 A 
ATOM     18  C   UNL     1      -0.143  15.999  18.630  0.00  0.00    +0.000 A 
ATOM     19  C   UNL     1       1.170  16.001  19.165  0.00  0.00    +0.000 A 
ENDBRANCH   6  10
BRANCH   4  20
ATOM     20  C   UNL     1      -0.236  10.597  21.992  0.00  0.00    +0.000 A 
ATOM     21  C   UNL     1      -0.932  12.016  22.584  0.00  0.00    +0.000 A 
ATOM     22  C   UNL     1      -1.037  13.305  21.559  0.00  0.00    +0.000 A 
ATOM     23  N   UNL     1      -0.415  12.943  20.027  0.00  0.00    +0.000 NA
ATOM     24  C   UNL     1       0.544  11.341  19.465  0.00  0.00    +0.000 A 
ATOM     25  N   UNL     1       0.800  10.711  18.212  0.00  0.00    +0.000 N 
ATOM     26  N   UNL     1       0.555  10.151  20.616  0.00  0.00    +0.000 NA
ATOM     27  H   UNL     1       0.644  11.333  17.432  0.00  0.00    +0.000 HD
ATOM     28  H   UNL     1       0.143   9.922  18.236  0.00  0.00    +0.000 HD
BRANCH  22  29
ATOM     29  C   UNL     1      -0.907  14.710  22.020  0.00  0.00    +0.000 A 
ATOM     30  C   UNL     1       0.299  15.131  22.639  0.00  0.00    +0.000 A 
ATOM     31  C   UNL     1       0.553  16.474  22.921  0.00  0.00    +0.000 A 
ATOM     32  C   UNL     1      -0.399  17.433  22.597  0.00  0.00    +0.000 A 
ATOM     33  C   UNL     1      -1.601  17.064  21.975  0.00  0.00    +0.000 A 
ATOM     34  C   UNL     1      -2.514  18.051  21.567  0.00  0.00    +0.000 A 
ATOM     35  C   UNL     1      -3.680  17.711  20.881  0.00  0.00    +0.000 A 
ATOM     36  C   UNL     1      -3.947  16.384  20.590  0.00  0.00    +0.000 A 
ATOM     37  C   UNL     1      -3.053  15.396  20.990  0.00  0.00    +0.000 A 
ATOM     38  C   UNL     1      -1.864  15.698  21.682  0.00  0.00    +0.000 A 
ENDBRANCH  22  29
ENDBRANCH   4  20
TORSDOF 3
ENDMDL
MODEL 2
REMARK VINA RESULT:      -6.4      2.617      4.796
REMARK  Name = 
REMARK  3 active torsions:
REMARK  status: ('A' for Active; 'I' for Inactive)
REMARK    1  A    between atoms: C_4  and  C_5
REMARK    2  A    between atoms: C_7  and  C_8
REMARK    3  A    between atoms: C_23  and  C_24
REMARK                            x       y       z     vdW  Elec       q    Type
REMARK                         _______ _______ _______ _____ _____    ______ ____
ROOT
ATOM      1  N   UNL     1      -0.551  15.857  18.198  0.00  0.00    +0.000 N 
ATOM      2  C   UNL     1      -0.617  14.954  19.263  0.00  0.00    +0.000 A 
ATOM      3  N   UNL     1      -0.218  13.280  19.100  0.00  0.00    +0.000 NA
ATOM      4  C   UNL     1       0.155  12.453  20.647  0.00  0.00    +0.000 A 
ATOM      5  C   UNL     1       0.152  13.335  22.328  0.00  0.00    +0.000 A 
ATOM      6  C   UNL     1      -0.340  15.016  22.294  0.00  0.00    +0.000 A 
ATOM      7  N   UNL     1      -0.560  15.811  20.758  0.00  0.00    +0.000 NA
ATOM      8  H   UNL     1       0.202  15.617  17.572  0.00  0.00    +0.000 HD
ATOM      9  H   UNL     1      -0.471  16.785  18.614  0.00  0.00    +0.000 HD
ENDROOT
BRANCH   6  10
ATOM     10  C   UNL     1      -1.412  15.502  23.354  0.00  0.00    +0.000 A 
ATOM     11  C   UNL     1      -1.179  15.293  24.739  0.00  0.00    +0.000 A 
ATOM     12  C   UNL     1      -2.157  15.550  25.722  0.00  0.00    +0.000 A 
ATOM     13  C   UNL     1      -3.410  16.040  25.372  0.00  0.00    +0.000 A 
ATOM     14  C   UNL     1      -3.722  16.267  24.034  0.00  0.00    +0.000 A 
ATOM     15  C   UNL     1      -5.038  16.696  23.724  0.00  0.00    +0.000 A 
ATOM     16  C   UNL     1      -5.464  16.857  22.410  0.00  0.00    +0.000 A 
ATOM     17  C   UNL     1      -4.584  16.565  21.398  0.00  0.00    +0.000 A 
ATOM     18  C   UNL     1      -3.289  16.144  21.708  0.00  0.00    +0.000 A 
ATOM     19  C   UNL     1      -2.757  15.986  23.013  0.00  0.00    +0.000 A 
ENDBRANCH   6  10
BRANCH   4  20
ATOM     20  C   UNL     1       0.850  11.373  20.775  0.00  0.00    +0.000 A 
ATOM     21  C   UNL     1      -0.795  11.080  21.017  0.00  0.00    +0.000 A 
ATOM     22  C   UNL     1      -1.809  12.382  21.054  0.00  0.00    +0.000 A 
ATOM     23  N   UNL     1      -0.976  13.836  20.813  0.00  0.00    +0.000 NA
ATOM     24  C   UNL     1       0.951  14.119  20.725  0.00  0.00    +0.000 A 
ATOM     25  N   UNL     1       1.793  15.133  20.184  0.00  0.00    +0.000 N 
ATOM     26  N   UNL     1       1.816  12.708  20.700  0.00  0.00    +0.000 NA
ATOM     27  H   UNL     1       1.292  15.991  20.002  0.00  0.00    +0.000 HD
ATOM     28  H   UNL     1       2.142  14.683  19.330  0.00  0.00    +0.000 HD
BRANCH  22  29
ATOM     29  C   UNL     1      -3.014  12.435  21.917  0.00  0.00    +0.000 A 
ATOM     30  C   UNL     1      -2.867  12.331  23.325  0.00  0.00    +0.000 A 
ATOM     31  C   UNL     1      -3.933  12.562  24.197  0.00  0.00    +0.000 A 
ATOM     32  C   UNL     1      -5.179  12.896  23.680  0.00  0.00    +0.000 A 
ATOM     33  C   UNL     1      -5.369  13.020  22.296  0.00  0.00    +0.000 A 
ATOM     34  C   UNL     1      -6.606  13.449  21.790  0.00  0.00    +0.000 A 
ATOM     35  C   UNL     1      -6.794  13.649  20.423  0.00  0.00    +0.000 A 
ATOM     36  C   UNL     1      -5.747  13.428  19.543  0.00  0.00    +0.000 A 
ATOM     37  C   UNL     1      -4.516  13.000  20.030  0.00  0.00    +0.000 A 
ATOM     38  C   UNL     1      -4.286  12.789  21.403  0.00  0.00    +0.000 A 
ENDBRANCH  22  29
ENDBRANCH   4  20
TORSDOF 3
ENDMDL
MODEL 3
REMARK VINA RESULT:      -6.3      2.831      5.848
REMARK  Name = 
REMARK  3 active torsions:
REMARK  status: ('A' for Active; 'I' for Inactive)
REMARK    1  A    between atoms: C_4  and  C_5
REMARK    2  A    between atoms: C_7  and  C_8
REMARK    3  A    between atoms: C_23  and  C_24
REMARK                            x       y       z     vdW  Elec       q    Type
REMARK                         _______ _______ _______ _____ _____    ______ ____
ROOT
ATOM      1  N   UNL     1      -5.839  15.566  22.054  0.00  0.00    +0.000 N 
ATOM      2  C   UNL     1      -4.516  15.371  22.466  0.00  0.00    +0.000 A 
ATOM      3  N   UNL     1      -3.772  16.313  23.709  0.00  0.00    +0.000 NA
ATOM      4  C   UNL     1      -2.317  15.558  24.438  0.00  0.00    +0.000 A 
ATOM      5  C   UNL     1      -1.657  13.855  23.924  0.00  0.00    +0.000 A 
ATOM      6  C   UNL     1      -2.511  13.084  22.603  0.00  0.00    +0.000 A 
ATOM      7  N   UNL     1      -3.996  13.789  22.019  0.00  0.00    +0.000 NA
ATOM      8  H   UNL     1      -6.416  15.852  22.831  0.00  0.00    +0.000 HD
ATOM      9  H   UNL     1      -6.133  14.695  21.611  0.00  0.00    +0.000 HD
ENDROOT
BRANCH   6  10
ATOM     10  C   UNL     1      -1.658  12.474  21.416  0.00  0.00    +0.000 A 
ATOM     11  C   UNL     1      -1.796  13.000  20.105  0.00  0.00    +0.000 A 
ATOM     12  C   UNL     1      -1.195  12.403  18.978  0.00  0.00    +0.000 A 
ATOM     13  C   UNL     1      -0.417  11.258  19.107  0.00  0.00    +0.000 A 
ATOM     14  C   UNL     1      -0.236  10.673  20.358  0.00  0.00    +0.000 A 
ATOM     15  C   UNL     1       0.505   9.466  20.424  0.00  0.00    +0.000 A 
ATOM     16  C   UNL     1       0.657   8.766  21.616  0.00  0.00    +0.000 A 
ATOM     17  C   UNL     1       0.045   9.256  22.743  0.00  0.00    +0.000 A 
ATOM     18  C   UNL     1      -0.681  10.446  22.673  0.00  0.00    +0.000 A 
ATOM     19  C   UNL     1      -0.859  11.244  21.515  0.00  0.00    +0.000 A 
ENDBRANCH   6  10
BRANCH   4  20
ATOM     20  C   UNL     1      -1.834  15.829  25.603  0.00  0.00    +0.000 A 
ATOM     21  C   UNL     1      -0.883  16.486  24.374  0.00  0.00    +0.000 A 
ATOM     22  C   UNL     1      -1.265  16.097  22.816  0.00  0.00    +0.000 A 
ATOM     23  N   UNL     1      -2.614  15.078  22.735  0.00  0.00    +0.000 NA
ATOM     24  C   UNL     1      -3.553  14.205  24.204  0.00  0.00    +0.000 A 
ATOM     25  N   UNL     1      -4.855  13.652  24.376  0.00  0.00    +0.000 N 
ATOM     26  N   UNL     1      -3.042  14.709  25.696  0.00  0.00    +0.000 NA
ATOM     27  H   UNL     1      -5.315  13.473  23.494  0.00  0.00    +0.000 HD
ATOM     28  H   UNL     1      -5.320  14.378  24.932  0.00  0.00    +0.000 HD
BRANCH  22  29
ATOM     29  C   UNL     1      -0.241  15.939  21.754  0.00  0.00    +0.000 A 
ATOM     30  C   UNL     1       0.831  15.029  21.950  0.00  0.00    +0.000 A 
ATOM     31  C   UNL     1       1.714  14.698  20.922  0.00  0.00    +0.000 A 
ATOM     32  C   UNL     1       1.552  15.275  19.668  0.00  0.00    +0.000 A 
ATOM     33  C   UNL     1       0.501  16.172  19.425  0.00  0.00    +0.000 A 
ATOM     34  C   UNL     1       0.291  16.677  18.132  0.00  0.00    +0.000 A 
ATOM     35  C   UNL     1      -0.792  17.511  17.852  0.00  0.00    +0.000 A 
ATOM     36  C   UNL     1      -1.680  17.849  18.860  0.00  0.00    +0.000 A 
ATOM     37  C   UNL     1      -1.482  17.358  20.148  0.00  0.00    +0.000 A 
ATOM     38  C   UNL     1      -0.404  16.511  20.469  0.00  0.00    +0.000 A 
ENDBRANCH  22  29
ENDBRANCH   4  20
TORSDOF 3
ENDMDL
MODEL 4
REMARK VINA RESULT:      -6.3      1.848      2.978
REMARK  Name = 
REMARK  3 active torsions:
REMARK  status: ('A' for Active; 'I' for Inactive)
REMARK    1  A    between atoms: C_4  and  C_5
REMARK    2  A    between atoms: C_7  and  C_8
REMARK    3  A    between atoms: C_23  and  C_24
REMARK                            x       y       z     vdW  Elec       q    Type
REMARK                         _______ _______ _______ _____ _____    ______ ____
ROOT
ATOM      1  N   UNL     1      -2.203  12.227  17.518  0.00  0.00    +0.000 N 
ATOM      2  C   UNL     1      -1.651  12.297  18.802  0.00  0.00    +0.000 A 
ATOM      3  N   UNL     1      -1.346  10.898  19.769  0.00  0.00    +0.000 NA
ATOM      4  C   UNL     1      -0.168  11.159  21.097  0.00  0.00    +0.000 A 
ATOM      5  C   UNL     1       0.706  12.815  21.405  0.00  0.00    +0.000 A 
ATOM      6  C   UNL     1       0.217  14.130  20.357  0.00  0.00    +0.000 A 
ATOM      7  N   UNL     1      -0.826  13.798  18.999  0.00  0.00    +0.000 NA
ATOM      8  H   UNL     1      -1.899  11.390  17.045  0.00  0.00    +0.000 HD
ATOM      9  H   UNL     1      -1.943  13.094  17.047  0.00  0.00    +0.000 HD
ENDROOT
BRANCH   6  10
ATOM     10  C   UNL     1      -0.129  15.526  21.021  0.00  0.00    +0.000 A 
ATOM     11  C   UNL     1       0.840  16.185  21.822  0.00  0.00    +0.000 A 
ATOM     12  C   UNL     1       0.547  17.342  22.573  0.00  0.00    +0.000 A 
ATOM     13  C   UNL     1      -0.724  17.904  22.552  0.00  0.00    +0.000 A 
ATOM     14  C   UNL     1      -1.735  17.316  21.797  0.00  0.00    +0.000 A 
ATOM     15  C   UNL     1      -3.032  17.885  21.867  0.00  0.00    +0.000 A 
ATOM     16  C   UNL     1      -4.120  17.309  21.221  0.00  0.00    +0.000 A 
ATOM     17  C   UNL     1      -3.922  16.145  20.521  0.00  0.00    +0.000 A 
ATOM     18  C   UNL     1      -2.643  15.589  20.453  0.00  0.00    +0.000 A 
ATOM     19  C   UNL     1      -1.472  16.123  21.048  0.00  0.00    +0.000 A 
ENDBRANCH   6  10
BRANCH   4  20
ATOM     20  C   UNL     1       0.523  10.238  21.681  0.00  0.00    +0.000 A 
ATOM     21  C   UNL     1      -0.750  10.767  22.656  0.00  0.00    +0.000 A 
ATOM     22  C   UNL     1      -1.635  12.057  22.130  0.00  0.00    +0.000 A 
ATOM     23  N   UNL     1      -1.089  12.627  20.633  0.00  0.00    +0.000 NA
ATOM     24  C   UNL     1       0.505  12.088  19.648  0.00  0.00    +0.000 A 
ATOM     25  N   UNL     1       0.917  12.161  18.286  0.00  0.00    +0.000 N 
ATOM     26  N   UNL     1       1.273  10.781  20.316  0.00  0.00    +0.000 NA
ATOM     27  H   UNL     1       0.370  12.824  17.756  0.00  0.00    +0.000 HD
ATOM     28  H   UNL     1       0.786  11.191  17.975  0.00  0.00    +0.000 HD
BRANCH  22  29
ATOM     29  C   UNL     1      -2.220  13.059  23.055  0.00  0.00    +0.000 A 
ATOM     30  C   UNL     1      -1.359  13.841  23.870  0.00  0.00    +0.000 A 
ATOM     31  C   UNL     1      -1.832  14.922  24.616  0.00  0.00    +0.000 A 
ATOM     32  C   UNL     1      -3.183  15.245  24.573  0.00  0.00    +0.000 A 
ATOM     33  C   UNL     1      -4.068  14.506  23.775  0.00  0.00    +0.000 A 
ATOM     34  C   UNL     1      -5.412  14.898  23.666  0.00  0.00    +0.000 A 
ATOM     35  C   UNL     1      -6.293  14.222  22.821  0.00  0.00    +0.000 A 
ATOM     36  C   UNL     1      -5.841  13.149  22.070  0.00  0.00    +0.000 A 
ATOM     37  C   UNL     1      -4.512  12.748  22.170  0.00  0.00    +0.000 A 
ATOM     38  C   UNL     1      -3.592  13.406  23.010  0.00  0.00    +0.000 A 
ENDBRANCH  22  29
ENDBRANCH   4  20
TORSDOF 3
ENDMDL
MODEL 5
REMARK VINA RESULT:      -6.2      4.400      7.156
REMARK  Name = 
REMARK  3 active torsions:
REMARK  status: ('A' for Active; 'I' for Inactive)
REMARK    1  A    between atoms: C_4  and  C_5
REMARK    2  A    between atoms: C_7  and  C_8
REMARK    3  A    between atoms: C_23  and  C_24
REMARK                            x       y       z     vdW  Elec       q    Type
REMARK                         _______ _______ _______ _____ _____    ______ ____
ROOT
ATOM      1  N   UNL     1      -5.495  11.974  25.089  0.00  0.00    +0.000 N 
ATOM      2  C   UNL     1      -5.573  12.905  24.048  0.00  0.00    +0.000 A 
ATOM      3  N   UNL     1      -6.779  14.141  23.983  0.00  0.00    +0.000 NA
ATOM      4  C   UNL     1      -6.374  15.515  22.904  0.00  0.00    +0.000 A 
ATOM      5  C   UNL     1      -4.746  15.636  21.935  0.00  0.00    +0.000 A 
ATOM      6  C   UNL     1      -3.679  14.254  22.083  0.00  0.00    +0.000 A 
ATOM      7  N   UNL     1      -4.050  13.008  23.245  0.00  0.00    +0.000 NA
ATOM      8  H   UNL     1      -5.784  12.389  25.961  0.00  0.00    +0.000 HD
ATOM      9  H   UNL     1      -4.537  11.623  25.088  0.00  0.00    +0.000 HD
ENDROOT
BRANCH   6  10
ATOM     10  C   UNL     1      -3.062  13.642  20.758  0.00  0.00    +0.000 A 
ATOM     11  C   UNL     1      -3.708  12.551  20.119  0.00  0.00    +0.000 A 
ATOM     12  C   UNL     1      -3.133  11.855  19.036  0.00  0.00    +0.000 A 
ATOM     13  C   UNL     1      -1.890  12.220  18.532  0.00  0.00    +0.000 A 
ATOM     14  C   UNL     1      -1.186  13.275  19.107  0.00  0.00    +0.000 A 
ATOM     15  C   UNL     1       0.109  13.560  18.604  0.00  0.00    +0.000 A 
ATOM     16  C   UNL     1       0.919  14.534  19.178  0.00  0.00    +0.000 A 
ATOM     17  C   UNL     1       0.448  15.210  20.276  0.00  0.00    +0.000 A 
ATOM     18  C   UNL     1      -0.828  14.928  20.766  0.00  0.00    +0.000 A 
ATOM     19  C   UNL     1      -1.735  13.981  20.226  0.00  0.00    +0.000 A 
ENDBRANCH   6  10
BRANCH   4  20
ATOM     20  C   UNL     1      -6.871  16.704  22.980  0.00  0.00    +0.000 A 
ATOM     21  C   UNL     1      -7.612  15.802  21.760  0.00  0.00    +0.000 A 
ATOM     22  C   UNL     1      -6.984  14.315  21.416  0.00  0.00    +0.000 A 
ATOM     23  N   UNL     1      -5.664  13.944  22.408  0.00  0.00    +0.000 NA
ATOM     24  C   UNL     1      -4.744  15.108  23.673  0.00  0.00    +0.000 A 
ATOM     25  N   UNL     1      -3.910  14.897  24.809  0.00  0.00    +0.000 N 
ATOM     26  N   UNL     1      -5.507  16.560  23.896  0.00  0.00    +0.000 NA
ATOM     27  H   UNL     1      -3.536  13.959  24.841  0.00  0.00    +0.000 HD
ATOM     28  H   UNL     1      -4.555  15.100  25.582  0.00  0.00    +0.000 HD
BRANCH  22  29
ATOM     29  C   UNL     1      -6.972  13.747  20.045  0.00  0.00    +0.000 A 
ATOM     30  C   UNL     1      -6.642  14.584  18.947  0.00  0.00    +0.000 A 
ATOM     31  C   UNL     1      -6.430  14.070  17.667  0.00  0.00    +0.000 A 
ATOM     32  C   UNL     1      -6.552  12.703  17.449  0.00  0.00    +0.000 A 
ATOM     33  C   UNL     1      -6.867  11.837  18.506  0.00  0.00    +0.000 A 
ATOM     34  C   UNL     1      -6.896  10.449  18.294  0.00  0.00    +0.000 A 
ATOM     35  C   UNL     1      -7.134   9.565  19.347  0.00  0.00    +0.000 A 
ATOM     36  C   UNL     1      -7.343  10.057  20.626  0.00  0.00    +0.000 A 
ATOM     37  C   UNL     1      -7.321  11.430  20.849  0.00  0.00    +0.000 A 
ATOM     38  C   UNL     1      -7.081  12.354  19.814  0.00  0.00    +0.000 A 
ENDBRANCH  22  29
ENDBRANCH   4  20
TORSDOF 3
ENDMDL
MODEL 6
REMARK VINA RESULT:      -6.0      1.566      2.907
REMARK  Name = 
REMARK  3 active torsions:
REMARK  status: ('A' for Active; 'I' for Inactive)
REMARK    1  A    between atoms: C_4  and  C_5
REMARK    2  A    between atoms: C_7  and  C_8
REMARK    3  A    between atoms: C_23  and  C_24
REMARK                            x       y       z     vdW  Elec       q    Type
REMARK                         _______ _______ _______ _____ _____    ______ ____
ROOT
ATOM      1  N   UNL     1      -1.818  12.147  17.075  0.00  0.00    +0.000 N 
ATOM      2  C   UNL     1      -1.150  12.407  18.275  0.00  0.00    +0.000 A 
ATOM      3  N   UNL     1      -1.747  11.890  19.813  0.00  0.00    +0.000 NA
ATOM      4  C   UNL     1      -0.508  11.839  21.109  0.00  0.00    +0.000 A 
ATOM      5  C   UNL     1       1.317  12.278  20.825  0.00  0.00    +0.000 A 
ATOM      6  C   UNL     1       1.714  12.839  19.214  0.00  0.00    +0.000 A 
ATOM      7  N   UNL     1       0.511  12.742  17.955  0.00  0.00    +0.000 NA
ATOM      8  H   UNL     1      -2.292  11.258  17.116  0.00  0.00    +0.000 HD
ATOM      9  H   UNL     1      -1.118  12.216  16.336  0.00  0.00    +0.000 HD
ENDROOT
BRANCH   6  10
ATOM     10  C   UNL     1       2.590  14.152  19.075  0.00  0.00    +0.000 A 
ATOM     11  C   UNL     1       2.709  14.789  17.812  0.00  0.00    +0.000 A 
ATOM     12  C   UNL     1       3.597  15.859  17.580  0.00  0.00    +0.000 A 
ATOM     13  C   UNL     1       4.401  16.353  18.601  0.00  0.00    +0.000 A 
ATOM     14  C   UNL     1       4.351  15.780  19.869  0.00  0.00    +0.000 A 
ATOM     15  C   UNL     1       5.244  16.272  20.855  0.00  0.00    +0.000 A 
ATOM     16  C   UNL     1       5.328  15.697  22.118  0.00  0.00    +0.000 A 
ATOM     17  C   UNL     1       4.536  14.610  22.395  0.00  0.00    +0.000 A 
ATOM     18  C   UNL     1       3.657  14.131  21.422  0.00  0.00    +0.000 A 
ATOM     19  C   UNL     1       3.478  14.672  20.124  0.00  0.00    +0.000 A 
ENDBRANCH   6  10
BRANCH   4  20
ATOM     20  C   UNL     1      -0.577  11.135  22.188  0.00  0.00    +0.000 A 
ATOM     21  C   UNL     1      -0.792  12.778  22.510  0.00  0.00    +0.000 A 
ATOM     22  C   UNL     1      -0.570  13.839  21.265  0.00  0.00    +0.000 A 
ATOM     23  N   UNL     1      -0.166  13.046  19.826  0.00  0.00    +0.000 NA
ATOM     24  C   UNL     1       0.248  11.158  19.567  0.00  0.00    +0.000 A 
ATOM     25  N   UNL     1       0.239  10.272  18.451  0.00  0.00    +0.000 N 
ATOM     26  N   UNL     1      -0.028  10.239  20.916  0.00  0.00    +0.000 NA
ATOM     27  H   UNL     1       0.230  10.766  17.570  0.00  0.00    +0.000 HD
ATOM     28  H   UNL     1      -0.618   9.732  18.618  0.00  0.00    +0.000 HD
BRANCH  22  29
ATOM     29  C   UNL     1      -0.008  15.198  21.461  0.00  0.00    +0.000 A 
ATOM     30  C   UNL     1       0.684  15.500  22.664  0.00  0.00    +0.000 A 
ATOM     31  C   UNL     1       1.393  16.691  22.828  0.00  0.00    +0.000 A 
ATOM     32  C   UNL     1       1.423  17.618  21.793  0.00  0.00    +0.000 A 
ATOM     33  C   UNL     1       0.762  17.358  20.583  0.00  0.00    +0.000 A 
ATOM     34  C   UNL     1       0.876  18.259  19.512  0.00  0.00    +0.000 A 
ATOM     35  C   UNL     1       0.289  17.985  18.276  0.00  0.00    +0.000 A 
ATOM     36  C   UNL     1      -0.417  16.807  18.094  0.00  0.00    +0.000 A 
ATOM     37  C   UNL     1      -0.540  15.906  19.148  0.00  0.00    +0.000 A 
ATOM     38  C   UNL     1       0.040  16.145  20.409  0.00  0.00    +0.000 A 
ENDBRANCH  22  29
ENDBRANCH   4  20
TORSDOF 3
ENDMDL
MODEL 7
REMARK VINA RESULT:      -6.0      2.573      5.569
REMARK  Name = 
REMARK  3 active torsions:
REMARK  status: ('A' for Active; 'I' for Inactive)
REMARK    1  A    between atoms: C_4  and  C_5
REMARK    2  A    between atoms: C_7  and  C_8
REMARK    3  A    between atoms: C_23  and  C_24
REMARK                            x       y       z     vdW  Elec       q    Type
REMARK                         _______ _______ _______ _____ _____    ______ ____
ROOT
ATOM      1  N   UNL     1      -6.078  14.270  19.309  0.00  0.00    +0.000 N 
ATOM      2  C   UNL     1      -5.098  14.351  20.304  0.00  0.00    +0.000 A 
ATOM      3  N   UNL     1      -5.231  15.405  21.668  0.00  0.00    +0.000 NA
ATOM      4  C   UNL     1      -4.179  14.962  23.051  0.00  0.00    +0.000 A 
ATOM      5  C   UNL     1      -3.037  13.446  23.049  0.00  0.00    +0.000 A 
ATOM      6  C   UNL     1      -2.995  12.538  21.551  0.00  0.00    +0.000 A 
ATOM      7  N   UNL     1      -4.131  12.924  20.286  0.00  0.00    +0.000 NA
ATOM      8  H   UNL     1      -6.997  14.412  19.700  0.00  0.00    +0.000 HD
ATOM      9  H   UNL     1      -5.950  13.365  18.855  0.00  0.00    +0.000 HD
ENDROOT
BRANCH   6  10
ATOM     10  C   UNL     1      -1.580  12.145  20.955  0.00  0.00    +0.000 A 
ATOM     11  C   UNL     1      -1.204  12.610  19.668  0.00  0.00    +0.000 A 
ATOM     12  C   UNL     1      -0.038  12.168  19.010  0.00  0.00    +0.000 A 
ATOM     13  C   UNL     1       0.816  11.250  19.611  0.00  0.00    +0.000 A 
ATOM     14  C   UNL     1       0.517  10.738  20.871  0.00  0.00    +0.000 A 
ATOM     15  C   UNL     1       1.380   9.749  21.407  0.00  0.00    +0.000 A 
ATOM     16  C   UNL     1       1.108   9.117  22.615  0.00  0.00    +0.000 A 
ATOM     17  C   UNL     1      -0.045   9.452  23.281  0.00  0.00    +0.000 A 
ATOM     18  C   UNL     1      -0.891  10.428  22.750  0.00  0.00    +0.000 A 
ATOM     19  C   UNL     1      -0.677  11.148  21.548  0.00  0.00    +0.000 A 
ENDBRANCH   6  10
BRANCH   4  20
ATOM     20  C   UNL     1      -4.368  15.306  24.280  0.00  0.00    +0.000 A 
ATOM     21  C   UNL     1      -3.088  16.162  23.590  0.00  0.00    +0.000 A 
ATOM     22  C   UNL     1      -2.603  15.728  22.073  0.00  0.00    +0.000 A 
ATOM     23  N   UNL     1      -3.535  14.458  21.454  0.00  0.00    +0.000 NA
ATOM     24  C   UNL     1      -4.879  13.390  22.378  0.00  0.00    +0.000 A 
ATOM     25  N   UNL     1      -5.977  12.581  21.964  0.00  0.00    +0.000 N 
ATOM     26  N   UNL     1      -5.243  13.963  23.887  0.00  0.00    +0.000 NA
ATOM     27  H   UNL     1      -5.920  12.328  20.988  0.00  0.00    +0.000 HD
ATOM     28  H   UNL     1      -6.777  13.190  22.176  0.00  0.00    +0.000 HD
BRANCH  22  29
ATOM     29  C   UNL     1      -1.188  15.798  21.633  0.00  0.00    +0.000 A 
ATOM     30  C   UNL     1      -0.202  15.056  22.335  0.00  0.00    +0.000 A 
ATOM     31  C   UNL     1       1.104  14.930  21.860  0.00  0.00    +0.000 A 
ATOM     32  C   UNL     1       1.462  15.552  20.670  0.00  0.00    +0.000 A 
ATOM     33  C   UNL     1       0.518  16.288  19.937  0.00  0.00    +0.000 A 
ATOM     34  C   UNL     1       0.866  16.833  18.690  0.00  0.00    +0.000 A 
ATOM     35  C   UNL     1      -0.077  17.504  17.911  0.00  0.00    +0.000 A 
ATOM     36  C   UNL     1      -1.379  17.636  18.365  0.00  0.00    +0.000 A 
ATOM     37  C   UNL     1      -1.736  17.103  19.600  0.00  0.00    +0.000 A 
ATOM     38  C   UNL     1      -0.815  16.416  20.414  0.00  0.00    +0.000 A 
ENDBRANCH  22  29
ENDBRANCH   4  20
TORSDOF 3
ENDMDL
MODEL 8
REMARK VINA RESULT:      -6.0      2.894      5.672
REMARK  Name = 
REMARK  3 active torsions:
REMARK  status: ('A' for Active; 'I' for Inactive)
REMARK    1  A    between atoms: C_4  and  C_5
REMARK    2  A    between atoms: C_7  and  C_8
REMARK    3  A    between atoms: C_23  and  C_24
REMARK                            x       y       z     vdW  Elec       q    Type
REMARK                         _______ _______ _______ _____ _____    ______ ____
ROOT
ATOM      1  N   UNL     1      -1.459  15.327  25.915  0.00  0.00    +0.000 N 
ATOM      2  C   UNL     1      -2.079  15.023  24.699  0.00  0.00    +0.000 A 
ATOM      3  N   UNL     1      -3.619  14.243  24.601  0.00  0.00    +0.000 NA
ATOM      4  C   UNL     1      -4.452  14.446  23.026  0.00  0.00    +0.000 A 
ATOM      5  C   UNL     1      -3.735  15.458  21.590  0.00  0.00    +0.000 A 
ATOM      6  C   UNL     1      -2.136  16.119  21.860  0.00  0.00    +0.000 A 
ATOM      7  N   UNL     1      -1.425  16.013  23.449  0.00  0.00    +0.000 NA
ATOM      8  H   UNL     1      -2.144  15.558  26.618  0.00  0.00    +0.000 HD
ATOM      9  H   UNL     1      -0.791  16.073  25.717  0.00  0.00    +0.000 HD
ENDROOT
BRANCH   6  10
ATOM     10  C   UNL     1      -1.046  15.926  20.726  0.00  0.00    +0.000 A 
ATOM     11  C   UNL     1       0.039  15.035  20.937  0.00  0.00    +0.000 A 
ATOM     12  C   UNL     1       1.127  14.937  20.045  0.00  0.00    +0.000 A 
ATOM     13  C   UNL     1       1.178  15.714  18.894  0.00  0.00    +0.000 A 
ATOM     14  C   UNL     1       0.157  16.619  18.615  0.00  0.00    +0.000 A 
ATOM     15  C   UNL     1       0.294  17.441  17.468  0.00  0.00    +0.000 A 
ATOM     16  C   UNL     1      -0.630  18.434  17.166  0.00  0.00    +0.000 A 
ATOM     17  C   UNL     1      -1.684  18.629  18.024  0.00  0.00    +0.000 A 
ATOM     18  C   UNL     1      -1.815  17.816  19.152  0.00  0.00    +0.000 A 
ATOM     19  C   UNL     1      -0.945  16.759  19.520  0.00  0.00    +0.000 A 
ENDBRANCH   6  10
BRANCH   4  20
ATOM     20  C   UNL     1      -5.722  14.331  22.827  0.00  0.00    +0.000 A 
ATOM     21  C   UNL     1      -4.886  12.968  22.284  0.00  0.00    +0.000 A 
ATOM     22  C   UNL     1      -3.236  13.018  22.311  0.00  0.00    +0.000 A 
ATOM     23  N   UNL     1      -2.661  14.487  22.924  0.00  0.00    +0.000 NA
ATOM     24  C   UNL     1      -3.680  16.091  23.360  0.00  0.00    +0.000 A 
ATOM     25  N   UNL     1      -3.458  17.227  24.191  0.00  0.00    +0.000 N 
ATOM     26  N   UNL     1      -5.318  15.865  23.278  0.00  0.00    +0.000 NA
ATOM     27  H   UNL     1      -2.485  17.338  24.435  0.00  0.00    +0.000 HD
ATOM     28  H   UNL     1      -4.055  17.015  24.999  0.00  0.00    +0.000 HD
BRANCH  22  29
ATOM     29  C   UNL     1      -2.397  12.342  21.291  0.00  0.00    +0.000 A 
ATOM     30  C   UNL     1      -2.417  12.810  19.951  0.00  0.00    +0.000 A 
ATOM     31  C   UNL     1      -1.516  12.343  18.993  0.00  0.00    +0.000 A 
ATOM     32  C   UNL     1      -0.572  11.387  19.350  0.00  0.00    +0.000 A 
ATOM     33  C   UNL     1      -0.508  10.903  20.666  0.00  0.00    +0.000 A 
ATOM     34  C   UNL     1       0.508  10.008  21.038  0.00  0.00    +0.000 A 
ATOM     35  C   UNL     1       0.635   9.572  22.357  0.00  0.00    +0.000 A 
ATOM     36  C   UNL     1      -0.249  10.028  23.322  0.00  0.00    +0.000 A 
ATOM     37  C   UNL     1      -1.263  10.913  22.966  0.00  0.00    +0.000 A 
ATOM     38  C   UNL     1      -1.422  11.378  21.647  0.00  0.00    +0.000 A 
ENDBRANCH  22  29
ENDBRANCH   4  20
TORSDOF 3
ENDMDL
MODEL 9
REMARK VINA RESULT:      -6.0      2.442      5.478
REMARK  Name = 
REMARK  3 active torsions:
REMARK  status: ('A' for Active; 'I' for Inactive)
REMARK    1  A    between atoms: C_4  and  C_5
REMARK    2  A    between atoms: C_7  and  C_8
REMARK    3  A    between atoms: C_23  and  C_24
REMARK                            x       y       z     vdW  Elec       q    Type
REMARK                         _______ _______ _______ _____ _____    ______ ____
ROOT
ATOM      1  N   UNL     1       0.435  10.247  22.649  0.00  0.00    +0.000 N 
ATOM      2  C   UNL     1       0.042  11.330  21.855  0.00  0.00    +0.000 A 
ATOM      3  N   UNL     1       1.167  12.455  21.180  0.00  0.00    +0.000 NA
ATOM      4  C   UNL     1       0.530  13.397  19.793  0.00  0.00    +0.000 A 
ATOM      5  C   UNL     1      -1.217  13.165  19.090  0.00  0.00    +0.000 A 
ATOM      6  C   UNL     1      -2.229  12.022  19.949  0.00  0.00    +0.000 A 
ATOM      7  N   UNL     1      -1.526  11.033  21.202  0.00  0.00    +0.000 NA
ATOM      8  H   UNL     1       1.329   9.889  22.348  0.00  0.00    +0.000 HD
ATOM      9  H   UNL     1      -0.325   9.568  22.604  0.00  0.00    +0.000 HD
ENDROOT
BRANCH   6  10
ATOM     10  C   UNL     1      -3.704  12.462  20.322  0.00  0.00    +0.000 A 
ATOM     11  C   UNL     1      -4.580  12.924  19.304  0.00  0.00    +0.000 A 
ATOM     12  C   UNL     1      -5.844  13.482  19.584  0.00  0.00    +0.000 A 
ATOM     13  C   UNL     1      -6.300  13.596  20.892  0.00  0.00    +0.000 A 
ATOM     14  C   UNL     1      -5.499  13.174  21.951  0.00  0.00    +0.000 A 
ATOM     15  C   UNL     1      -5.980  13.381  23.269  0.00  0.00    +0.000 A 
ATOM     16  C   UNL     1      -5.208  13.075  24.384  0.00  0.00    +0.000 A 
ATOM     17  C   UNL     1      -3.941  12.585  24.188  0.00  0.00    +0.000 A 
ATOM     18  C   UNL     1      -3.474  12.381  22.888  0.00  0.00    +0.000 A 
ATOM     19  C   UNL     1      -4.199  12.629  21.695  0.00  0.00    +0.000 A 
ENDBRANCH   6  10
BRANCH   4  20
ATOM     20  C   UNL     1       1.243  13.975  18.886  0.00  0.00    +0.000 A 
ATOM     21  C   UNL     1       0.583  15.098  19.960  0.00  0.00    +0.000 A 
ATOM     22  C   UNL     1      -0.490  14.546  21.086  0.00  0.00    +0.000 A 
ATOM     23  N   UNL     1      -0.728  12.875  20.961  0.00  0.00    +0.000 NA
ATOM     24  C   UNL     1      -0.076  11.666  19.577  0.00  0.00    +0.000 A 
ATOM     25  N   UNL     1       0.144  10.260  19.494  0.00  0.00    +0.000 N 
ATOM     26  N   UNL     1       0.986  12.385  18.531  0.00  0.00    +0.000 NA
ATOM     27  H   UNL     1      -0.340   9.753  20.220  0.00  0.00    +0.000 HD
ATOM     28  H   UNL     1       1.166  10.203  19.576  0.00  0.00    +0.000 HD
BRANCH  22  29
ATOM     29  C   UNL     1      -1.640  15.353  21.561  0.00  0.00    +0.000 A 
ATOM     30  C   UNL     1      -2.612  15.798  20.628  0.00  0.00    +0.000 A 
ATOM     31  C   UNL     1      -3.807  16.395  21.034  0.00  0.00    +0.000 A 
ATOM     32  C   UNL     1      -4.057  16.569  22.390  0.00  0.00    +0.000 A 
ATOM     33  C   UNL     1      -3.130  16.136  23.349  0.00  0.00    +0.000 A 
ATOM     34  C   UNL     1      -3.434  16.232  24.717  0.00  0.00    +0.000 A 
ATOM     35  C   UNL     1      -2.559  15.740  25.685  0.00  0.00    +0.000 A 
ATOM     36  C   UNL     1      -1.370  15.142  25.299  0.00  0.00    +0.000 A 
ATOM     37  C   UNL     1      -1.054  15.043  23.948  0.00  0.00    +0.000 A 
ATOM     38  C   UNL     1      -1.913  15.524  22.941  0.00  0.00    +0.000 A 
ENDBRANCH  22  29
ENDBRANCH   4  20
TORSDOF 3
ENDMDL
