MODEL 1
REMARK VINA RESULT:      -7.3      0.000      0.000
REMARK  Name = 
REMARK  11 active torsions:
REMARK  status: ('A' for Active; 'I' for Inactive)
REMARK    1  A    between atoms: C_1  and  C_2
REMARK    2  A    between atoms: C_2  and  C_3
REMARK    3  A    between atoms: C_3  and  C_4
REMARK    4  A    between atoms: C_4  and  O_6
REMARK    5  A    between atoms: O_6  and  C_7
REMARK    6  A    between atoms: C_7  and  C_8
REMARK    7  A    between atoms: C_8  and  C_9
REMARK    8  A    between atoms: C_14  and  C_15
REMARK    9  A    between atoms: C_25  and  O_26
REMARK   10  A    between atoms: C_25  and  C_27
REMARK   11  A    between atoms: C_27  and  O_28
REMARK                            x       y       z     vdW  Elec       q    Type
REMARK                         _______ _______ _______ _____ _____    ______ ____
ROOT
ATOM      1  C   UNL     1       6.886   7.190  17.422  0.00  0.00    +0.000 C 
ATOM      2  C   UNL     1       7.057   8.733  17.201  0.00  0.00    +0.000 C 
ATOM      3  C   UNL     1       7.900   6.920  18.553  0.00  0.00    +0.000 C 
ATOM      4  O   UNL     1       8.815   7.704  18.832  0.00  0.00    +0.000 OA
ATOM      5  C   UNL     1       7.920   5.602  19.232  0.00  0.00    +0.000 C 
ATOM      6  C   UNL     1       6.614   4.914  19.462  0.00  0.00    +0.000 C 
ATOM      7  C   UNL     1       5.432   5.144  18.499  0.00  0.00    +0.000 C 
ATOM      8  C   UNL     1       5.494   4.172  17.302  0.00  0.00    +0.000 C 
ATOM      9  C   UNL     1       5.411   6.651  18.011  0.00  0.00    +0.000 C 
ATOM     10  C   UNL     1       4.045   6.836  17.255  0.00  0.00    +0.000 C 
ATOM     11  C   UNL     1       2.733   6.330  18.054  0.00  0.00    +0.000 C 
ATOM     12  C   UNL     1       2.756   4.921  18.751  0.00  0.00    +0.000 C 
ATOM     13  C   UNL     1       2.358   3.744  17.817  0.00  0.00    +0.000 C 
ATOM     14  C   UNL     1       2.781   2.399  18.434  0.00  0.00    +0.000 C 
ATOM     15  C   UNL     1       3.050   2.567  19.941  0.00  0.00    +0.000 C 
ATOM     16  C   UNL     1       4.301   3.414  20.099  0.00  0.00    +0.000 C 
ATOM     17  C   UNL     1       4.162   4.787  19.386  0.00  0.00    +0.000 C 
ATOM     18  C   UNL     1       1.880   3.284  20.639  0.00  0.00    +0.000 C 
ATOM     19  C   UNL     1       1.688   4.700  19.953  0.00  0.00    +0.000 C 
ENDROOT
BRANCH  18  20
ATOM     20  O   UNL     1       2.210   3.516  22.028  0.00  0.00    +0.000 OA
ATOM     21  H   UNL     1       1.422   3.883  22.469  0.00  0.00    +0.000 HD
ENDBRANCH  18  20
BRANCH   1  22
ATOM     22  C   UNL     1       7.562   6.566  16.160  0.00  0.00    +0.000 C 
BRANCH  22  23
ATOM     23  O   UNL     1       6.619   5.967  15.255  0.00  0.00    +0.000 OA
BRANCH  23  24
ATOM     24  C   UNL     1       7.163   5.294  14.203  0.00  0.00    +0.000 C 
ATOM     25  O   UNL     1       8.224   5.540  13.632  0.00  0.00    +0.000 OA
BRANCH  24  26
ATOM     26  C   UNL     1       6.277   4.092  13.829  0.00  0.00    +0.000 C 
BRANCH  26  28
ATOM     27  C   UNL     1       5.120   3.004  11.845  0.00  0.00    +0.000 C 
ATOM     28  C   UNL     1       6.404   3.627  12.380  0.00  0.00    +0.000 C 
ENDBRANCH  26  28
ENDBRANCH  24  26
ENDBRANCH  23  24
ENDBRANCH  22  23
ENDBRANCH   1  22
BRANCH  18  29
ATOM     29  C   UNL     1       0.661   2.324  20.672  0.00  0.00    +0.000 C 
BRANCH  29  30
ATOM     30  O   UNL     1      -0.237   2.575  19.598  0.00  0.00    +0.000 OA
ATOM     31  H   UNL     1      -0.185   3.536  19.432  0.00  0.00    +0.000 HD
ENDBRANCH  29  30
ENDBRANCH  18  29
TORSDOF 8
ENDMDL
MODEL 2
REMARK VINA RESULT:      -6.4      5.042      7.603
REMARK  Name = 
REMARK  11 active torsions:
REMARK  status: ('A' for Active; 'I' for Inactive)
REMARK    1  A    between atoms: C_1  and  C_2
REMARK    2  A    between atoms: C_2  and  C_3
REMARK    3  A    between atoms: C_3  and  C_4
REMARK    4  A    between atoms: C_4  and  O_6
REMARK    5  A    between atoms: O_6  and  C_7
REMARK    6  A    between atoms: C_7  and  C_8
REMARK    7  A    between atoms: C_8  and  C_9
REMARK    8  A    between atoms: C_14  and  C_15
REMARK    9  A    between atoms: C_25  and  O_26
REMARK   10  A    between atoms: C_25  and  C_27
REMARK   11  A    between atoms: C_27  and  O_28
REMARK                            x       y       z     vdW  Elec       q    Type
REMARK                         _______ _______ _______ _____ _____    ______ ____
ROOT
ATOM      1  C   UNL     1       0.335  10.446  19.683  0.00  0.00    +0.000 C 
ATOM      2  C   UNL     1      -0.092  11.266  20.950  0.00  0.00    +0.000 C 
ATOM      3  C   UNL     1       1.355  11.397  19.022  0.00  0.00    +0.000 C 
ATOM      4  O   UNL     1       1.419  12.602  19.294  0.00  0.00    +0.000 OA
ATOM      5  C   UNL     1       2.181  10.924  17.886  0.00  0.00    +0.000 C 
ATOM      6  C   UNL     1       2.656   9.507  17.908  0.00  0.00    +0.000 C 
ATOM      7  C   UNL     1       1.827   8.420  18.621  0.00  0.00    +0.000 C 
ATOM      8  C   UNL     1       0.759   7.827  17.678  0.00  0.00    +0.000 C 
ATOM      9  C   UNL     1       1.166   9.011  19.934  0.00  0.00    +0.000 C 
ATOM     10  C   UNL     1       0.570   7.777  20.704  0.00  0.00    +0.000 C 
ATOM     11  C   UNL     1       1.582   6.533  20.917  0.00  0.00    +0.000 C 
ATOM     12  C   UNL     1       2.437   6.024  19.701  0.00  0.00    +0.000 C 
ATOM     13  C   UNL     1       1.712   4.981  18.807  0.00  0.00    +0.000 C 
ATOM     14  C   UNL     1       2.430   4.837  17.453  0.00  0.00    +0.000 C 
ATOM     15  C   UNL     1       3.859   5.402  17.547  0.00  0.00    +0.000 C 
ATOM     16  C   UNL     1       3.755   6.908  17.711  0.00  0.00    +0.000 C 
ATOM     17  C   UNL     1       2.904   7.296  18.950  0.00  0.00    +0.000 C 
ATOM     18  C   UNL     1       4.606   4.827  18.764  0.00  0.00    +0.000 C 
ATOM     19  C   UNL     1       3.782   5.193  20.068  0.00  0.00    +0.000 C 
ENDROOT
BRANCH  18  20
ATOM     20  O   UNL     1       5.904   5.454  18.881  0.00  0.00    +0.000 OA
ATOM     21  H   UNL     1       6.087   5.927  18.049  0.00  0.00    +0.000 HD
ENDBRANCH  18  20
BRANCH   1  22
ATOM     22  C   UNL     1      -0.916  10.538  18.754  0.00  0.00    +0.000 C 
BRANCH  22  23
ATOM     23  O   UNL     1      -1.911  11.456  19.237  0.00  0.00    +0.000 OA
BRANCH  23  24
ATOM     24  C   UNL     1      -3.110  11.414  18.593  0.00  0.00    +0.000 C 
ATOM     25  O   UNL     1      -4.110  12.085  18.841  0.00  0.00    +0.000 OA
BRANCH  24  26
ATOM     26  C   UNL     1      -3.046  10.420  17.420  0.00  0.00    +0.000 C 
BRANCH  26  28
ATOM     27  C   UNL     1      -2.989  10.156  14.893  0.00  0.00    +0.000 C 
ATOM     28  C   UNL     1      -3.477  10.992  16.070  0.00  0.00    +0.000 C 
ENDBRANCH  26  28
ENDBRANCH  24  26
ENDBRANCH  23  24
ENDBRANCH  22  23
ENDBRANCH   1  22
BRANCH  18  29
ATOM     29  C   UNL     1       4.908   3.328  18.497  0.00  0.00    +0.000 C 
BRANCH  29  30
ATOM     30  O   UNL     1       5.190   2.623  19.700  0.00  0.00    +0.000 OA
ATOM     31  H   UNL     1       4.477   2.869  20.320  0.00  0.00    +0.000 HD
ENDBRANCH  29  30
ENDBRANCH  18  29
TORSDOF 8
ENDMDL
MODEL 3
REMARK VINA RESULT:      -6.3      9.174     11.293
REMARK  Name = 
REMARK  11 active torsions:
REMARK  status: ('A' for Active; 'I' for Inactive)
REMARK    1  A    between atoms: C_1  and  C_2
REMARK    2  A    between atoms: C_2  and  C_3
REMARK    3  A    between atoms: C_3  and  C_4
REMARK    4  A    between atoms: C_4  and  O_6
REMARK    5  A    between atoms: O_6  and  C_7
REMARK    6  A    between atoms: C_7  and  C_8
REMARK    7  A    between atoms: C_8  and  C_9
REMARK    8  A    between atoms: C_14  and  C_15
REMARK    9  A    between atoms: C_25  and  O_26
REMARK   10  A    between atoms: C_25  and  C_27
REMARK   11  A    between atoms: C_27  and  O_28
REMARK                            x       y       z     vdW  Elec       q    Type
REMARK                         _______ _______ _______ _____ _____    ______ ____
ROOT
ATOM      1  C   UNL     1      10.878  13.471  19.613  0.00  0.00    +0.000 C 
ATOM      2  C   UNL     1      12.333  13.938  19.262  0.00  0.00    +0.000 C 
ATOM      3  C   UNL     1      11.023  11.935  19.575  0.00  0.00    +0.000 C 
ATOM      4  O   UNL     1      11.967  11.367  19.013  0.00  0.00    +0.000 OA
ATOM      5  C   UNL     1       9.919  11.074  20.062  0.00  0.00    +0.000 C 
ATOM      6  C   UNL     1       9.136  11.542  21.245  0.00  0.00    +0.000 C 
ATOM      7  C   UNL     1       8.970  13.050  21.522  0.00  0.00    +0.000 C 
ATOM      8  C   UNL     1       7.759  13.625  20.756  0.00  0.00    +0.000 C 
ATOM      9  C   UNL     1      10.301  13.824  21.148  0.00  0.00    +0.000 C 
ATOM     10  C   UNL     1      10.115  15.284  21.700  0.00  0.00    +0.000 C 
ATOM     11  C   UNL     1       9.641  15.390  23.243  0.00  0.00    +0.000 C 
ATOM     12  C   UNL     1       8.455  14.489  23.744  0.00  0.00    +0.000 C 
ATOM     13  C   UNL     1       7.047  15.105  23.511  0.00  0.00    +0.000 C 
ATOM     14  C   UNL     1       5.957  14.028  23.650  0.00  0.00    +0.000 C 
ATOM     15  C   UNL     1       6.512  12.804  24.401  0.00  0.00    +0.000 C 
ATOM     16  C   UNL     1       7.533  12.130  23.501  0.00  0.00    +0.000 C 
ATOM     17  C   UNL     1       8.665  13.105  23.081  0.00  0.00    +0.000 C 
ATOM     18  C   UNL     1       7.209  13.222  25.708  0.00  0.00    +0.000 C 
ATOM     19  C   UNL     1       8.383  14.223  25.343  0.00  0.00    +0.000 C 
ENDROOT
BRANCH  18  20
ATOM     20  O   UNL     1       7.806  12.063  26.334  0.00  0.00    +0.000 OA
ATOM     21  H   UNL     1       7.338  11.897  27.172  0.00  0.00    +0.000 HD
ENDBRANCH  18  20
BRANCH   1  22
ATOM     22  C   UNL     1      10.069  13.801  18.319  0.00  0.00    +0.000 C 
BRANCH  22  23
ATOM     23  O   UNL     1      10.308  15.131  17.829  0.00  0.00    +0.000 OA
BRANCH  23  24
ATOM     24  C   UNL     1       9.265  15.997  17.951  0.00  0.00    +0.000 C 
ATOM     25  O   UNL     1       8.082  15.777  17.695  0.00  0.00    +0.000 OA
BRANCH  24  26
ATOM     26  C   UNL     1       9.753  17.335  18.534  0.00  0.00    +0.000 C 
BRANCH  26  28
ATOM     27  C   UNL     1      11.816  18.553  17.686  0.00  0.00    +0.000 C 
ATOM     28  C   UNL     1      11.271  17.481  18.621  0.00  0.00    +0.000 C 
ENDBRANCH  26  28
ENDBRANCH  24  26
ENDBRANCH  23  24
ENDBRANCH  22  23
ENDBRANCH   1  22
BRANCH  18  29
ATOM     29  C   UNL     1       6.130  13.707  26.712  0.00  0.00    +0.000 C 
BRANCH  29  30
ATOM     30  O   UNL     1       5.137  12.713  26.941  0.00  0.00    +0.000 OA
ATOM     31  H   UNL     1       4.904  12.788  27.886  0.00  0.00    +0.000 HD
ENDBRANCH  29  30
ENDBRANCH  18  29
TORSDOF 8
ENDMDL
MODEL 4
REMARK VINA RESULT:      -6.3      9.328     11.688
REMARK  Name = 
REMARK  11 active torsions:
REMARK  status: ('A' for Active; 'I' for Inactive)
REMARK    1  A    between atoms: C_1  and  C_2
REMARK    2  A    between atoms: C_2  and  C_3
REMARK    3  A    between atoms: C_3  and  C_4
REMARK    4  A    between atoms: C_4  and  O_6
REMARK    5  A    between atoms: O_6  and  C_7
REMARK    6  A    between atoms: C_7  and  C_8
REMARK    7  A    between atoms: C_8  and  C_9
REMARK    8  A    between atoms: C_14  and  C_15
REMARK    9  A    between atoms: C_25  and  O_26
REMARK   10  A    between atoms: C_25  and  C_27
REMARK   11  A    between atoms: C_27  and  O_28
REMARK                            x       y       z     vdW  Elec       q    Type
REMARK                         _______ _______ _______ _____ _____    ______ ____
ROOT
ATOM      1  C   UNL     1       0.022  11.180  19.465  0.00  0.00    +0.000 C 
ATOM      2  C   UNL     1       1.019   9.988  19.676  0.00  0.00    +0.000 C 
ATOM      3  C   UNL     1      -0.856  10.655  18.310  0.00  0.00    +0.000 C 
ATOM      4  O   UNL     1      -0.509   9.722  17.577  0.00  0.00    +0.000 OA
ATOM      5  C   UNL     1      -2.085  11.388  17.922  0.00  0.00    +0.000 C 
ATOM      6  C   UNL     1      -2.892  12.026  19.006  0.00  0.00    +0.000 C 
ATOM      7  C   UNL     1      -2.209  12.518  20.298  0.00  0.00    +0.000 C 
ATOM      8  C   UNL     1      -1.680  13.958  20.132  0.00  0.00    +0.000 C 
ATOM      9  C   UNL     1      -1.046  11.526  20.712  0.00  0.00    +0.000 C 
ATOM     10  C   UNL     1      -0.597  11.971  22.151  0.00  0.00    +0.000 C 
ATOM     11  C   UNL     1      -1.791  12.154  23.227  0.00  0.00    +0.000 C 
ATOM     12  C   UNL     1      -3.080  12.953  22.813  0.00  0.00    +0.000 C 
ATOM     13  C   UNL     1      -2.970  14.489  23.020  0.00  0.00    +0.000 C 
ATOM     14  C   UNL     1      -4.078  15.219  22.240  0.00  0.00    +0.000 C 
ATOM     15  C   UNL     1      -5.204  14.236  21.870  0.00  0.00    +0.000 C 
ATOM     16  C   UNL     1      -4.655  13.267  20.838  0.00  0.00    +0.000 C 
ATOM     17  C   UNL     1      -3.394  12.523  21.358  0.00  0.00    +0.000 C 
ATOM     18  C   UNL     1      -5.669  13.434  23.099  0.00  0.00    +0.000 C 
ATOM     19  C   UNL     1      -4.420  12.648  23.677  0.00  0.00    +0.000 C 
ENDROOT
BRANCH  18  20
ATOM     20  O   UNL     1      -6.651  12.452  22.696  0.00  0.00    +0.000 OA
ATOM     21  H   UNL     1      -6.928  11.958  23.490  0.00  0.00    +0.000 HD
ENDBRANCH  18  20
BRANCH   1  22
ATOM     22  C   UNL     1       0.906  12.277  18.792  0.00  0.00    +0.000 C 
BRANCH  22  23
ATOM     23  O   UNL     1       2.171  12.462  19.449  0.00  0.00    +0.000 OA
BRANCH  23  24
ATOM     24  C   UNL     1       2.277  13.585  20.213  0.00  0.00    +0.000 C 
ATOM     25  O   UNL     1       2.573  13.648  21.405  0.00  0.00    +0.000 OA
BRANCH  24  26
ATOM     26  C   UNL     1       2.029  14.836  19.350  0.00  0.00    +0.000 C 
BRANCH  26  28
ATOM     27  C   UNL     1       3.026  16.432  17.643  0.00  0.00    +0.000 C 
ATOM     28  C   UNL     1       3.293  15.520  18.834  0.00  0.00    +0.000 C 
ENDBRANCH  26  28
ENDBRANCH  24  26
ENDBRANCH  23  24
ENDBRANCH  22  23
ENDBRANCH   1  22
BRANCH  18  29
ATOM     29  C   UNL     1      -6.429  14.391  24.056  0.00  0.00    +0.000 C 
BRANCH  29  30
ATOM     30  O   UNL     1      -7.508  13.734  24.711  0.00  0.00    +0.000 OA
ATOM     31  H   UNL     1      -7.723  12.963  24.152  0.00  0.00    +0.000 HD
ENDBRANCH  29  30
ENDBRANCH  18  29
TORSDOF 8
ENDMDL
MODEL 5
REMARK VINA RESULT:      -6.3      9.088     11.092
REMARK  Name = 
REMARK  11 active torsions:
REMARK  status: ('A' for Active; 'I' for Inactive)
REMARK    1  A    between atoms: C_1  and  C_2
REMARK    2  A    between atoms: C_2  and  C_3
REMARK    3  A    between atoms: C_3  and  C_4
REMARK    4  A    between atoms: C_4  and  O_6
REMARK    5  A    between atoms: O_6  and  C_7
REMARK    6  A    between atoms: C_7  and  C_8
REMARK    7  A    between atoms: C_8  and  C_9
REMARK    8  A    between atoms: C_14  and  C_15
REMARK    9  A    between atoms: C_25  and  O_26
REMARK   10  A    between atoms: C_25  and  C_27
REMARK   11  A    between atoms: C_27  and  O_28
REMARK                            x       y       z     vdW  Elec       q    Type
REMARK                         _______ _______ _______ _____ _____    ______ ____
ROOT
ATOM      1  C   UNL     1      10.853  13.548  19.755  0.00  0.00    +0.000 C 
ATOM      2  C   UNL     1      12.333  14.011  19.526  0.00  0.00    +0.000 C 
ATOM      3  C   UNL     1      10.983  12.014  19.647  0.00  0.00    +0.000 C 
ATOM      4  O   UNL     1      11.956  11.461  19.121  0.00  0.00    +0.000 OA
ATOM      5  C   UNL     1       9.839  11.145  20.014  0.00  0.00    +0.000 C 
ATOM      6  C   UNL     1       8.983  11.564  21.166  0.00  0.00    +0.000 C 
ATOM      7  C   UNL     1       8.816  13.058  21.508  0.00  0.00    +0.000 C 
ATOM      8  C   UNL     1       7.666  13.689  20.695  0.00  0.00    +0.000 C 
ATOM      9  C   UNL     1      10.178  13.830  21.264  0.00  0.00    +0.000 C 
ATOM     10  C   UNL     1       9.972  15.263  21.878  0.00  0.00    +0.000 C 
ATOM     11  C   UNL     1       9.396  15.297  23.389  0.00  0.00    +0.000 C 
ATOM     12  C   UNL     1       8.169  14.390  23.763  0.00  0.00    +0.000 C 
ATOM     13  C   UNL     1       6.787  15.037  23.468  0.00  0.00    +0.000 C 
ATOM     14  C   UNL     1       5.678  13.971  23.479  0.00  0.00    +0.000 C 
ATOM     15  C   UNL     1       6.168  12.702  24.201  0.00  0.00    +0.000 C 
ATOM     16  C   UNL     1       7.239  12.059  23.338  0.00  0.00    +0.000 C 
ATOM     17  C   UNL     1       8.408  13.038  23.045  0.00  0.00    +0.000 C 
ATOM     18  C   UNL     1       6.780  13.043  25.571  0.00  0.00    +0.000 C 
ATOM     19  C   UNL     1       7.987  14.044  25.337  0.00  0.00    +0.000 C 
ENDROOT
BRANCH  18  20
ATOM     20  O   UNL     1       7.321  11.844  26.175  0.00  0.00    +0.000 OA
ATOM     21  H   UNL     1       8.102  11.572  25.659  0.00  0.00    +0.000 HD
ENDBRANCH  18  20
BRANCH   1  22
ATOM     22  C   UNL     1      10.137  13.954  18.428  0.00  0.00    +0.000 C 
BRANCH  22  23
ATOM     23  O   UNL     1      10.065  15.378  18.241  0.00  0.00    +0.000 OA
BRANCH  23  24
ATOM     24  C   UNL     1       8.822  15.875  17.989  0.00  0.00    +0.000 C 
ATOM     25  O   UNL     1       7.849  15.259  17.560  0.00  0.00    +0.000 OA
BRANCH  24  26
ATOM     26  C   UNL     1       8.758  17.362  18.382  0.00  0.00    +0.000 C 
BRANCH  26  28
ATOM     27  C   UNL     1       7.150  17.415  20.349  0.00  0.00    +0.000 C 
ATOM     28  C   UNL     1       8.584  17.624  19.876  0.00  0.00    +0.000 C 
ENDBRANCH  26  28
ENDBRANCH  24  26
ENDBRANCH  23  24
ENDBRANCH  22  23
ENDBRANCH   1  22
BRANCH  18  29
ATOM     29  C   UNL     1       5.641  13.491  26.525  0.00  0.00    +0.000 C 
BRANCH  29  30
ATOM     30  O   UNL     1       4.621  12.505  26.628  0.00  0.00    +0.000 OA
ATOM     31  H   UNL     1       4.215  12.639  27.506  0.00  0.00    +0.000 HD
ENDBRANCH  29  30
ENDBRANCH  18  29
TORSDOF 8
ENDMDL
MODEL 6
REMARK VINA RESULT:      -6.3      1.023      1.025
REMARK  Name = 
REMARK  11 active torsions:
REMARK  status: ('A' for Active; 'I' for Inactive)
REMARK    1  A    between atoms: C_1  and  C_2
REMARK    2  A    between atoms: C_2  and  C_3
REMARK    3  A    between atoms: C_3  and  C_4
REMARK    4  A    between atoms: C_4  and  O_6
REMARK    5  A    between atoms: O_6  and  C_7
REMARK    6  A    between atoms: C_7  and  C_8
REMARK    7  A    between atoms: C_8  and  C_9
REMARK    8  A    between atoms: C_14  and  C_15
REMARK    9  A    between atoms: C_25  and  O_26
REMARK   10  A    between atoms: C_25  and  C_27
REMARK   11  A    between atoms: C_27  and  O_28
REMARK                            x       y       z     vdW  Elec       q    Type
REMARK                         _______ _______ _______ _____ _____    ______ ____
ROOT
ATOM      1  C   UNL     1       6.167   7.059  17.096  0.00  0.00    +0.000 C 
ATOM      2  C   UNL     1       6.494   8.592  17.076  0.00  0.00    +0.000 C 
ATOM      3  C   UNL     1       7.441   6.474  17.742  0.00  0.00    +0.000 C 
ATOM      4  O   UNL     1       8.506   7.098  17.802  0.00  0.00    +0.000 OA
ATOM      5  C   UNL     1       7.476   5.050  18.152  0.00  0.00    +0.000 C 
ATOM      6  C   UNL     1       6.227   4.452  18.714  0.00  0.00    +0.000 C 
ATOM      7  C   UNL     1       4.846   4.980  18.276  0.00  0.00    +0.000 C 
ATOM      8  C   UNL     1       4.361   4.269  16.995  0.00  0.00    +0.000 C 
ATOM      9  C   UNL     1       4.901   6.550  18.071  0.00  0.00    +0.000 C 
ATOM     10  C   UNL     1       3.410   7.008  17.882  0.00  0.00    +0.000 C 
ATOM     11  C   UNL     1       2.369   6.474  18.999  0.00  0.00    +0.000 C 
ATOM     12  C   UNL     1       2.400   4.957  19.411  0.00  0.00    +0.000 C 
ATOM     13  C   UNL     1       1.540   4.035  18.503  0.00  0.00    +0.000 C 
ATOM     14  C   UNL     1       1.927   2.560  18.711  0.00  0.00    +0.000 C 
ATOM     15  C   UNL     1       2.697   2.394  20.034  0.00  0.00    +0.000 C 
ATOM     16  C   UNL     1       4.046   3.074  19.876  0.00  0.00    +0.000 C 
ATOM     17  C   UNL     1       3.897   4.569  19.484  0.00  0.00    +0.000 C 
ATOM     18  C   UNL     1       1.947   3.059  21.202  0.00  0.00    +0.000 C 
ATOM     19  C   UNL     1       1.764   4.596  20.860  0.00  0.00    +0.000 C 
ENDROOT
BRANCH  18  20
ATOM     20  O   UNL     1       2.745   2.975  22.405  0.00  0.00    +0.000 OA
ATOM     21  H   UNL     1       3.398   3.698  22.387  0.00  0.00    +0.000 HD
ENDBRANCH  18  20
BRANCH   1  22
ATOM     22  C   UNL     1       6.286   6.644  15.595  0.00  0.00    +0.000 C 
BRANCH  22  23
ATOM     23  O   UNL     1       7.149   5.513  15.390  0.00  0.00    +0.000 OA
BRANCH  23  24
ATOM     24  C   UNL     1       7.352   5.158  14.091  0.00  0.00    +0.000 C 
ATOM     25  O   UNL     1       8.201   5.606  13.322  0.00  0.00    +0.000 OA
BRANCH  24  26
ATOM     26  C   UNL     1       6.385   4.029  13.694  0.00  0.00    +0.000 C 
BRANCH  26  28
ATOM     27  C   UNL     1       5.310   2.674  11.832  0.00  0.00    +0.000 C 
ATOM     28  C   UNL     1       6.423   3.640  12.218  0.00  0.00    +0.000 C 
ENDBRANCH  26  28
ENDBRANCH  24  26
ENDBRANCH  23  24
ENDBRANCH  22  23
ENDBRANCH   1  22
BRANCH  18  29
ATOM     29  C   UNL     1       0.673   2.229  21.508  0.00  0.00    +0.000 C 
BRANCH  29  30
ATOM     30  O   UNL     1       0.476   2.061  22.907  0.00  0.00    +0.000 OA
ATOM     31  H   UNL     1      -0.475   1.867  23.016  0.00  0.00    +0.000 HD
ENDBRANCH  29  30
ENDBRANCH  18  29
TORSDOF 8
ENDMDL
MODEL 7
REMARK VINA RESULT:      -6.2      9.697     12.042
REMARK  Name = 
REMARK  11 active torsions:
REMARK  status: ('A' for Active; 'I' for Inactive)
REMARK    1  A    between atoms: C_1  and  C_2
REMARK    2  A    between atoms: C_2  and  C_3
REMARK    3  A    between atoms: C_3  and  C_4
REMARK    4  A    between atoms: C_4  and  O_6
REMARK    5  A    between atoms: O_6  and  C_7
REMARK    6  A    between atoms: C_7  and  C_8
REMARK    7  A    between atoms: C_8  and  C_9
REMARK    8  A    between atoms: C_14  and  C_15
REMARK    9  A    between atoms: C_25  and  O_26
REMARK   10  A    between atoms: C_25  and  C_27
REMARK   11  A    between atoms: C_27  and  O_28
REMARK                            x       y       z     vdW  Elec       q    Type
REMARK                         _______ _______ _______ _____ _____    ______ ____
ROOT
ATOM      1  C   UNL     1      -0.241  11.394  20.504  0.00  0.00    +0.000 C 
ATOM      2  C   UNL     1       0.679  10.197  20.927  0.00  0.00    +0.000 C 
ATOM      3  C   UNL     1      -0.768  10.916  19.135  0.00  0.00    +0.000 C 
ATOM      4  O   UNL     1      -0.223  10.016  18.486  0.00  0.00    +0.000 OA
ATOM      5  C   UNL     1      -1.857  11.661  18.459  0.00  0.00    +0.000 C 
ATOM      6  C   UNL     1      -2.936  12.249  19.310  0.00  0.00    +0.000 C 
ATOM      7  C   UNL     1      -2.633  12.688  20.757  0.00  0.00    +0.000 C 
ATOM      8  C   UNL     1      -2.100  14.136  20.798  0.00  0.00    +0.000 C 
ATOM      9  C   UNL     1      -1.610  11.683  21.429  0.00  0.00    +0.000 C 
ATOM     10  C   UNL     1      -1.572  12.069  22.953  0.00  0.00    +0.000 C 
ATOM     11  C   UNL     1      -3.014  12.202  23.673  0.00  0.00    +0.000 C 
ATOM     12  C   UNL     1      -4.156  13.013  22.959  0.00  0.00    +0.000 C 
ATOM     13  C   UNL     1      -4.128  14.539  23.250  0.00  0.00    +0.000 C 
ATOM     14  C   UNL     1      -4.995  15.299  22.230  0.00  0.00    +0.000 C 
ATOM     15  C   UNL     1      -5.965  14.329  21.531  0.00  0.00    +0.000 C 
ATOM     16  C   UNL     1      -5.144  13.406  20.647  0.00  0.00    +0.000 C 
ATOM     17  C   UNL     1      -4.060  12.645  21.458  0.00  0.00    +0.000 C 
ATOM     18  C   UNL     1      -6.732  13.474  22.556  0.00  0.00    +0.000 C 
ATOM     19  C   UNL     1      -5.674  12.668  23.418  0.00  0.00    +0.000 C 
ENDROOT
BRANCH  18  20
ATOM     20  O   UNL     1      -7.555  12.506  21.864  0.00  0.00    +0.000 OA
ATOM     21  H   UNL     1      -8.214  12.163  22.495  0.00  0.00    +0.000 HD
ENDBRANCH  18  20
BRANCH   1  22
ATOM     22  C   UNL     1       0.776  12.522  20.139  0.00  0.00    +0.000 C 
BRANCH  22  23
ATOM     23  O   UNL     1       1.698  12.814  21.202  0.00  0.00    +0.000 OA
BRANCH  23  24
ATOM     24  C   UNL     1       2.758  13.597  20.859  0.00  0.00    +0.000 C 
ATOM     25  O   UNL     1       3.609  14.067  21.613  0.00  0.00    +0.000 OA
BRANCH  24  26
ATOM     26  C   UNL     1       2.804  13.788  19.333  0.00  0.00    +0.000 C 
BRANCH  26  28
ATOM     27  C   UNL     1       3.841  15.426  17.690  0.00  0.00    +0.000 C 
ATOM     28  C   UNL     1       2.894  15.240  18.869  0.00  0.00    +0.000 C 
ENDBRANCH  26  28
ENDBRANCH  24  26
ENDBRANCH  23  24
ENDBRANCH  22  23
ENDBRANCH   1  22
BRANCH  18  29
ATOM     29  C   UNL     1      -7.736  14.386  23.309  0.00  0.00    +0.000 C 
BRANCH  29  30
ATOM     30  O   UNL     1      -7.805  14.064  24.694  0.00  0.00    +0.000 OA
ATOM     31  H   UNL     1      -7.781  13.089  24.737  0.00  0.00    +0.000 HD
ENDBRANCH  29  30
ENDBRANCH  18  29
TORSDOF 8
ENDMDL
MODEL 8
REMARK VINA RESULT:      -6.1      9.319     12.791
REMARK  Name = 
REMARK  11 active torsions:
REMARK  status: ('A' for Active; 'I' for Inactive)
REMARK    1  A    between atoms: C_1  and  C_2
REMARK    2  A    between atoms: C_2  and  C_3
REMARK    3  A    between atoms: C_3  and  C_4
REMARK    4  A    between atoms: C_4  and  O_6
REMARK    5  A    between atoms: O_6  and  C_7
REMARK    6  A    between atoms: C_7  and  C_8
REMARK    7  A    between atoms: C_8  and  C_9
REMARK    8  A    between atoms: C_14  and  C_15
REMARK    9  A    between atoms: C_25  and  O_26
REMARK   10  A    between atoms: C_25  and  C_27
REMARK   11  A    between atoms: C_27  and  O_28
REMARK                            x       y       z     vdW  Elec       q    Type
REMARK                         _______ _______ _______ _____ _____    ______ ____
ROOT
ATOM      1  C   UNL     1       6.481  14.097  23.459  0.00  0.00    +0.000 C 
ATOM      2  C   UNL     1       4.966  14.489  23.563  0.00  0.00    +0.000 C 
ATOM      3  C   UNL     1       6.454  12.620  23.905  0.00  0.00    +0.000 C 
ATOM      4  O   UNL     1       5.508  12.128  24.531  0.00  0.00    +0.000 OA
ATOM      5  C   UNL     1       7.665  11.778  23.753  0.00  0.00    +0.000 C 
ATOM      6  C   UNL     1       8.519  11.992  22.546  0.00  0.00    +0.000 C 
ATOM      7  C   UNL     1       8.592  13.382  21.881  0.00  0.00    +0.000 C 
ATOM      8  C   UNL     1       9.674  14.259  22.545  0.00  0.00    +0.000 C 
ATOM      9  C   UNL     1       7.174  14.086  21.932  0.00  0.00    +0.000 C 
ATOM     10  C   UNL     1       7.297  15.358  21.016  0.00  0.00    +0.000 C 
ATOM     11  C   UNL     1       7.908  15.098  19.541  0.00  0.00    +0.000 C 
ATOM     12  C   UNL     1       9.205  14.223  19.393  0.00  0.00    +0.000 C 
ATOM     13  C   UNL     1      10.530  15.019  19.549  0.00  0.00    +0.000 C 
ATOM     14  C   UNL     1      11.711  14.061  19.789  0.00  0.00    +0.000 C 
ATOM     15  C   UNL     1      11.329  12.631  19.363  0.00  0.00    +0.000 C 
ATOM     16  C   UNL     1      10.282  12.119  20.337  0.00  0.00    +0.000 C 
ATOM     17  C   UNL     1       9.041  13.051  20.391  0.00  0.00    +0.000 C 
ATOM     18  C   UNL     1      10.731  12.614  17.945  0.00  0.00    +0.000 C 
ATOM     19  C   UNL     1       9.452  13.551  17.937  0.00  0.00    +0.000 C 
ENDROOT
BRANCH  18  20
ATOM     20  O   UNL     1      10.290  11.275  17.619  0.00  0.00    +0.000 OA
ATOM     21  H   UNL     1      10.712  10.657  18.243  0.00  0.00    +0.000 HD
ENDBRANCH  18  20
BRANCH   1  22
ATOM     22  C   UNL     1       7.132  14.839  24.669  0.00  0.00    +0.000 C 
BRANCH  22  23
ATOM     23  O   UNL     1       6.251  14.953  25.799  0.00  0.00    +0.000 OA
BRANCH  23  24
ATOM     24  C   UNL     1       6.773  14.550  26.991  0.00  0.00    +0.000 C 
ATOM     25  O   UNL     1       6.220  14.573  28.089  0.00  0.00    +0.000 OA
BRANCH  24  26
ATOM     26  C   UNL     1       8.187  13.979  26.784  0.00  0.00    +0.000 C 
BRANCH  26  28
ATOM     27  C   UNL     1      10.079  15.675  26.780  0.00  0.00    +0.000 C 
ATOM     28  C   UNL     1       9.282  14.666  27.597  0.00  0.00    +0.000 C 
ENDBRANCH  26  28
ENDBRANCH  24  26
ENDBRANCH  23  24
ENDBRANCH  22  23
ENDBRANCH   1  22
BRANCH  18  29
ATOM     29  C   UNL     1      11.861  12.922  16.927  0.00  0.00    +0.000 C 
BRANCH  29  30
ATOM     30  O   UNL     1      11.410  13.774  15.881  0.00  0.00    +0.000 OA
ATOM     31  H   UNL     1      11.986  14.562  15.918  0.00  0.00    +0.000 HD
ENDBRANCH  29  30
ENDBRANCH  18  29
TORSDOF 8
ENDMDL
MODEL 9
REMARK VINA RESULT:      -6.1      9.252     11.578
REMARK  Name = 
REMARK  11 active torsions:
REMARK  status: ('A' for Active; 'I' for Inactive)
REMARK    1  A    between atoms: C_1  and  C_2
REMARK    2  A    between atoms: C_2  and  C_3
REMARK    3  A    between atoms: C_3  and  C_4
REMARK    4  A    between atoms: C_4  and  O_6
REMARK    5  A    between atoms: O_6  and  C_7
REMARK    6  A    between atoms: C_7  and  C_8
REMARK    7  A    between atoms: C_8  and  C_9
REMARK    8  A    between atoms: C_14  and  C_15
REMARK    9  A    between atoms: C_25  and  O_26
REMARK   10  A    between atoms: C_25  and  C_27
REMARK   11  A    between atoms: C_27  and  O_28
REMARK                            x       y       z     vdW  Elec       q    Type
REMARK                         _______ _______ _______ _____ _____    ______ ____
ROOT
ATOM      1  C   UNL     1       0.060  10.708  19.498  0.00  0.00    +0.000 C 
ATOM      2  C   UNL     1       1.208  10.358  18.487  0.00  0.00    +0.000 C 
ATOM      3  C   UNL     1       0.373   9.755  20.670  0.00  0.00    +0.000 C 
ATOM      4  O   UNL     1       1.101   8.763  20.549  0.00  0.00    +0.000 OA
ATOM      5  C   UNL     1      -0.352   9.899  21.955  0.00  0.00    +0.000 C 
ATOM      6  C   UNL     1      -0.688  11.279  22.418  0.00  0.00    +0.000 C 
ATOM      7  C   UNL     1      -0.927  12.407  21.394  0.00  0.00    +0.000 C 
ATOM      8  C   UNL     1      -2.398  12.431  20.928  0.00  0.00    +0.000 C 
ATOM      9  C   UNL     1       0.059  12.247  20.165  0.00  0.00    +0.000 C 
ATOM     10  C   UNL     1      -0.088  13.566  19.324  0.00  0.00    +0.000 C 
ATOM     11  C   UNL     1       0.039  14.944  20.162  0.00  0.00    +0.000 C 
ATOM     12  C   UNL     1      -0.751  15.096  21.512  0.00  0.00    +0.000 C 
ATOM     13  C   UNL     1      -2.209  15.606  21.341  0.00  0.00    +0.000 C 
ATOM     14  C   UNL     1      -3.024  15.350  22.621  0.00  0.00    +0.000 C 
ATOM     15  C   UNL     1      -2.079  15.095  23.810  0.00  0.00    +0.000 C 
ATOM     16  C   UNL     1      -1.392  13.760  23.582  0.00  0.00    +0.000 C 
ATOM     17  C   UNL     1      -0.631  13.728  22.229  0.00  0.00    +0.000 C 
ATOM     18  C   UNL     1      -1.003  16.191  23.910  0.00  0.00    +0.000 C 
ATOM     19  C   UNL     1      -0.186  16.206  22.552  0.00  0.00    +0.000 C 
ENDROOT
BRANCH  18  20
ATOM     20  O   UNL     1      -0.074  15.866  24.971  0.00  0.00    +0.000 OA
ATOM     21  H   UNL     1      -0.499  16.081  25.822  0.00  0.00    +0.000 HD
ENDBRANCH  18  20
BRANCH   1  22
ATOM     22  C   UNL     1      -1.208  10.082  18.836  0.00  0.00    +0.000 C 
BRANCH  22  23
ATOM     23  O   UNL     1      -1.122  10.017  17.403  0.00  0.00    +0.000 OA
BRANCH  23  24
ATOM     24  C   UNL     1      -2.312  10.052  16.741  0.00  0.00    +0.000 C 
ATOM     25  O   UNL     1      -2.499   9.873  15.539  0.00  0.00    +0.000 OA
BRANCH  24  26
ATOM     26  C   UNL     1      -3.461  10.297  17.735  0.00  0.00    +0.000 C 
BRANCH  26  28
ATOM     27  C   UNL     1      -5.822  11.193  18.018  0.00  0.00    +0.000 C 
ATOM     28  C   UNL     1      -4.497  11.322  17.277  0.00  0.00    +0.000 C 
ENDBRANCH  26  28
ENDBRANCH  24  26
ENDBRANCH  23  24
ENDBRANCH  22  23
ENDBRANCH   1  22
BRANCH  18  29
ATOM     29  C   UNL     1      -1.681  17.511  24.363  0.00  0.00    +0.000 C 
BRANCH  29  30
ATOM     30  O   UNL     1      -2.031  17.479  25.742  0.00  0.00    +0.000 OA
ATOM     31  H   UNL     1      -1.586  18.250  26.143  0.00  0.00    +0.000 HD
ENDBRANCH  29  30
ENDBRANCH  18  29
TORSDOF 8
ENDMDL
