MODEL 1
REMARK VINA RESULT:      -7.2      0.000      0.000
REMARK  Name = 
REMARK  14 active torsions:
REMARK  status: ('A' for Active; 'I' for Inactive)
REMARK    1  A    between atoms: C_1  and  C_2
REMARK    2  A    between atoms: C_2  and  C_3
REMARK    3  A    between atoms: C_3  and  C_4
REMARK    4  A    between atoms: C_4  and  C_5
REMARK    5  A    between atoms: C_5  and  C_6
REMARK    6  A    between atoms: C_6  and  C_7
REMARK    7  A    between atoms: C_7  and  S_8
REMARK    8  A    between atoms: S_8  and  C_9
REMARK    9  A    between atoms: C_9  and  C_10
REMARK   10  A    between atoms: C_9  and  C_11
REMARK   11  A    between atoms: C_11  and  O_12
REMARK   12  A    between atoms: C_11  and  C_13
REMARK   13  A    between atoms: C_11  and  C_19
REMARK   14  A    between atoms: C_13  and  N_14
REMARK                            x       y       z     vdW  Elec       q    Type
REMARK                         _______ _______ _______ _____ _____    ______ ____
ROOT
ATOM      1  C   UNL     1       4.492   4.657  18.622  0.00  0.00    +0.000 C 
ENDROOT
BRANCH   1   2
ATOM      2  C   UNL     1       5.618   5.668  18.330  0.00  0.00    +0.000 A 
ATOM      3  C   UNL     1       6.863   5.544  18.985  0.00  0.00    +0.000 A 
ATOM      4  C   UNL     1       7.889   6.468  18.776  0.00  0.00    +0.000 A 
ATOM      5  C   UNL     1       7.690   7.524  17.897  0.00  0.00    +0.000 A 
ATOM      6  F   UNL     1       8.673   8.412  17.699  0.00  0.00    +0.000 F 
ATOM      7  C   UNL     1       6.490   7.667  17.220  0.00  0.00    +0.000 A 
ATOM      8  C   UNL     1       5.471   6.742  17.436  0.00  0.00    +0.000 A 
ATOM      9  F   UNL     1       4.335   6.900  16.745  0.00  0.00    +0.000 F 
ENDBRANCH   1   2
BRANCH   1  10
ATOM     10  C   UNL     1       4.197   3.795  17.336  0.00  0.00    +0.000 C 
ATOM     11  C   UNL     1       3.700   2.371  17.646  0.00  0.00    +0.000 C 
BRANCH  10  12
ATOM     12  S   UNL     1       5.636   3.475  16.205  0.00  0.00    +0.000 S 
BRANCH  12  13
ATOM     13  C   UNL     1       5.220   4.444  14.712  0.00  0.00    +0.000 C 
BRANCH  13  14
ATOM     14  C   UNL     1       6.448   4.342  13.811  0.00  0.00    +0.000 C 
BRANCH  14  15
ATOM     15  C   UNL     1       6.282   3.396  12.622  0.00  0.00    +0.000 C 
BRANCH  15  16
ATOM     16  C   UNL     1       4.802   3.357  12.233  0.00  0.00    +0.000 C 
BRANCH  16  17
ATOM     17  C   UNL     1       4.573   3.511  10.733  0.00  0.00    +0.000 C 
BRANCH  17  19
ATOM     18  C   UNL     1       2.705   4.437   9.316  0.00  0.00    +0.000 C 
ATOM     19  C   UNL     1       3.077   3.458  10.413  0.00  0.00    +0.000 C 
ENDBRANCH  17  19
ENDBRANCH  16  17
ENDBRANCH  15  16
ENDBRANCH  14  15
ENDBRANCH  13  14
ENDBRANCH  12  13
ENDBRANCH  10  12
ENDBRANCH   1  10
BRANCH   1  20
ATOM     20  O   UNL     1       5.052   3.749  19.606  0.00  0.00    +0.000 OA
ATOM     21  H   UNL     1       5.112   2.878  19.150  0.00  0.00    +0.000 HD
ENDBRANCH   1  20
BRANCH   1  22
ATOM     22  C   UNL     1       3.178   5.235  19.223  0.00  0.00    +0.000 C 
BRANCH  22  23
ATOM     23  N   UNL     1       2.367   4.312  19.996  0.00  0.00    +0.000 N 
ATOM     24  C   UNL     1       1.213   3.709  19.588  0.00  0.00    +0.000 A 
ATOM     25  N   UNL     1       0.789   2.896  20.522  0.00  0.00    +0.000 NA
ATOM     26  C   UNL     1       1.751   3.001  21.489  0.00  0.00    +0.000 A 
ATOM     27  N   UNL     1       2.757   3.831  21.197  0.00  0.00    +0.000 NA
ENDBRANCH  22  23
ENDBRANCH   1  22
TORSDOF 12
ENDMDL
MODEL 2
REMARK VINA RESULT:      -7.1      3.499      6.553
REMARK  Name = 
REMARK  14 active torsions:
REMARK  status: ('A' for Active; 'I' for Inactive)
REMARK    1  A    between atoms: C_1  and  C_2
REMARK    2  A    between atoms: C_2  and  C_3
REMARK    3  A    between atoms: C_3  and  C_4
REMARK    4  A    between atoms: C_4  and  C_5
REMARK    5  A    between atoms: C_5  and  C_6
REMARK    6  A    between atoms: C_6  and  C_7
REMARK    7  A    between atoms: C_7  and  S_8
REMARK    8  A    between atoms: S_8  and  C_9
REMARK    9  A    between atoms: C_9  and  C_10
REMARK   10  A    between atoms: C_9  and  C_11
REMARK   11  A    between atoms: C_11  and  O_12
REMARK   12  A    between atoms: C_11  and  C_13
REMARK   13  A    between atoms: C_11  and  C_19
REMARK   14  A    between atoms: C_13  and  N_14
REMARK                            x       y       z     vdW  Elec       q    Type
REMARK                         _______ _______ _______ _____ _____    ______ ____
ROOT
ATOM      1  C   UNL     1       5.603   5.693  16.305  0.00  0.00    +0.000 C 
ENDROOT
BRANCH   1   2
ATOM      2  C   UNL     1       6.579   6.540  17.146  0.00  0.00    +0.000 A 
ATOM      3  C   UNL     1       6.640   7.938  16.956  0.00  0.00    +0.000 A 
ATOM      4  C   UNL     1       7.543   8.729  17.669  0.00  0.00    +0.000 A 
ATOM      5  C   UNL     1       8.391   8.134  18.595  0.00  0.00    +0.000 A 
ATOM      6  F   UNL     1       9.258   8.892  19.277  0.00  0.00    +0.000 F 
ATOM      7  C   UNL     1       8.345   6.770  18.823  0.00  0.00    +0.000 A 
ATOM      8  C   UNL     1       7.442   5.988  18.105  0.00  0.00    +0.000 A 
ATOM      9  F   UNL     1       7.412   4.676  18.371  0.00  0.00    +0.000 F 
ENDBRANCH   1   2
BRANCH   1  10
ATOM     10  C   UNL     1       4.277   5.436  17.118  0.00  0.00    +0.000 C 
ATOM     11  C   UNL     1       4.460   5.528  18.644  0.00  0.00    +0.000 C 
BRANCH  10  12
ATOM     12  S   UNL     1       3.491   3.766  16.912  0.00  0.00    +0.000 S 
BRANCH  12  13
ATOM     13  C   UNL     1       4.041   2.856  18.399  0.00  0.00    +0.000 C 
BRANCH  13  14
ATOM     14  C   UNL     1       2.928   1.852  18.691  0.00  0.00    +0.000 C 
BRANCH  14  15
ATOM     15  C   UNL     1       1.521   2.360  18.382  0.00  0.00    +0.000 C 
BRANCH  15  16
ATOM     16  C   UNL     1       0.873   2.828  19.688  0.00  0.00    +0.000 C 
BRANCH  16  17
ATOM     17  C   UNL     1       1.137   4.298  19.995  0.00  0.00    +0.000 C 
BRANCH  17  19
ATOM     18  C   UNL     1       2.194   3.113  21.953  0.00  0.00    +0.000 C 
ATOM     19  C   UNL     1       2.049   4.432  21.217  0.00  0.00    +0.000 C 
ENDBRANCH  17  19
ENDBRANCH  16  17
ENDBRANCH  15  16
ENDBRANCH  14  15
ENDBRANCH  13  14
ENDBRANCH  12  13
ENDBRANCH  10  12
ENDBRANCH   1  10
BRANCH   1  20
ATOM     20  O   UNL     1       5.240   6.542  15.186  0.00  0.00    +0.000 OA
ATOM     21  H   UNL     1       5.717   7.391  15.338  0.00  0.00    +0.000 HD
ENDBRANCH   1  20
BRANCH   1  22
ATOM     22  C   UNL     1       6.165   4.367  15.715  0.00  0.00    +0.000 C 
BRANCH  22  23
ATOM     23  N   UNL     1       6.720   4.446  14.376  0.00  0.00    +0.000 N 
ATOM     24  C   UNL     1       6.316   3.729  13.287  0.00  0.00    +0.000 A 
ATOM     25  N   UNL     1       6.999   4.104  12.236  0.00  0.00    +0.000 NA
ATOM     26  C   UNL     1       7.800   5.101  12.724  0.00  0.00    +0.000 A 
ATOM     27  N   UNL     1       7.639   5.371  14.022  0.00  0.00    +0.000 NA
ENDBRANCH  22  23
ENDBRANCH   1  22
TORSDOF 12
ENDMDL
MODEL 3
REMARK VINA RESULT:      -6.9      3.308      6.534
REMARK  Name = 
REMARK  14 active torsions:
REMARK  status: ('A' for Active; 'I' for Inactive)
REMARK    1  A    between atoms: C_1  and  C_2
REMARK    2  A    between atoms: C_2  and  C_3
REMARK    3  A    between atoms: C_3  and  C_4
REMARK    4  A    between atoms: C_4  and  C_5
REMARK    5  A    between atoms: C_5  and  C_6
REMARK    6  A    between atoms: C_6  and  C_7
REMARK    7  A    between atoms: C_7  and  S_8
REMARK    8  A    between atoms: S_8  and  C_9
REMARK    9  A    between atoms: C_9  and  C_10
REMARK   10  A    between atoms: C_9  and  C_11
REMARK   11  A    between atoms: C_11  and  O_12
REMARK   12  A    between atoms: C_11  and  C_13
REMARK   13  A    between atoms: C_11  and  C_19
REMARK   14  A    between atoms: C_13  and  N_14
REMARK                            x       y       z     vdW  Elec       q    Type
REMARK                         _______ _______ _______ _____ _____    ______ ____
ROOT
ATOM      1  C   UNL     1       4.832   4.739  18.006  0.00  0.00    +0.000 C 
ENDROOT
BRANCH   1   2
ATOM      2  C   UNL     1       3.892   5.895  18.402  0.00  0.00    +0.000 A 
ATOM      3  C   UNL     1       3.208   5.853  19.637  0.00  0.00    +0.000 A 
ATOM      4  C   UNL     1       2.315   6.861  20.007  0.00  0.00    +0.000 A 
ATOM      5  C   UNL     1       2.104   7.935  19.152  0.00  0.00    +0.000 A 
ATOM      6  F   UNL     1       1.247   8.901  19.506  0.00  0.00    +0.000 F 
ATOM      7  C   UNL     1       2.773   8.021  17.943  0.00  0.00    +0.000 A 
ATOM      8  C   UNL     1       3.660   7.010  17.581  0.00  0.00    +0.000 A 
ATOM      9  F   UNL     1       4.305   7.141  16.415  0.00  0.00    +0.000 F 
ENDBRANCH   1   2
BRANCH   1  10
ATOM     10  C   UNL     1       6.062   5.301  17.195  0.00  0.00    +0.000 C 
ATOM     11  C   UNL     1       6.813   4.227  16.387  0.00  0.00    +0.000 C 
BRANCH  10  12
ATOM     12  S   UNL     1       7.426   6.074  18.192  0.00  0.00    +0.000 S 
BRANCH  12  13
ATOM     13  C   UNL     1       7.499   7.784  17.548  0.00  0.00    +0.000 C 
BRANCH  13  14
ATOM     14  C   UNL     1       8.553   8.489  18.398  0.00  0.00    +0.000 C 
BRANCH  14  15
ATOM     15  C   UNL     1       8.578  10.009  18.240  0.00  0.00    +0.000 C 
BRANCH  15  16
ATOM     16  C   UNL     1       9.457  10.599  19.347  0.00  0.00    +0.000 C 
BRANCH  16  17
ATOM     17  C   UNL     1      10.089  11.933  18.962  0.00  0.00    +0.000 C 
BRANCH  17  19
ATOM     18  C   UNL     1      12.152  12.910  17.893  0.00  0.00    +0.000 C 
ATOM     19  C   UNL     1      11.216  11.717  17.950  0.00  0.00    +0.000 C 
ENDBRANCH  17  19
ENDBRANCH  16  17
ENDBRANCH  15  16
ENDBRANCH  14  15
ENDBRANCH  13  14
ENDBRANCH  12  13
ENDBRANCH  10  12
ENDBRANCH   1  10
BRANCH   1  20
ATOM     20  O   UNL     1       5.361   4.240  19.261  0.00  0.00    +0.000 OA
ATOM     21  H   UNL     1       6.239   4.674  19.364  0.00  0.00    +0.000 HD
ENDBRANCH   1  20
BRANCH   1  22
ATOM     22  C   UNL     1       4.179   3.534  17.268  0.00  0.00    +0.000 C 
BRANCH  22  23
ATOM     23  N   UNL     1       3.032   2.929  17.921  0.00  0.00    +0.000 N 
ATOM     24  C   UNL     1       3.063   2.045  18.961  0.00  0.00    +0.000 A 
ATOM     25  N   UNL     1       1.842   1.759  19.331  0.00  0.00    +0.000 NA
ATOM     26  C   UNL     1       1.075   2.534  18.504  0.00  0.00    +0.000 A 
ATOM     27  N   UNL     1       1.761   3.295  17.646  0.00  0.00    +0.000 NA
ENDBRANCH  22  23
ENDBRANCH   1  22
TORSDOF 12
ENDMDL
MODEL 4
REMARK VINA RESULT:      -6.9      3.834      7.771
REMARK  Name = 
REMARK  14 active torsions:
REMARK  status: ('A' for Active; 'I' for Inactive)
REMARK    1  A    between atoms: C_1  and  C_2
REMARK    2  A    between atoms: C_2  and  C_3
REMARK    3  A    between atoms: C_3  and  C_4
REMARK    4  A    between atoms: C_4  and  C_5
REMARK    5  A    between atoms: C_5  and  C_6
REMARK    6  A    between atoms: C_6  and  C_7
REMARK    7  A    between atoms: C_7  and  S_8
REMARK    8  A    between atoms: S_8  and  C_9
REMARK    9  A    between atoms: C_9  and  C_10
REMARK   10  A    between atoms: C_9  and  C_11
REMARK   11  A    between atoms: C_11  and  O_12
REMARK   12  A    between atoms: C_11  and  C_13
REMARK   13  A    between atoms: C_11  and  C_19
REMARK   14  A    between atoms: C_13  and  N_14
REMARK                            x       y       z     vdW  Elec       q    Type
REMARK                         _______ _______ _______ _____ _____    ______ ____
ROOT
ATOM      1  C   UNL     1       4.967   4.636  17.207  0.00  0.00    +0.000 C 
ENDROOT
BRANCH   1   2
ATOM      2  C   UNL     1       3.842   3.939  17.998  0.00  0.00    +0.000 A 
ATOM      3  C   UNL     1       2.534   3.895  17.468  0.00  0.00    +0.000 A 
ATOM      4  C   UNL     1       1.483   3.310  18.178  0.00  0.00    +0.000 A 
ATOM      5  C   UNL     1       1.728   2.748  19.424  0.00  0.00    +0.000 A 
ATOM      6  F   UNL     1       0.719   2.190  20.105  0.00  0.00    +0.000 F 
ATOM      7  C   UNL     1       3.001   2.754  19.966  0.00  0.00    +0.000 A 
ATOM      8  C   UNL     1       4.044   3.342  19.252  0.00  0.00    +0.000 A 
ATOM      9  F   UNL     1       5.266   3.306  19.799  0.00  0.00    +0.000 F 
ENDBRANCH   1   2
BRANCH   1  10
ATOM     10  C   UNL     1       5.488   5.891  18.007  0.00  0.00    +0.000 C 
ATOM     11  C   UNL     1       5.102   7.237  17.366  0.00  0.00    +0.000 C 
BRANCH  10  12
ATOM     12  S   UNL     1       7.330   6.050  18.189  0.00  0.00    +0.000 S 
BRANCH  12  13
ATOM     13  C   UNL     1       7.685   7.682  17.445  0.00  0.00    +0.000 C 
BRANCH  13  14
ATOM     14  C   UNL     1       8.436   8.461  18.522  0.00  0.00    +0.000 C 
BRANCH  14  15
ATOM     15  C   UNL     1       8.635   9.943  18.207  0.00  0.00    +0.000 C 
BRANCH  15  16
ATOM     16  C   UNL     1       9.570  10.543  19.260  0.00  0.00    +0.000 C 
BRANCH  16  17
ATOM     17  C   UNL     1       9.621  12.067  19.217  0.00  0.00    +0.000 C 
BRANCH  17  19
ATOM     18  C   UNL     1      11.102  12.703  17.279  0.00  0.00    +0.000 C 
ATOM     19  C   UNL     1       9.673  12.558  17.768  0.00  0.00    +0.000 C 
ENDBRANCH  17  19
ENDBRANCH  16  17
ENDBRANCH  15  16
ENDBRANCH  14  15
ENDBRANCH  13  14
ENDBRANCH  12  13
ENDBRANCH  10  12
ENDBRANCH   1  10
BRANCH   1  20
ATOM     20  O   UNL     1       6.058   3.680  17.187  0.00  0.00    +0.000 OA
ATOM     21  H   UNL     1       6.785   4.127  16.695  0.00  0.00    +0.000 HD
ENDBRANCH   1  20
BRANCH   1  22
ATOM     22  C   UNL     1       4.650   5.007  15.729  0.00  0.00    +0.000 C 
BRANCH  22  23
ATOM     23  N   UNL     1       5.691   4.716  14.759  0.00  0.00    +0.000 N 
ATOM     24  C   UNL     1       5.613   3.826  13.728  0.00  0.00    +0.000 A 
ATOM     25  N   UNL     1       6.714   3.872  13.023  0.00  0.00    +0.000 NA
ATOM     26  C   UNL     1       7.441   4.851  13.643  0.00  0.00    +0.000 A 
ATOM     27  N   UNL     1       6.840   5.423  14.691  0.00  0.00    +0.000 NA
ENDBRANCH  22  23
ENDBRANCH   1  22
TORSDOF 12
ENDMDL
MODEL 5
REMARK VINA RESULT:      -6.8      2.728      3.834
REMARK  Name = 
REMARK  14 active torsions:
REMARK  status: ('A' for Active; 'I' for Inactive)
REMARK    1  A    between atoms: C_1  and  C_2
REMARK    2  A    between atoms: C_2  and  C_3
REMARK    3  A    between atoms: C_3  and  C_4
REMARK    4  A    between atoms: C_4  and  C_5
REMARK    5  A    between atoms: C_5  and  C_6
REMARK    6  A    between atoms: C_6  and  C_7
REMARK    7  A    between atoms: C_7  and  S_8
REMARK    8  A    between atoms: S_8  and  C_9
REMARK    9  A    between atoms: C_9  and  C_10
REMARK   10  A    between atoms: C_9  and  C_11
REMARK   11  A    between atoms: C_11  and  O_12
REMARK   12  A    between atoms: C_11  and  C_13
REMARK   13  A    between atoms: C_11  and  C_19
REMARK   14  A    between atoms: C_13  and  N_14
REMARK                            x       y       z     vdW  Elec       q    Type
REMARK                         _______ _______ _______ _____ _____    ______ ____
ROOT
ATOM      1  C   UNL     1       3.066   5.658  18.883  0.00  0.00    +0.000 C 
ENDROOT
BRANCH   1   2
ATOM      2  C   UNL     1       2.470   7.080  18.882  0.00  0.00    +0.000 A 
ATOM      3  C   UNL     1       2.633   7.910  17.751  0.00  0.00    +0.000 A 
ATOM      4  C   UNL     1       2.145   9.218  17.735  0.00  0.00    +0.000 A 
ATOM      5  C   UNL     1       1.473   9.712  18.845  0.00  0.00    +0.000 A 
ATOM      6  F   UNL     1       1.006  10.967  18.830  0.00  0.00    +0.000 F 
ATOM      7  C   UNL     1       1.275   8.920  19.964  0.00  0.00    +0.000 A 
ATOM      8  C   UNL     1       1.768   7.617  19.973  0.00  0.00    +0.000 A 
ATOM      9  F   UNL     1       1.536   6.875  21.063  0.00  0.00    +0.000 F 
ENDBRANCH   1   2
BRANCH   1  10
ATOM     10  C   UNL     1       4.037   5.482  17.653  0.00  0.00    +0.000 C 
ATOM     11  C   UNL     1       3.930   4.105  16.973  0.00  0.00    +0.000 C 
BRANCH  10  12
ATOM     12  S   UNL     1       5.855   5.610  18.009  0.00  0.00    +0.000 S 
BRANCH  12  13
ATOM     13  C   UNL     1       6.603   4.477  16.785  0.00  0.00    +0.000 C 
BRANCH  13  14
ATOM     14  C   UNL     1       7.047   5.369  15.628  0.00  0.00    +0.000 C 
BRANCH  14  15
ATOM     15  C   UNL     1       7.033   4.686  14.262  0.00  0.00    +0.000 C 
BRANCH  15  16
ATOM     16  C   UNL     1       5.600   4.240  13.955  0.00  0.00    +0.000 C 
BRANCH  16  17
ATOM     17  C   UNL     1       5.484   3.451  12.655  0.00  0.00    +0.000 C 
BRANCH  17  19
ATOM     18  C   UNL     1       6.993   2.043  11.207  0.00  0.00    +0.000 C 
ATOM     19  C   UNL     1       6.850   3.346  11.972  0.00  0.00    +0.000 C 
ENDBRANCH  17  19
ENDBRANCH  16  17
ENDBRANCH  15  16
ENDBRANCH  14  15
ENDBRANCH  13  14
ENDBRANCH  12  13
ENDBRANCH  10  12
ENDBRANCH   1  10
BRANCH   1  20
ATOM     20  O   UNL     1       3.895   5.600  20.072  0.00  0.00    +0.000 OA
ATOM     21  H   UNL     1       4.363   4.735  20.019  0.00  0.00    +0.000 HD
ENDBRANCH   1  20
BRANCH   1  22
ATOM     22  C   UNL     1       2.052   4.480  18.969  0.00  0.00    +0.000 C 
BRANCH  22  23
ATOM     23  N   UNL     1       2.137   3.648  20.156  0.00  0.00    +0.000 N 
ATOM     24  C   UNL     1       3.201   2.883  20.535  0.00  0.00    +0.000 A 
ATOM     25  N   UNL     1       2.947   2.317  21.687  0.00  0.00    +0.000 NA
ATOM     26  C   UNL     1       1.708   2.803  22.007  0.00  0.00    +0.000 A 
ATOM     27  N   UNL     1       1.186   3.650  21.116  0.00  0.00    +0.000 NA
ENDBRANCH  22  23
ENDBRANCH   1  22
TORSDOF 12
ENDMDL
MODEL 6
REMARK VINA RESULT:      -6.8      2.680      3.685
REMARK  Name = 
REMARK  14 active torsions:
REMARK  status: ('A' for Active; 'I' for Inactive)
REMARK    1  A    between atoms: C_1  and  C_2
REMARK    2  A    between atoms: C_2  and  C_3
REMARK    3  A    between atoms: C_3  and  C_4
REMARK    4  A    between atoms: C_4  and  C_5
REMARK    5  A    between atoms: C_5  and  C_6
REMARK    6  A    between atoms: C_6  and  C_7
REMARK    7  A    between atoms: C_7  and  S_8
REMARK    8  A    between atoms: S_8  and  C_9
REMARK    9  A    between atoms: C_9  and  C_10
REMARK   10  A    between atoms: C_9  and  C_11
REMARK   11  A    between atoms: C_11  and  O_12
REMARK   12  A    between atoms: C_11  and  C_13
REMARK   13  A    between atoms: C_11  and  C_19
REMARK   14  A    between atoms: C_13  and  N_14
REMARK                            x       y       z     vdW  Elec       q    Type
REMARK                         _______ _______ _______ _____ _____    ______ ____
ROOT
ATOM      1  C   UNL     1       2.863   5.803  18.777  0.00  0.00    +0.000 C 
ENDROOT
BRANCH   1   2
ATOM      2  C   UNL     1       2.304   7.238  18.827  0.00  0.00    +0.000 A 
ATOM      3  C   UNL     1       2.409   8.074  17.692  0.00  0.00    +0.000 A 
ATOM      4  C   UNL     1       1.953   9.393  17.718  0.00  0.00    +0.000 A 
ATOM      5  C   UNL     1       1.370   9.894  18.875  0.00  0.00    +0.000 A 
ATOM      6  F   UNL     1       0.935  11.160  18.899  0.00  0.00    +0.000 F 
ATOM      7  C   UNL     1       1.231   9.099  19.999  0.00  0.00    +0.000 A 
ATOM      8  C   UNL     1       1.691   7.784  19.966  0.00  0.00    +0.000 A 
ATOM      9  F   UNL     1       1.517   7.039  21.066  0.00  0.00    +0.000 F 
ENDBRANCH   1   2
BRANCH   1  10
ATOM     10  C   UNL     1       3.719   5.605  17.468  0.00  0.00    +0.000 C 
ATOM     11  C   UNL     1       3.591   4.200  16.852  0.00  0.00    +0.000 C 
BRANCH  10  12
ATOM     12  S   UNL     1       5.559   5.795  17.645  0.00  0.00    +0.000 S 
BRANCH  12  13
ATOM     13  C   UNL     1       6.107   6.178  15.944  0.00  0.00    +0.000 C 
BRANCH  13  14
ATOM     14  C   UNL     1       6.980   4.998  15.527  0.00  0.00    +0.000 C 
BRANCH  14  15
ATOM     15  C   UNL     1       7.044   4.761  14.019  0.00  0.00    +0.000 C 
BRANCH  15  16
ATOM     16  C   UNL     1       5.926   3.790  13.630  0.00  0.00    +0.000 C 
BRANCH  16  17
ATOM     17  C   UNL     1       5.744   3.659  12.121  0.00  0.00    +0.000 C 
BRANCH  17  19
ATOM     18  C   UNL     1       3.803   3.663  10.513  0.00  0.00    +0.000 C 
ATOM     19  C   UNL     1       4.364   3.083  11.798  0.00  0.00    +0.000 C 
ENDBRANCH  17  19
ENDBRANCH  16  17
ENDBRANCH  15  16
ENDBRANCH  14  15
ENDBRANCH  13  14
ENDBRANCH  12  13
ENDBRANCH  10  12
ENDBRANCH   1  10
BRANCH   1  20
ATOM     20  O   UNL     1       3.791   5.725  19.890  0.00  0.00    +0.000 OA
ATOM     21  H   UNL     1       3.252   5.924  20.691  0.00  0.00    +0.000 HD
ENDBRANCH   1  20
BRANCH   1  22
ATOM     22  C   UNL     1       1.833   4.650  18.953  0.00  0.00    +0.000 C 
BRANCH  22  23
ATOM     23  N   UNL     1       2.046   3.768  20.086  0.00  0.00    +0.000 N 
ATOM     24  C   UNL     1       2.811   2.638  20.102  0.00  0.00    +0.000 A 
ATOM     25  N   UNL     1       2.822   2.131  21.308  0.00  0.00    +0.000 NA
ATOM     26  C   UNL     1       2.069   3.020  22.027  0.00  0.00    +0.000 A 
ATOM     27  N   UNL     1       1.601   4.058  21.329  0.00  0.00    +0.000 NA
ENDBRANCH  22  23
ENDBRANCH   1  22
TORSDOF 12
ENDMDL
MODEL 7
REMARK VINA RESULT:      -6.8      3.712      6.140
REMARK  Name = 
REMARK  14 active torsions:
REMARK  status: ('A' for Active; 'I' for Inactive)
REMARK    1  A    between atoms: C_1  and  C_2
REMARK    2  A    between atoms: C_2  and  C_3
REMARK    3  A    between atoms: C_3  and  C_4
REMARK    4  A    between atoms: C_4  and  C_5
REMARK    5  A    between atoms: C_5  and  C_6
REMARK    6  A    between atoms: C_6  and  C_7
REMARK    7  A    between atoms: C_7  and  S_8
REMARK    8  A    between atoms: S_8  and  C_9
REMARK    9  A    between atoms: C_9  and  C_10
REMARK   10  A    between atoms: C_9  and  C_11
REMARK   11  A    between atoms: C_11  and  O_12
REMARK   12  A    between atoms: C_11  and  C_13
REMARK   13  A    between atoms: C_11  and  C_19
REMARK   14  A    between atoms: C_13  and  N_14
REMARK                            x       y       z     vdW  Elec       q    Type
REMARK                         _______ _______ _______ _____ _____    ______ ____
ROOT
ATOM      1  C   UNL     1       2.663   6.218  19.005  0.00  0.00    +0.000 C 
ENDROOT
BRANCH   1   2
ATOM      2  C   UNL     1       2.049   7.582  19.377  0.00  0.00    +0.000 A 
ATOM      3  C   UNL     1       1.640   7.830  20.706  0.00  0.00    +0.000 A 
ATOM      4  C   UNL     1       1.040   9.038  21.068  0.00  0.00    +0.000 A 
ATOM      5  C   UNL     1       0.854  10.023  20.108  0.00  0.00    +0.000 A 
ATOM      6  F   UNL     1       0.277  11.181  20.454  0.00  0.00    +0.000 F 
ATOM      7  C   UNL     1       1.261   9.825  18.800  0.00  0.00    +0.000 A 
ATOM      8  C   UNL     1       1.856   8.615  18.447  0.00  0.00    +0.000 A 
ATOM      9  F   UNL     1       2.259   8.470  17.178  0.00  0.00    +0.000 F 
ENDBRANCH   1   2
BRANCH   1  10
ATOM     10  C   UNL     1       4.149   6.412  18.518  0.00  0.00    +0.000 C 
ATOM     11  C   UNL     1       4.332   6.231  17.000  0.00  0.00    +0.000 C 
BRANCH  10  12
ATOM     12  S   UNL     1       5.408   5.236  19.213  0.00  0.00    +0.000 S 
BRANCH  12  13
ATOM     13  C   UNL     1       6.413   4.786  17.754  0.00  0.00    +0.000 C 
BRANCH  13  14
ATOM     14  C   UNL     1       7.703   5.592  17.889  0.00  0.00    +0.000 C 
BRANCH  14  15
ATOM     15  C   UNL     1       7.620   7.015  17.336  0.00  0.00    +0.000 C 
BRANCH  15  16
ATOM     16  C   UNL     1       8.195   7.977  18.379  0.00  0.00    +0.000 C 
BRANCH  16  17
ATOM     17  C   UNL     1       8.074   9.442  17.973  0.00  0.00    +0.000 C 
BRANCH  17  19
ATOM     18  C   UNL     1       9.303  10.739  19.751  0.00  0.00    +0.000 C 
ATOM     19  C   UNL     1       9.352  10.202  18.333  0.00  0.00    +0.000 C 
ENDBRANCH  17  19
ENDBRANCH  16  17
ENDBRANCH  15  16
ENDBRANCH  14  15
ENDBRANCH  13  14
ENDBRANCH  12  13
ENDBRANCH  10  12
ENDBRANCH   1  10
BRANCH   1  20
ATOM     20  O   UNL     1       2.732   5.485  20.255  0.00  0.00    +0.000 OA
ATOM     21  H   UNL     1       1.796   5.302  20.501  0.00  0.00    +0.000 HD
ENDBRANCH   1  20
BRANCH   1  22
ATOM     22  C   UNL     1       1.855   5.343  18.002  0.00  0.00    +0.000 C 
BRANCH  22  23
ATOM     23  N   UNL     1       1.891   3.910  18.229  0.00  0.00    +0.000 N 
ATOM     24  C   UNL     1       2.743   3.018  17.645  0.00  0.00    +0.000 A 
ATOM     25  N   UNL     1       2.529   1.823  18.131  0.00  0.00    +0.000 NA
ATOM     26  C   UNL     1       1.545   2.034  19.059  0.00  0.00    +0.000 A 
ATOM     27  N   UNL     1       1.147   3.304  19.180  0.00  0.00    +0.000 NA
ENDBRANCH  22  23
ENDBRANCH   1  22
TORSDOF 12
ENDMDL
MODEL 8
REMARK VINA RESULT:      -6.7      2.922      4.369
REMARK  Name = 
REMARK  14 active torsions:
REMARK  status: ('A' for Active; 'I' for Inactive)
REMARK    1  A    between atoms: C_1  and  C_2
REMARK    2  A    between atoms: C_2  and  C_3
REMARK    3  A    between atoms: C_3  and  C_4
REMARK    4  A    between atoms: C_4  and  C_5
REMARK    5  A    between atoms: C_5  and  C_6
REMARK    6  A    between atoms: C_6  and  C_7
REMARK    7  A    between atoms: C_7  and  S_8
REMARK    8  A    between atoms: S_8  and  C_9
REMARK    9  A    between atoms: C_9  and  C_10
REMARK   10  A    between atoms: C_9  and  C_11
REMARK   11  A    between atoms: C_11  and  O_12
REMARK   12  A    between atoms: C_11  and  C_13
REMARK   13  A    between atoms: C_11  and  C_19
REMARK   14  A    between atoms: C_13  and  N_14
REMARK                            x       y       z     vdW  Elec       q    Type
REMARK                         _______ _______ _______ _____ _____    ______ ____
ROOT
ATOM      1  C   UNL     1       2.819   6.254  19.034  0.00  0.00    +0.000 C 
ENDROOT
BRANCH   1   2
ATOM      2  C   UNL     1       2.108   7.546  19.481  0.00  0.00    +0.000 A 
ATOM      3  C   UNL     1       1.696   7.693  20.825  0.00  0.00    +0.000 A 
ATOM      4  C   UNL     1       1.011   8.831  21.254  0.00  0.00    +0.000 A 
ATOM      5  C   UNL     1       0.738   9.848  20.348  0.00  0.00    +0.000 A 
ATOM      6  F   UNL     1       0.079  10.938  20.759  0.00  0.00    +0.000 F 
ATOM      7  C   UNL     1       1.144   9.749  19.028  0.00  0.00    +0.000 A 
ATOM      8  C   UNL     1       1.825   8.608  18.608  0.00  0.00    +0.000 A 
ATOM      9  F   UNL     1       2.223   8.560  17.330  0.00  0.00    +0.000 F 
ENDBRANCH   1   2
BRANCH   1  10
ATOM     10  C   UNL     1       4.250   6.597  18.469  0.00  0.00    +0.000 C 
ATOM     11  C   UNL     1       4.366   6.442  16.942  0.00  0.00    +0.000 C 
BRANCH  10  12
ATOM     12  S   UNL     1       5.655   5.547  19.083  0.00  0.00    +0.000 S 
BRANCH  12  13
ATOM     13  C   UNL     1       5.850   4.296  17.765  0.00  0.00    +0.000 C 
BRANCH  13  14
ATOM     14  C   UNL     1       7.238   4.543  17.177  0.00  0.00    +0.000 C 
BRANCH  14  15
ATOM     15  C   UNL     1       7.231   5.111  15.758  0.00  0.00    +0.000 C 
BRANCH  15  16
ATOM     16  C   UNL     1       6.759   4.016  14.797  0.00  0.00    +0.000 C 
BRANCH  16  17
ATOM     17  C   UNL     1       5.503   4.400  14.022  0.00  0.00    +0.000 C 
BRANCH  17  19
ATOM     18  C   UNL     1       6.653   3.399  12.015  0.00  0.00    +0.000 C 
ATOM     19  C   UNL     1       5.350   3.515  12.783  0.00  0.00    +0.000 C 
ENDBRANCH  17  19
ENDBRANCH  16  17
ENDBRANCH  15  16
ENDBRANCH  14  15
ENDBRANCH  13  14
ENDBRANCH  12  13
ENDBRANCH  10  12
ENDBRANCH   1  10
BRANCH   1  20
ATOM     20  O   UNL     1       3.029   5.500  20.255  0.00  0.00    +0.000 OA
ATOM     21  H   UNL     1       2.878   4.558  20.008  0.00  0.00    +0.000 HD
ENDBRANCH   1  20
BRANCH   1  22
ATOM     22  C   UNL     1       2.035   5.334  18.052  0.00  0.00    +0.000 C 
BRANCH  22  23
ATOM     23  N   UNL     1       1.908   3.942  18.443  0.00  0.00    +0.000 N 
ATOM     24  C   UNL     1       2.617   2.890  17.940  0.00  0.00    +0.000 A 
ATOM     25  N   UNL     1       2.281   1.793  18.569  0.00  0.00    +0.000 NA
ATOM     26  C   UNL     1       1.376   2.230  19.497  0.00  0.00    +0.000 A 
ATOM     27  N   UNL     1       1.141   3.545  19.482  0.00  0.00    +0.000 NA
ENDBRANCH  22  23
ENDBRANCH   1  22
TORSDOF 12
ENDMDL
MODEL 9
REMARK VINA RESULT:      -6.6      3.800      7.861
REMARK  Name = 
REMARK  14 active torsions:
REMARK  status: ('A' for Active; 'I' for Inactive)
REMARK    1  A    between atoms: C_1  and  C_2
REMARK    2  A    between atoms: C_2  and  C_3
REMARK    3  A    between atoms: C_3  and  C_4
REMARK    4  A    between atoms: C_4  and  C_5
REMARK    5  A    between atoms: C_5  and  C_6
REMARK    6  A    between atoms: C_6  and  C_7
REMARK    7  A    between atoms: C_7  and  S_8
REMARK    8  A    between atoms: S_8  and  C_9
REMARK    9  A    between atoms: C_9  and  C_10
REMARK   10  A    between atoms: C_9  and  C_11
REMARK   11  A    between atoms: C_11  and  O_12
REMARK   12  A    between atoms: C_11  and  C_13
REMARK   13  A    between atoms: C_11  and  C_19
REMARK   14  A    between atoms: C_13  and  N_14
REMARK                            x       y       z     vdW  Elec       q    Type
REMARK                         _______ _______ _______ _____ _____    ______ ____
ROOT
ATOM      1  C   UNL     1       5.120   4.777  17.481  0.00  0.00    +0.000 C 
ENDROOT
BRANCH   1   2
ATOM      2  C   UNL     1       4.117   4.103  18.437  0.00  0.00    +0.000 A 
ATOM      3  C   UNL     1       4.554   3.080  19.308  0.00  0.00    +0.000 A 
ATOM      4  C   UNL     1       3.663   2.418  20.156  0.00  0.00    +0.000 A 
ATOM      5  C   UNL     1       2.322   2.780  20.156  0.00  0.00    +0.000 A 
ATOM      6  F   UNL     1       1.467   2.145  20.967  0.00  0.00    +0.000 F 
ATOM      7  C   UNL     1       1.861   3.793  19.332  0.00  0.00    +0.000 A 
ATOM      8  C   UNL     1       2.757   4.446  18.487  0.00  0.00    +0.000 A 
ATOM      9  F   UNL     1       2.277   5.436  17.723  0.00  0.00    +0.000 F 
ENDBRANCH   1   2
BRANCH   1  10
ATOM     10  C   UNL     1       5.600   6.151  18.086  0.00  0.00    +0.000 C 
ATOM     11  C   UNL     1       5.106   7.379  17.299  0.00  0.00    +0.000 C 
BRANCH  10  12
ATOM     12  S   UNL     1       7.435   6.432  18.150  0.00  0.00    +0.000 S 
BRANCH  12  13
ATOM     13  C   UNL     1       7.630   8.099  17.425  0.00  0.00    +0.000 C 
BRANCH  13  14
ATOM     14  C   UNL     1       8.556   8.848  18.380  0.00  0.00    +0.000 C 
BRANCH  14  15
ATOM     15  C   UNL     1       8.458  10.370  18.292  0.00  0.00    +0.000 C 
BRANCH  15  16
ATOM     16  C   UNL     1       9.872  10.943  18.161  0.00  0.00    +0.000 C 
BRANCH  16  17
ATOM     17  C   UNL     1      10.534  11.219  19.506  0.00  0.00    +0.000 C 
BRANCH  17  19
ATOM     18  C   UNL     1       9.656  12.410  21.547  0.00  0.00    +0.000 C 
ATOM     19  C   UNL     1      10.036  12.545  20.084  0.00  0.00    +0.000 C 
ENDBRANCH  17  19
ENDBRANCH  16  17
ENDBRANCH  15  16
ENDBRANCH  14  15
ENDBRANCH  13  14
ENDBRANCH  12  13
ENDBRANCH  10  12
ENDBRANCH   1  10
BRANCH   1  20
ATOM     20  O   UNL     1       6.279   3.903  17.478  0.00  0.00    +0.000 OA
ATOM     21  H   UNL     1       5.946   3.030  17.791  0.00  0.00    +0.000 HD
ENDBRANCH   1  20
BRANCH   1  22
ATOM     22  C   UNL     1       4.665   4.944  16.002  0.00  0.00    +0.000 C 
BRANCH  22  23
ATOM     23  N   UNL     1       5.673   4.690  14.988  0.00  0.00    +0.000 N 
ATOM     24  C   UNL     1       5.580   3.802  13.957  0.00  0.00    +0.000 A 
ATOM     25  N   UNL     1       6.649   3.885  13.208  0.00  0.00    +0.000 NA
ATOM     26  C   UNL     1       7.371   4.884  13.803  0.00  0.00    +0.000 A 
ATOM     27  N   UNL     1       6.796   5.433  14.877  0.00  0.00    +0.000 NA
ENDBRANCH  22  23
ENDBRANCH   1  22
TORSDOF 12
ENDMDL
