MODEL 1
REMARK VINA RESULT:      -7.5      0.000      0.000
REMARK  Name = 
REMARK  2 active torsions:
REMARK  status: ('A' for Active; 'I' for Inactive)
REMARK    1  A    between atoms: C_2  and  C_16
REMARK    2  A    between atoms: C_6  and  C_7
REMARK                            x       y       z     vdW  Elec       q    Type
REMARK                         _______ _______ _______ _____ _____    ______ ____
ROOT
ATOM      1  O   UNL     1       7.865   6.658  18.928  0.00  0.00    +0.000 OA
ATOM      2  C   UNL     1       7.560   6.987  17.787  0.00  0.00    +0.000 C 
ATOM      3  N   UNL     1       7.678   8.252  17.249  0.00  0.00    +0.000 N 
ATOM      4  C   UNL     1       8.278   9.264  17.947  0.00  0.00    +0.000 A 
ATOM      5  N   UNL     1       8.244  10.544  17.657  0.00  0.00    +0.000 NA
ATOM      6  C   UNL     1       8.987  11.143  18.673  0.00  0.00    +0.000 A 
ATOM      7  C   UNL     1       9.489  10.158  19.492  0.00  0.00    +0.000 A 
ATOM      8  O   UNL     1       9.027   8.961  19.047  0.00  0.00    +0.000 OA
ATOM      9  H   UNL     1       7.259   8.473  16.355  0.00  0.00    +0.000 HD
ENDROOT
BRANCH   6  10
ATOM     10  C   UNL     1       9.217  12.575  18.863  0.00  0.00    +0.000 C 
ATOM     11  O   UNL     1       8.428  13.258  19.521  0.00  0.00    +0.000 OA
ATOM     12  N   UNL     1      10.324  13.135  18.248  0.00  0.00    +0.000 N 
ATOM     13  C   UNL     1      10.655  14.538  18.388  0.00  0.00    +0.000 C 
ATOM     14  C   UNL     1      11.358  14.872  17.083  0.00  0.00    +0.000 C 
ATOM     15  C   UNL     1      12.094  13.583  16.738  0.00  0.00    +0.000 C 
ATOM     16  C   UNL     1      11.220  12.477  17.314  0.00  0.00    +0.000 C 
ENDBRANCH   6  10
BRANCH   2  17
ATOM     17  C   UNL     1       6.971   5.956  16.898  0.00  0.00    +0.000 A 
ATOM     18  C   UNL     1       5.905   5.205  17.380  0.00  0.00    +0.000 A 
ATOM     19  N   UNL     1       5.345   4.192  16.674  0.00  0.00    +0.000 NA
ATOM     20  C   UNL     1       5.907   3.958  15.469  0.00  0.00    +0.000 A 
ATOM     21  C   UNL     1       6.963   4.716  14.977  0.00  0.00    +0.000 A 
ATOM     22  N   UNL     1       7.521   5.747  15.668  0.00  0.00    +0.000 NA
ENDBRANCH   2  17
TORSDOF 2
ENDMDL
MODEL 2
REMARK VINA RESULT:      -7.2      6.303      8.179
REMARK  Name = 
REMARK  2 active torsions:
REMARK  status: ('A' for Active; 'I' for Inactive)
REMARK    1  A    between atoms: C_2  and  C_16
REMARK    2  A    between atoms: C_6  and  C_7
REMARK                            x       y       z     vdW  Elec       q    Type
REMARK                         _______ _______ _______ _____ _____    ______ ____
ROOT
ATOM      1  O   UNL     1       3.230   5.663  18.588  0.00  0.00    +0.000 OA
ATOM      2  C   UNL     1       3.827   6.325  17.745  0.00  0.00    +0.000 C 
ATOM      3  N   UNL     1       3.549   7.630  17.394  0.00  0.00    +0.000 N 
ATOM      4  C   UNL     1       2.610   8.359  18.071  0.00  0.00    +0.000 A 
ATOM      5  N   UNL     1       2.090   9.505  17.698  0.00  0.00    +0.000 NA
ATOM      6  C   UNL     1       1.186   9.816  18.713  0.00  0.00    +0.000 A 
ATOM      7  C   UNL     1       1.270   8.849  19.688  0.00  0.00    +0.000 A 
ATOM      8  O   UNL     1       2.161   7.910  19.278  0.00  0.00    +0.000 OA
ATOM      9  H   UNL     1       3.984   8.049  16.583  0.00  0.00    +0.000 HD
ENDROOT
BRANCH   6  10
ATOM     10  C   UNL     1       0.288  10.969  18.765  0.00  0.00    +0.000 C 
ATOM     11  O   UNL     1       0.583  11.968  19.426  0.00  0.00    +0.000 OA
ATOM     12  N   UNL     1      -0.912  10.881  18.080  0.00  0.00    +0.000 N 
ATOM     13  C   UNL     1      -1.863  11.972  18.049  0.00  0.00    +0.000 C 
ATOM     14  C   UNL     1      -3.206  11.274  17.912  0.00  0.00    +0.000 C 
ATOM     15  C   UNL     1      -2.883  10.053  17.058  0.00  0.00    +0.000 C 
ATOM     16  C   UNL     1      -1.445   9.703  17.418  0.00  0.00    +0.000 C 
ENDBRANCH   6  10
BRANCH   2  17
ATOM     17  C   UNL     1       4.925   5.670  16.994  0.00  0.00    +0.000 A 
ATOM     18  C   UNL     1       6.086   6.400  16.759  0.00  0.00    +0.000 A 
ATOM     19  N   UNL     1       7.117   5.917  16.022  0.00  0.00    +0.000 NA
ATOM     20  C   UNL     1       6.929   4.676  15.523  0.00  0.00    +0.000 A 
ATOM     21  C   UNL     1       5.777   3.938  15.769  0.00  0.00    +0.000 A 
ATOM     22  N   UNL     1       4.744   4.404  16.521  0.00  0.00    +0.000 NA
ENDBRANCH   2  17
TORSDOF 2
ENDMDL
MODEL 3
REMARK VINA RESULT:      -7.1      1.613      8.266
REMARK  Name = 
REMARK  2 active torsions:
REMARK  status: ('A' for Active; 'I' for Inactive)
REMARK    1  A    between atoms: C_2  and  C_16
REMARK    2  A    between atoms: C_6  and  C_7
REMARK                            x       y       z     vdW  Elec       q    Type
REMARK                         _______ _______ _______ _____ _____    ______ ____
ROOT
ATOM      1  O   UNL     1       9.902  10.118  19.151  0.00  0.00    +0.000 OA
ATOM      2  C   UNL     1       9.088  10.636  18.394  0.00  0.00    +0.000 C 
ATOM      3  N   UNL     1       8.141   9.970  17.644  0.00  0.00    +0.000 N 
ATOM      4  C   UNL     1       7.954   8.622  17.776  0.00  0.00    +0.000 A 
ATOM      5  N   UNL     1       7.270   7.842  16.971  0.00  0.00    +0.000 NA
ATOM      6  C   UNL     1       7.400   6.573  17.534  0.00  0.00    +0.000 A 
ATOM      7  C   UNL     1       8.115   6.681  18.704  0.00  0.00    +0.000 A 
ATOM      8  O   UNL     1       8.486   7.978  18.856  0.00  0.00    +0.000 OA
ATOM      9  H   UNL     1       7.614  10.456  16.929  0.00  0.00    +0.000 HD
ENDROOT
BRANCH   6  10
ATOM     10  C   UNL     1       6.874   5.318  16.997  0.00  0.00    +0.000 C 
ATOM     11  O   UNL     1       7.519   4.665  16.173  0.00  0.00    +0.000 OA
ATOM     12  N   UNL     1       5.617   4.916  17.417  0.00  0.00    +0.000 N 
ATOM     13  C   UNL     1       5.012   3.682  16.963  0.00  0.00    +0.000 C 
ATOM     14  C   UNL     1       3.522   3.978  16.998  0.00  0.00    +0.000 C 
ATOM     15  C   UNL     1       3.376   4.918  18.189  0.00  0.00    +0.000 C 
ATOM     16  C   UNL     1       4.695   5.680  18.240  0.00  0.00    +0.000 C 
ENDBRANCH   6  10
BRANCH   2  17
ATOM     17  C   UNL     1       9.133  12.109  18.225  0.00  0.00    +0.000 A 
ATOM     18  C   UNL     1      10.286  12.780  18.617  0.00  0.00    +0.000 A 
ATOM     19  N   UNL     1      10.399  14.130  18.570  0.00  0.00    +0.000 NA
ATOM     20  C   UNL     1       9.302  14.779  18.122  0.00  0.00    +0.000 A 
ATOM     21  C   UNL     1       8.153  14.110  17.714  0.00  0.00    +0.000 A 
ATOM     22  N   UNL     1       8.034  12.756  17.740  0.00  0.00    +0.000 NA
ENDBRANCH   2  17
TORSDOF 2
ENDMDL
MODEL 4
REMARK VINA RESULT:      -6.9      1.533      8.204
REMARK  Name = 
REMARK  2 active torsions:
REMARK  status: ('A' for Active; 'I' for Inactive)
REMARK    1  A    between atoms: C_2  and  C_16
REMARK    2  A    between atoms: C_6  and  C_7
REMARK                            x       y       z     vdW  Elec       q    Type
REMARK                         _______ _______ _______ _____ _____    ______ ____
ROOT
ATOM      1  O   UNL     1       9.966  10.161  19.281  0.00  0.00    +0.000 OA
ATOM      2  C   UNL     1       9.172  10.707  18.522  0.00  0.00    +0.000 C 
ATOM      3  N   UNL     1       8.232  10.072  17.738  0.00  0.00    +0.000 N 
ATOM      4  C   UNL     1       8.026   8.723  17.834  0.00  0.00    +0.000 A 
ATOM      5  N   UNL     1       7.347   7.973  16.997  0.00  0.00    +0.000 NA
ATOM      6  C   UNL     1       7.451   6.688  17.531  0.00  0.00    +0.000 A 
ATOM      7  C   UNL     1       8.145   6.759  18.717  0.00  0.00    +0.000 A 
ATOM      8  O   UNL     1       8.529   8.047  18.907  0.00  0.00    +0.000 OA
ATOM      9  H   UNL     1       7.725  10.582  17.026  0.00  0.00    +0.000 HD
ENDROOT
BRANCH   6  10
ATOM     10  C   UNL     1       6.919   5.454  16.954  0.00  0.00    +0.000 C 
ATOM     11  O   UNL     1       7.545   4.846  16.082  0.00  0.00    +0.000 OA
ATOM     12  N   UNL     1       5.680   5.020  17.393  0.00  0.00    +0.000 N 
ATOM     13  C   UNL     1       5.072   3.802  16.902  0.00  0.00    +0.000 C 
ATOM     14  C   UNL     1       3.581   4.081  16.996  0.00  0.00    +0.000 C 
ATOM     15  C   UNL     1       3.464   4.964  18.233  0.00  0.00    +0.000 C 
ATOM     16  C   UNL     1       4.777   5.736  18.278  0.00  0.00    +0.000 C 
ENDBRANCH   6  10
BRANCH   2  17
ATOM     17  C   UNL     1       9.239  12.183  18.390  0.00  0.00    +0.000 A 
ATOM     18  C   UNL     1       8.080  12.863  18.034  0.00  0.00    +0.000 A 
ATOM     19  N   UNL     1       8.053  14.202  17.818  0.00  0.00    +0.000 NA
ATOM     20  C   UNL     1       9.242  14.826  17.964  0.00  0.00    +0.000 A 
ATOM     21  C   UNL     1      10.400  14.152  18.335  0.00  0.00    +0.000 A 
ATOM     22  N   UNL     1      10.435  12.813  18.572  0.00  0.00    +0.000 NA
ENDBRANCH   2  17
TORSDOF 2
ENDMDL
MODEL 5
REMARK VINA RESULT:      -6.9      5.999      7.296
REMARK  Name = 
REMARK  2 active torsions:
REMARK  status: ('A' for Active; 'I' for Inactive)
REMARK    1  A    between atoms: C_2  and  C_16
REMARK    2  A    between atoms: C_6  and  C_7
REMARK                            x       y       z     vdW  Elec       q    Type
REMARK                         _______ _______ _______ _____ _____    ______ ____
ROOT
ATOM      1  O   UNL     1       3.537   5.808  18.983  0.00  0.00    +0.000 OA
ATOM      2  C   UNL     1       3.936   6.367  17.967  0.00  0.00    +0.000 C 
ATOM      3  N   UNL     1       3.433   7.535  17.434  0.00  0.00    +0.000 N 
ATOM      4  C   UNL     1       2.475   8.257  18.090  0.00  0.00    +0.000 A 
ATOM      5  N   UNL     1       1.755   9.237  17.595  0.00  0.00    +0.000 NA
ATOM      6  C   UNL     1       0.928   9.619  18.650  0.00  0.00    +0.000 A 
ATOM      7  C   UNL     1       1.256   8.874  19.760  0.00  0.00    +0.000 A 
ATOM      8  O   UNL     1       2.227   7.994  19.406  0.00  0.00    +0.000 OA
ATOM      9  H   UNL     1       3.714   7.844  16.511  0.00  0.00    +0.000 HD
ENDROOT
BRANCH   6  10
ATOM     10  C   UNL     1      -0.119  10.640  18.618  0.00  0.00    +0.000 C 
ATOM     11  O   UNL     1      -1.268  10.354  18.269  0.00  0.00    +0.000 OA
ATOM     12  N   UNL     1       0.235  11.936  18.953  0.00  0.00    +0.000 N 
ATOM     13  C   UNL     1      -0.728  13.017  18.973  0.00  0.00    +0.000 C 
ATOM     14  C   UNL     1       0.102  14.243  18.630  0.00  0.00    +0.000 C 
ATOM     15  C   UNL     1       1.455  13.944  19.267  0.00  0.00    +0.000 C 
ATOM     16  C   UNL     1       1.578  12.427  19.208  0.00  0.00    +0.000 C 
ENDBRANCH   6  10
BRANCH   2  17
ATOM     17  C   UNL     1       5.033   5.724  17.204  0.00  0.00    +0.000 A 
ATOM     18  C   UNL     1       6.200   6.450  16.993  0.00  0.00    +0.000 A 
ATOM     19  N   UNL     1       7.231   5.980  16.249  0.00  0.00    +0.000 NA
ATOM     20  C   UNL     1       7.037   4.754  15.717  0.00  0.00    +0.000 A 
ATOM     21  C   UNL     1       5.878   4.018  15.938  0.00  0.00    +0.000 A 
ATOM     22  N   UNL     1       4.845   4.472  16.698  0.00  0.00    +0.000 NA
ENDBRANCH   2  17
TORSDOF 2
ENDMDL
MODEL 6
REMARK VINA RESULT:      -6.9      2.313      8.443
REMARK  Name = 
REMARK  2 active torsions:
REMARK  status: ('A' for Active; 'I' for Inactive)
REMARK    1  A    between atoms: C_2  and  C_16
REMARK    2  A    between atoms: C_6  and  C_7
REMARK                            x       y       z     vdW  Elec       q    Type
REMARK                         _______ _______ _______ _____ _____    ______ ____
ROOT
ATOM      1  O   UNL     1       7.885  10.422  17.687  0.00  0.00    +0.000 OA
ATOM      2  C   UNL     1       8.712   9.869  18.404  0.00  0.00    +0.000 C 
ATOM      3  N   UNL     1       8.739   8.527  18.723  0.00  0.00    +0.000 N 
ATOM      4  C   UNL     1       7.866   7.645  18.148  0.00  0.00    +0.000 A 
ATOM      5  N   UNL     1       7.631   6.412  18.532  0.00  0.00    +0.000 NA
ATOM      6  C   UNL     1       6.663   5.956  17.638  0.00  0.00    +0.000 A 
ATOM      7  C   UNL     1       6.420   6.943  16.711  0.00  0.00    +0.000 A 
ATOM      8  O   UNL     1       7.168   8.026  17.039  0.00  0.00    +0.000 OA
ATOM      9  H   UNL     1       9.360   8.181  19.444  0.00  0.00    +0.000 HD
ENDROOT
BRANCH   6  10
ATOM     10  C   UNL     1       6.001   4.652  17.653  0.00  0.00    +0.000 C 
ATOM     11  O   UNL     1       6.334   3.766  16.862  0.00  0.00    +0.000 OA
ATOM     12  N   UNL     1       4.968   4.466  18.557  0.00  0.00    +0.000 N 
ATOM     13  C   UNL     1       4.261   3.208  18.669  0.00  0.00    +0.000 C 
ATOM     14  C   UNL     1       2.868   3.619  19.119  0.00  0.00    +0.000 C 
ATOM     15  C   UNL     1       3.127   4.834  20.002  0.00  0.00    +0.000 C 
ATOM     16  C   UNL     1       4.373   5.479  19.411  0.00  0.00    +0.000 C 
ENDBRANCH   6  10
BRANCH   2  17
ATOM     17  C   UNL     1       9.765  10.707  19.026  0.00  0.00    +0.000 A 
ATOM     18  C   UNL     1       9.603  11.088  20.353  0.00  0.00    +0.000 A 
ATOM     19  N   UNL     1      10.472  11.911  20.991  0.00  0.00    +0.000 NA
ATOM     20  C   UNL     1      11.505  12.343  20.236  0.00  0.00    +0.000 A 
ATOM     21  C   UNL     1      11.680  11.951  18.913  0.00  0.00    +0.000 A 
ATOM     22  N   UNL     1      10.825  11.112  18.269  0.00  0.00    +0.000 NA
ENDBRANCH   2  17
TORSDOF 2
ENDMDL
MODEL 7
REMARK VINA RESULT:      -6.8      6.431      8.233
REMARK  Name = 
REMARK  2 active torsions:
REMARK  status: ('A' for Active; 'I' for Inactive)
REMARK    1  A    between atoms: C_2  and  C_16
REMARK    2  A    between atoms: C_6  and  C_7
REMARK                            x       y       z     vdW  Elec       q    Type
REMARK                         _______ _______ _______ _____ _____    ______ ____
ROOT
ATOM      1  O   UNL     1       3.142   5.744  18.673  0.00  0.00    +0.000 OA
ATOM      2  C   UNL     1       3.722   6.396  17.811  0.00  0.00    +0.000 C 
ATOM      3  N   UNL     1       3.428   7.691  17.439  0.00  0.00    +0.000 N 
ATOM      4  C   UNL     1       2.490   8.424  18.113  0.00  0.00    +0.000 A 
ATOM      5  N   UNL     1       1.955   9.558  17.724  0.00  0.00    +0.000 NA
ATOM      6  C   UNL     1       1.060   9.879  18.744  0.00  0.00    +0.000 A 
ATOM      7  C   UNL     1       1.164   8.932  19.736  0.00  0.00    +0.000 A 
ATOM      8  O   UNL     1       2.059   7.994  19.334  0.00  0.00    +0.000 OA
ATOM      9  H   UNL     1       3.851   8.100  16.615  0.00  0.00    +0.000 HD
ENDROOT
BRANCH   6  10
ATOM     10  C   UNL     1       0.151  11.025  18.785  0.00  0.00    +0.000 C 
ATOM     11  O   UNL     1       0.431  12.028  19.446  0.00  0.00    +0.000 OA
ATOM     12  N   UNL     1      -1.042  10.925  18.089  0.00  0.00    +0.000 N 
ATOM     13  C   UNL     1      -2.001  12.008  18.046  0.00  0.00    +0.000 C 
ATOM     14  C   UNL     1      -3.337  11.298  17.897  0.00  0.00    +0.000 C 
ATOM     15  C   UNL     1      -2.995  10.078  17.049  0.00  0.00    +0.000 C 
ATOM     16  C   UNL     1      -1.557   9.741  17.423  0.00  0.00    +0.000 C 
ENDBRANCH   6  10
BRANCH   2  17
ATOM     17  C   UNL     1       4.819   5.737  17.060  0.00  0.00    +0.000 A 
ATOM     18  C   UNL     1       4.624   4.432  16.623  0.00  0.00    +0.000 A 
ATOM     19  N   UNL     1       5.589   3.719  15.992  0.00  0.00    +0.000 NA
ATOM     20  C   UNL     1       6.762   4.368  15.828  0.00  0.00    +0.000 A 
ATOM     21  C   UNL     1       6.956   5.679  16.250  0.00  0.00    +0.000 A 
ATOM     22  N   UNL     1       5.989   6.410  16.868  0.00  0.00    +0.000 NA
ENDBRANCH   2  17
TORSDOF 2
ENDMDL
MODEL 8
REMARK VINA RESULT:      -6.8      7.234     10.721
REMARK  Name = 
REMARK  2 active torsions:
REMARK  status: ('A' for Active; 'I' for Inactive)
REMARK    1  A    between atoms: C_2  and  C_16
REMARK    2  A    between atoms: C_6  and  C_7
REMARK                            x       y       z     vdW  Elec       q    Type
REMARK                         _______ _______ _______ _____ _____    ______ ____
ROOT
ATOM      1  O   UNL     1      -0.063  10.128  18.840  0.00  0.00    +0.000 OA
ATOM      2  C   UNL     1       0.158   9.939  20.032  0.00  0.00    +0.000 C 
ATOM      3  N   UNL     1       0.975   8.962  20.559  0.00  0.00    +0.000 N 
ATOM      4  C   UNL     1       1.728   8.157  19.749  0.00  0.00    +0.000 A 
ATOM      5  N   UNL     1       2.352   7.056  20.099  0.00  0.00    +0.000 NA
ATOM      6  C   UNL     1       2.951   6.614  18.920  0.00  0.00    +0.000 A 
ATOM      7  C   UNL     1       2.700   7.532  17.927  0.00  0.00    +0.000 A 
ATOM      8  O   UNL     1       1.908   8.507  18.443  0.00  0.00    +0.000 OA
ATOM      9  H   UNL     1       0.980   8.775  21.554  0.00  0.00    +0.000 HD
ENDROOT
BRANCH   6  10
ATOM     10  C   UNL     1       3.725   5.386  18.737  0.00  0.00    +0.000 C 
ATOM     11  O   UNL     1       4.945   5.431  18.560  0.00  0.00    +0.000 OA
ATOM     12  N   UNL     1       3.035   4.186  18.732  0.00  0.00    +0.000 N 
ATOM     13  C   UNL     1       3.707   2.913  18.579  0.00  0.00    +0.000 C 
ATOM     14  C   UNL     1       2.669   2.039  17.894  0.00  0.00    +0.000 C 
ATOM     15  C   UNL     1       1.350   2.541  18.471  0.00  0.00    +0.000 C 
ATOM     16  C   UNL     1       1.593   4.017  18.755  0.00  0.00    +0.000 C 
ENDBRANCH   6  10
BRANCH   2  17
ATOM     17  C   UNL     1      -0.539  10.804  21.015  0.00  0.00    +0.000 A 
ATOM     18  C   UNL     1      -0.473  10.455  22.359  0.00  0.00    +0.000 A 
ATOM     19  N   UNL     1      -1.134  11.138  23.326  0.00  0.00    +0.000 NA
ATOM     20  C   UNL     1      -1.871  12.180  22.885  0.00  0.00    +0.000 A 
ATOM     21  C   UNL     1      -1.927  12.542  21.544  0.00  0.00    +0.000 A 
ATOM     22  N   UNL     1      -1.254  11.875  20.567  0.00  0.00    +0.000 NA
ENDBRANCH   2  17
TORSDOF 2
ENDMDL
MODEL 9
REMARK VINA RESULT:      -6.7      0.656      1.056
REMARK  Name = 
REMARK  2 active torsions:
REMARK  status: ('A' for Active; 'I' for Inactive)
REMARK    1  A    between atoms: C_2  and  C_16
REMARK    2  A    between atoms: C_6  and  C_7
REMARK                            x       y       z     vdW  Elec       q    Type
REMARK                         _______ _______ _______ _____ _____    ______ ____
ROOT
ATOM      1  O   UNL     1       7.821   6.591  18.955  0.00  0.00    +0.000 OA
ATOM      2  C   UNL     1       7.413   6.927  17.848  0.00  0.00    +0.000 C 
ATOM      3  N   UNL     1       7.493   8.192  17.304  0.00  0.00    +0.000 N 
ATOM      4  C   UNL     1       8.166   9.196  17.945  0.00  0.00    +0.000 A 
ATOM      5  N   UNL     1       8.118  10.477  17.661  0.00  0.00    +0.000 NA
ATOM      6  C   UNL     1       8.960  11.066  18.604  0.00  0.00    +0.000 A 
ATOM      7  C   UNL     1       9.527  10.073  19.370  0.00  0.00    +0.000 A 
ATOM      8  O   UNL     1       9.013   8.883  18.968  0.00  0.00    +0.000 OA
ATOM      9  H   UNL     1       6.993   8.420  16.454  0.00  0.00    +0.000 HD
ENDROOT
BRANCH   6  10
ATOM     10  C   UNL     1       9.222  12.495  18.774  0.00  0.00    +0.000 C 
ATOM     11  O   UNL     1       8.421  13.215  19.376  0.00  0.00    +0.000 OA
ATOM     12  N   UNL     1      10.373  13.010  18.203  0.00  0.00    +0.000 N 
ATOM     13  C   UNL     1      10.737  14.406  18.328  0.00  0.00    +0.000 C 
ATOM     14  C   UNL     1      11.512  14.690  17.053  0.00  0.00    +0.000 C 
ATOM     15  C   UNL     1      12.228  13.374  16.773  0.00  0.00    +0.000 C 
ATOM     16  C   UNL     1      11.295  12.305  17.329  0.00  0.00    +0.000 C 
ENDBRANCH   6  10
BRANCH   2  17
ATOM     17  C   UNL     1       6.732   5.904  17.017  0.00  0.00    +0.000 A 
ATOM     18  C   UNL     1       7.431   5.356  15.947  0.00  0.00    +0.000 A 
ATOM     19  N   UNL     1       6.875   4.469  15.086  0.00  0.00    +0.000 NA
ATOM     20  C   UNL     1       5.584   4.163  15.339  0.00  0.00    +0.000 A 
ATOM     21  C   UNL     1       4.886   4.697  16.417  0.00  0.00    +0.000 A 
ATOM     22  N   UNL     1       5.439   5.574  17.297  0.00  0.00    +0.000 NA
ENDBRANCH   2  17
TORSDOF 2
ENDMDL
