MODEL 1
REMARK VINA RESULT:      -6.8      0.000      0.000
REMARK  Name = 
REMARK  4 active torsions:
REMARK  status: ('A' for Active; 'I' for Inactive)
REMARK    1  A    between atoms: C_1  and  C_2
REMARK    2  A    between atoms: C_2  and  C_3
REMARK    3  A    between atoms: C_3  and  C_4
REMARK    4  A    between atoms: C_5  and  O_6
REMARK                            x       y       z     vdW  Elec       q    Type
REMARK                         _______ _______ _______ _____ _____    ______ ____
ROOT
ATOM      1  C   UNL     1       4.788   5.163  17.122  0.00  0.00    +0.000 C 
ATOM      2  C   UNL     1       4.782   3.819  17.008  0.00  0.00    +0.000 C 
ATOM      3  C   UNL     1       3.845   2.967  17.812  0.00  0.00    +0.000 C 
ATOM      4  O   UNL     1       3.823   1.749  17.698  0.00  0.00    +0.000 OA
ATOM      5  C   UNL     1       2.940   3.633  18.762  0.00  0.00    +0.000 A 
ATOM      6  C   UNL     1       2.094   2.859  19.571  0.00  0.00    +0.000 A 
ATOM      7  C   UNL     1       1.228   3.478  20.472  0.00  0.00    +0.000 A 
ATOM      8  C   UNL     1       1.198   4.868  20.565  0.00  0.00    +0.000 A 
ATOM      9  C   UNL     1       2.040   5.638  19.761  0.00  0.00    +0.000 A 
ATOM     10  C   UNL     1       2.919   5.017  18.861  0.00  0.00    +0.000 A 
ATOM     11  C   UNL     1       3.822   5.839  18.039  0.00  0.00    +0.000 C 
ATOM     12  O   UNL     1       3.788   7.062  18.133  0.00  0.00    +0.000 OA
ENDROOT
BRANCH   2  13
ATOM     13  O   UNL     1       5.644   3.117  16.182  0.00  0.00    +0.000 OA
ATOM     14  H   UNL     1       5.891   2.266  16.569  0.00  0.00    +0.000 HD
ENDBRANCH   2  13
BRANCH   1  15
ATOM     15  C   UNL     1       5.721   6.098  16.380  0.00  0.00    +0.000 C 
BRANCH  15  17
ATOM     16  C   UNL     1       7.477   7.523  17.496  0.00  0.00    +0.000 C 
ATOM     17  C   UNL     1       7.126   6.129  16.995  0.00  0.00    +0.000 C 
ENDBRANCH  15  17
ENDBRANCH   1  15
TORSDOF 3
ENDMDL
MODEL 2
REMARK VINA RESULT:      -6.7      1.499      5.451
REMARK  Name = 
REMARK  4 active torsions:
REMARK  status: ('A' for Active; 'I' for Inactive)
REMARK    1  A    between atoms: C_1  and  C_2
REMARK    2  A    between atoms: C_2  and  C_3
REMARK    3  A    between atoms: C_3  and  C_4
REMARK    4  A    between atoms: C_5  and  O_6
REMARK                            x       y       z     vdW  Elec       q    Type
REMARK                         _______ _______ _______ _____ _____    ______ ____
ROOT
ATOM      1  C   UNL     1       3.180   4.635  19.411  0.00  0.00    +0.000 C 
ATOM      2  C   UNL     1       3.039   5.957  19.183  0.00  0.00    +0.000 C 
ATOM      3  C   UNL     1       3.642   6.613  17.977  0.00  0.00    +0.000 C 
ATOM      4  O   UNL     1       3.501   7.809  17.756  0.00  0.00    +0.000 OA
ATOM      5  C   UNL     1       4.425   5.782  17.050  0.00  0.00    +0.000 A 
ATOM      6  C   UNL     1       5.050   6.380  15.945  0.00  0.00    +0.000 A 
ATOM      7  C   UNL     1       5.792   5.602  15.055  0.00  0.00    +0.000 A 
ATOM      8  C   UNL     1       5.907   4.229  15.260  0.00  0.00    +0.000 A 
ATOM      9  C   UNL     1       5.285   3.634  16.360  0.00  0.00    +0.000 A 
ATOM     10  C   UNL     1       4.546   4.416  17.261  0.00  0.00    +0.000 A 
ATOM     11  C   UNL     1       3.920   3.782  18.432  0.00  0.00    +0.000 C 
ATOM     12  O   UNL     1       4.031   2.572  18.603  0.00  0.00    +0.000 OA
ENDROOT
BRANCH   2  13
ATOM     13  O   UNL     1       2.369   6.813  20.039  0.00  0.00    +0.000 OA
ATOM     14  H   UNL     1       1.414   6.655  20.025  0.00  0.00    +0.000 HD
ENDBRANCH   2  13
BRANCH   1  15
ATOM     15  C   UNL     1       2.639   3.894  20.617  0.00  0.00    +0.000 C 
BRANCH  15  17
ATOM     16  C   UNL     1       0.682   2.779  19.484  0.00  0.00    +0.000 C 
ATOM     17  C   UNL     1       1.113   3.749  20.576  0.00  0.00    +0.000 C 
ENDBRANCH  15  17
ENDBRANCH   1  15
TORSDOF 3
ENDMDL
MODEL 3
REMARK VINA RESULT:      -6.6      1.532      1.706
REMARK  Name = 
REMARK  4 active torsions:
REMARK  status: ('A' for Active; 'I' for Inactive)
REMARK    1  A    between atoms: C_1  and  C_2
REMARK    2  A    between atoms: C_2  and  C_3
REMARK    3  A    between atoms: C_3  and  C_4
REMARK    4  A    between atoms: C_5  and  O_6
REMARK                            x       y       z     vdW  Elec       q    Type
REMARK                         _______ _______ _______ _____ _____    ______ ____
ROOT
ATOM      1  C   UNL     1       4.801   5.337  18.068  0.00  0.00    +0.000 C 
ATOM      2  C   UNL     1       5.413   4.240  18.562  0.00  0.00    +0.000 C 
ATOM      3  C   UNL     1       4.696   3.287  19.472  0.00  0.00    +0.000 C 
ATOM      4  O   UNL     1       5.241   2.280  19.908  0.00  0.00    +0.000 OA
ATOM      5  C   UNL     1       3.305   3.589  19.842  0.00  0.00    +0.000 A 
ATOM      6  C   UNL     1       2.629   2.747  20.739  0.00  0.00    +0.000 A 
ATOM      7  C   UNL     1       1.308   3.020  21.095  0.00  0.00    +0.000 A 
ATOM      8  C   UNL     1       0.657   4.127  20.555  0.00  0.00    +0.000 A 
ATOM      9  C   UNL     1       1.330   4.965  19.664  0.00  0.00    +0.000 A 
ATOM     10  C   UNL     1       2.661   4.698  19.312  0.00  0.00    +0.000 A 
ATOM     11  C   UNL     1       3.368   5.604  18.394  0.00  0.00    +0.000 C 
ATOM     12  O   UNL     1       2.784   6.578  17.928  0.00  0.00    +0.000 OA
ENDROOT
BRANCH   2  13
ATOM     13  O   UNL     1       6.735   3.921  18.308  0.00  0.00    +0.000 OA
ATOM     14  H   UNL     1       6.980   3.076  18.710  0.00  0.00    +0.000 HD
ENDBRANCH   2  13
BRANCH   1  15
ATOM     15  C   UNL     1       5.455   6.372  17.175  0.00  0.00    +0.000 C 
BRANCH  15  17
ATOM     16  C   UNL     1       6.379   5.217  15.133  0.00  0.00    +0.000 C 
ATOM     17  C   UNL     1       5.246   6.072  15.686  0.00  0.00    +0.000 C 
ENDBRANCH  15  17
ENDBRANCH   1  15
TORSDOF 3
ENDMDL
MODEL 4
REMARK VINA RESULT:      -6.5      2.161      3.182
REMARK  Name = 
REMARK  4 active torsions:
REMARK  status: ('A' for Active; 'I' for Inactive)
REMARK    1  A    between atoms: C_1  and  C_2
REMARK    2  A    between atoms: C_2  and  C_3
REMARK    3  A    between atoms: C_3  and  C_4
REMARK    4  A    between atoms: C_5  and  O_6
REMARK                            x       y       z     vdW  Elec       q    Type
REMARK                         _______ _______ _______ _____ _____    ______ ____
ROOT
ATOM      1  C   UNL     1       5.360   5.009  17.344  0.00  0.00    +0.000 C 
ATOM      2  C   UNL     1       4.925   4.368  18.448  0.00  0.00    +0.000 C 
ATOM      3  C   UNL     1       3.838   4.939  19.309  0.00  0.00    +0.000 C 
ATOM      4  O   UNL     1       3.426   4.352  20.301  0.00  0.00    +0.000 OA
ATOM      5  C   UNL     1       3.267   6.243  18.937  0.00  0.00    +0.000 A 
ATOM      6  C   UNL     1       2.290   6.830  19.756  0.00  0.00    +0.000 A 
ATOM      7  C   UNL     1       1.738   8.064  19.412  0.00  0.00    +0.000 A 
ATOM      8  C   UNL     1       2.151   8.712  18.250  0.00  0.00    +0.000 A 
ATOM      9  C   UNL     1       3.124   8.129  17.436  0.00  0.00    +0.000 A 
ATOM     10  C   UNL     1       3.688   6.892  17.785  0.00  0.00    +0.000 A 
ATOM     11  C   UNL     1       4.732   6.301  16.933  0.00  0.00    +0.000 C 
ATOM     12  O   UNL     1       5.090   6.883  15.914  0.00  0.00    +0.000 OA
ENDROOT
BRANCH   2  13
ATOM     13  O   UNL     1       5.453   3.169  18.895  0.00  0.00    +0.000 OA
ATOM     14  H   UNL     1       5.046   2.890  19.727  0.00  0.00    +0.000 HD
ENDBRANCH   2  13
BRANCH   1  15
ATOM     15  C   UNL     1       6.475   4.527  16.438  0.00  0.00    +0.000 C 
BRANCH  15  17
ATOM     16  C   UNL     1       6.329   4.156  13.948  0.00  0.00    +0.000 C 
ATOM     17  C   UNL     1       5.964   3.609  15.322  0.00  0.00    +0.000 C 
ENDBRANCH  15  17
ENDBRANCH   1  15
TORSDOF 3
ENDMDL
MODEL 5
REMARK VINA RESULT:      -6.5      1.537      5.412
REMARK  Name = 
REMARK  4 active torsions:
REMARK  status: ('A' for Active; 'I' for Inactive)
REMARK    1  A    between atoms: C_1  and  C_2
REMARK    2  A    between atoms: C_2  and  C_3
REMARK    3  A    between atoms: C_3  and  C_4
REMARK    4  A    between atoms: C_5  and  O_6
REMARK                            x       y       z     vdW  Elec       q    Type
REMARK                         _______ _______ _______ _____ _____    ______ ____
ROOT
ATOM      1  C   UNL     1       1.851   3.971  19.197  0.00  0.00    +0.000 C 
ATOM      2  C   UNL     1       1.872   5.273  19.548  0.00  0.00    +0.000 C 
ATOM      3  C   UNL     1       2.765   6.258  18.855  0.00  0.00    +0.000 C 
ATOM      4  O   UNL     1       2.774   7.444  19.157  0.00  0.00    +0.000 OA
ATOM      5  C   UNL     1       3.651   5.765  17.789  0.00  0.00    +0.000 A 
ATOM      6  C   UNL     1       4.541   6.651  17.163  0.00  0.00    +0.000 A 
ATOM      7  C   UNL     1       5.383   6.197  16.148  0.00  0.00    +0.000 A 
ATOM      8  C   UNL     1       5.337   4.863  15.750  0.00  0.00    +0.000 A 
ATOM      9  C   UNL     1       4.453   3.981  16.374  0.00  0.00    +0.000 A 
ATOM     10  C   UNL     1       3.612   4.433  17.401  0.00  0.00    +0.000 A 
ATOM     11  C   UNL     1       2.704   3.487  18.070  0.00  0.00    +0.000 C 
ATOM     12  O   UNL     1       2.676   2.313  17.713  0.00  0.00    +0.000 OA
ENDROOT
BRANCH   2  13
ATOM     13  O   UNL     1       1.113   5.799  20.579  0.00  0.00    +0.000 OA
ATOM     14  H   UNL     1       0.292   5.303  20.704  0.00  0.00    +0.000 HD
ENDBRANCH   2  13
BRANCH   1  15
ATOM     15  C   UNL     1       1.011   2.900  19.864  0.00  0.00    +0.000 C 
BRANCH  15  17
ATOM     16  C   UNL     1       2.834   2.476  21.554  0.00  0.00    +0.000 C 
ATOM     17  C   UNL     1       1.347   2.738  21.351  0.00  0.00    +0.000 C 
ENDBRANCH  15  17
ENDBRANCH   1  15
TORSDOF 3
ENDMDL
MODEL 6
REMARK VINA RESULT:      -6.4      1.586      5.423
REMARK  Name = 
REMARK  4 active torsions:
REMARK  status: ('A' for Active; 'I' for Inactive)
REMARK    1  A    between atoms: C_1  and  C_2
REMARK    2  A    between atoms: C_2  and  C_3
REMARK    3  A    between atoms: C_3  and  C_4
REMARK    4  A    between atoms: C_5  and  O_6
REMARK                            x       y       z     vdW  Elec       q    Type
REMARK                         _______ _______ _______ _____ _____    ______ ____
ROOT
ATOM      1  C   UNL     1       2.320   5.020  19.084  0.00  0.00    +0.000 C 
ATOM      2  C   UNL     1       2.521   6.345  18.936  0.00  0.00    +0.000 C 
ATOM      3  C   UNL     1       3.478   6.884  17.915  0.00  0.00    +0.000 C 
ATOM      4  O   UNL     1       3.650   8.087  17.764  0.00  0.00    +0.000 OA
ATOM      5  C   UNL     1       4.225   5.925  17.086  0.00  0.00    +0.000 A 
ATOM      6  C   UNL     1       5.171   6.398  16.163  0.00  0.00    +0.000 A 
ATOM      7  C   UNL     1       5.882   5.499  15.368  0.00  0.00    +0.000 A 
ATOM      8  C   UNL     1       5.649   4.131  15.484  0.00  0.00    +0.000 A 
ATOM      9  C   UNL     1       4.709   3.660  16.403  0.00  0.00    +0.000 A 
ATOM     10  C   UNL     1       3.999   4.562  17.211  0.00  0.00    +0.000 A 
ATOM     11  C   UNL     1       3.031   4.052  18.195  0.00  0.00    +0.000 C 
ATOM     12  O   UNL     1       2.837   2.844  18.291  0.00  0.00    +0.000 OA
ENDROOT
BRANCH   2  13
ATOM     13  O   UNL     1       1.902   7.305  19.718  0.00  0.00    +0.000 OA
ATOM     14  H   UNL     1       1.399   7.932  19.179  0.00  0.00    +0.000 HD
ENDBRANCH   2  13
BRANCH   1  15
ATOM     15  C   UNL     1       1.404   4.385  20.111  0.00  0.00    +0.000 C 
BRANCH  15  17
ATOM     16  C   UNL     1       2.117   2.585  21.726  0.00  0.00    +0.000 C 
ATOM     17  C   UNL     1       2.128   4.078  21.427  0.00  0.00    +0.000 C 
ENDBRANCH  15  17
ENDBRANCH   1  15
TORSDOF 3
ENDMDL
MODEL 7
REMARK VINA RESULT:      -6.4      1.040      2.993
REMARK  Name = 
REMARK  4 active torsions:
REMARK  status: ('A' for Active; 'I' for Inactive)
REMARK    1  A    between atoms: C_1  and  C_2
REMARK    2  A    between atoms: C_2  and  C_3
REMARK    3  A    between atoms: C_3  and  C_4
REMARK    4  A    between atoms: C_5  and  O_6
REMARK                            x       y       z     vdW  Elec       q    Type
REMARK                         _______ _______ _______ _____ _____    ______ ____
ROOT
ATOM      1  C   UNL     1       4.176   5.388  17.252  0.00  0.00    +0.000 C 
ATOM      2  C   UNL     1       3.643   6.441  17.905  0.00  0.00    +0.000 C 
ATOM      3  C   UNL     1       2.690   6.254  19.047  0.00  0.00    +0.000 C 
ATOM      4  O   UNL     1       2.218   7.206  19.655  0.00  0.00    +0.000 OA
ATOM      5  C   UNL     1       2.320   4.882  19.430  0.00  0.00    +0.000 A 
ATOM      6  C   UNL     1       1.385   4.677  20.456  0.00  0.00    +0.000 A 
ATOM      7  C   UNL     1       1.030   3.381  20.830  0.00  0.00    +0.000 A 
ATOM      8  C   UNL     1       1.609   2.288  20.190  0.00  0.00    +0.000 A 
ATOM      9  C   UNL     1       2.538   2.492  19.168  0.00  0.00    +0.000 A 
ATOM     10  C   UNL     1       2.890   3.794  18.783  0.00  0.00    +0.000 A 
ATOM     11  C   UNL     1       3.849   3.996  17.686  0.00  0.00    +0.000 C 
ATOM     12  O   UNL     1       4.350   3.024  17.126  0.00  0.00    +0.000 OA
ENDROOT
BRANCH   2  13
ATOM     13  O   UNL     1       3.895   7.759  17.566  0.00  0.00    +0.000 OA
ATOM     14  H   UNL     1       4.731   8.068  17.941  0.00  0.00    +0.000 HD
ENDBRANCH   2  13
BRANCH   1  15
ATOM     15  C   UNL     1       5.115   5.481  16.066  0.00  0.00    +0.000 C 
BRANCH  15  17
ATOM     16  C   UNL     1       7.344   4.641  16.893  0.00  0.00    +0.000 C 
ATOM     17  C   UNL     1       6.540   5.867  16.480  0.00  0.00    +0.000 C 
ENDBRANCH  15  17
ENDBRANCH   1  15
TORSDOF 3
ENDMDL
MODEL 8
REMARK VINA RESULT:      -6.4      1.848      5.329
REMARK  Name = 
REMARK  4 active torsions:
REMARK  status: ('A' for Active; 'I' for Inactive)
REMARK    1  A    between atoms: C_1  and  C_2
REMARK    2  A    between atoms: C_2  and  C_3
REMARK    3  A    between atoms: C_3  and  C_4
REMARK    4  A    between atoms: C_5  and  O_6
REMARK                            x       y       z     vdW  Elec       q    Type
REMARK                         _______ _______ _______ _____ _____    ______ ____
ROOT
ATOM      1  C   UNL     1       2.848   4.224  18.697  0.00  0.00    +0.000 C 
ATOM      2  C   UNL     1       3.775   4.815  19.478  0.00  0.00    +0.000 C 
ATOM      3  C   UNL     1       5.159   5.099  18.975  0.00  0.00    +0.000 C 
ATOM      4  O   UNL     1       5.998   5.652  19.674  0.00  0.00    +0.000 OA
ATOM      5  C   UNL     1       5.499   4.691  17.603  0.00  0.00    +0.000 A 
ATOM      6  C   UNL     1       6.803   4.890  17.124  0.00  0.00    +0.000 A 
ATOM      7  C   UNL     1       7.136   4.511  15.823  0.00  0.00    +0.000 A 
ATOM      8  C   UNL     1       6.172   3.940  14.996  0.00  0.00    +0.000 A 
ATOM      9  C   UNL     1       4.875   3.741  15.472  0.00  0.00    +0.000 A 
ATOM     10  C   UNL     1       4.540   4.112  16.783  0.00  0.00    +0.000 A 
ATOM     11  C   UNL     1       3.177   3.871  17.283  0.00  0.00    +0.000 C 
ATOM     12  O   UNL     1       2.337   3.364  16.545  0.00  0.00    +0.000 OA
ENDROOT
BRANCH   2  13
ATOM     13  O   UNL     1       3.550   5.173  20.796  0.00  0.00    +0.000 OA
ATOM     14  H   UNL     1       3.297   4.408  21.333  0.00  0.00    +0.000 HD
ENDBRANCH   2  13
BRANCH   1  15
ATOM     15  C   UNL     1       1.441   3.866  19.131  0.00  0.00    +0.000 C 
BRANCH  15  17
ATOM     16  C   UNL     1       1.303   2.728  21.377  0.00  0.00    +0.000 C 
ATOM     17  C   UNL     1       1.384   2.523  19.870  0.00  0.00    +0.000 C 
ENDBRANCH  15  17
ENDBRANCH   1  15
TORSDOF 3
ENDMDL
MODEL 9
REMARK VINA RESULT:      -6.4      1.993      2.787
REMARK  Name = 
REMARK  4 active torsions:
REMARK  status: ('A' for Active; 'I' for Inactive)
REMARK    1  A    between atoms: C_1  and  C_2
REMARK    2  A    between atoms: C_2  and  C_3
REMARK    3  A    between atoms: C_3  and  C_4
REMARK    4  A    between atoms: C_5  and  O_6
REMARK                            x       y       z     vdW  Elec       q    Type
REMARK                         _______ _______ _______ _____ _____    ______ ____
ROOT
ATOM      1  C   UNL     1       6.740   5.775  17.564  0.00  0.00    +0.000 C 
ATOM      2  C   UNL     1       6.521   5.394  16.288  0.00  0.00    +0.000 C 
ATOM      3  C   UNL     1       5.414   4.448  15.932  0.00  0.00    +0.000 C 
ATOM      4  O   UNL     1       5.199   4.115  14.774  0.00  0.00    +0.000 OA
ATOM      5  C   UNL     1       4.577   3.914  17.017  0.00  0.00    +0.000 A 
ATOM      6  C   UNL     1       3.571   2.982  16.721  0.00  0.00    +0.000 A 
ATOM      7  C   UNL     1       2.768   2.471  17.741  0.00  0.00    +0.000 A 
ATOM      8  C   UNL     1       2.959   2.892  19.055  0.00  0.00    +0.000 A 
ATOM      9  C   UNL     1       3.961   3.819  19.350  0.00  0.00    +0.000 A 
ATOM     10  C   UNL     1       4.776   4.327  18.327  0.00  0.00    +0.000 A 
ATOM     11  C   UNL     1       5.846   5.282  18.655  0.00  0.00    +0.000 C 
ATOM     12  O   UNL     1       6.008   5.643  19.817  0.00  0.00    +0.000 OA
ENDROOT
BRANCH   2  13
ATOM     13  O   UNL     1       7.302   5.806  15.222  0.00  0.00    +0.000 OA
ATOM     14  H   UNL     1       8.175   6.104  15.516  0.00  0.00    +0.000 HD
ENDBRANCH   2  13
BRANCH   1  15
ATOM     15  C   UNL     1       7.855   6.695  18.021  0.00  0.00    +0.000 C 
BRANCH  15  17
ATOM     16  C   UNL     1       8.517   9.105  18.352  0.00  0.00    +0.000 C 
ATOM     17  C   UNL     1       7.642   8.142  17.561  0.00  0.00    +0.000 C 
ENDBRANCH  15  17
ENDBRANCH   1  15
TORSDOF 3
ENDMDL
