MODEL 1
REMARK VINA RESULT:      -8.3      0.000      0.000
REMARK  Name = 
REMARK  3 active torsions:
REMARK  status: ('A' for Active; 'I' for Inactive)
REMARK    1  A    between atoms: C_2  and  C_4
REMARK    2  A    between atoms: C_8  and  C_9
REMARK    3  A    between atoms: N_13  and  C_14
REMARK                            x       y       z     vdW  Elec       q    Type
REMARK                         _______ _______ _______ _____ _____    ______ ____
ROOT
ATOM      1  C   UNL     1       6.694   4.738  16.086  0.00  0.00    +0.000 A 
ATOM      2  C   UNL     1       7.767   4.931  16.930  0.00  0.00    +0.000 A 
ATOM      3  S   UNL     1       7.222   5.032  18.552  0.00  0.00    +0.000 S 
ATOM      4  C   UNL     1       5.603   4.778  18.019  0.00  0.00    +0.000 A 
ATOM      5  N   UNL     1       4.584   4.756  18.911  0.00  0.00    +0.000 N 
ATOM      6  N   UNL     1       5.470   4.656  16.718  0.00  0.00    +0.000 NA
ATOM      7  H   UNL     1       4.806   4.925  19.884  0.00  0.00    +0.000 HD
ENDROOT
BRANCH   5   8
ATOM      8  C   UNL     1       3.404   4.005  18.728  0.00  0.00    +0.000 A 
ATOM      9  C   UNL     1       3.412   2.649  19.086  0.00  0.00    +0.000 A 
ATOM     10  C   UNL     1       2.258   1.869  18.957  0.00  0.00    +0.000 A 
ATOM     11  C   UNL     1       1.083   2.428  18.454  0.00  0.00    +0.000 A 
ATOM     12  C   UNL     1       1.065   3.765  18.070  0.00  0.00    +0.000 A 
ATOM     13  C   UNL     1       2.214   4.540  18.206  0.00  0.00    +0.000 A 
ATOM     14  F   UNL     1       2.166   5.806  17.762  0.00  0.00    +0.000 F 
ENDBRANCH   5   8
BRANCH   1  19
ATOM     15  C   UNL     1       6.140   3.617  12.534  0.00  0.00    +0.000 A 
ATOM     16  C   UNL     1       7.078   4.405  11.856  0.00  0.00    +0.000 A 
ATOM     17  C   UNL     1       7.874   5.301  12.564  0.00  0.00    +0.000 A 
ATOM     18  C   UNL     1       7.732   5.412  13.948  0.00  0.00    +0.000 A 
ATOM     19  C   UNL     1       6.783   4.637  14.637  0.00  0.00    +0.000 A 
ATOM     20  C   UNL     1       5.980   3.745  13.919  0.00  0.00    +0.000 A 
BRANCH  15  22
ATOM     21  N   UNL     1       5.863   1.406  11.578  0.00  0.00    +0.000 N 
ATOM     22  C   UNL     1       5.301   2.633  11.806  0.00  0.00    +0.000 C 
ATOM     23  O   UNL     1       4.158   2.892  11.460  0.00  0.00    +0.000 OA
ATOM     24  H   UNL     1       5.260   0.703  11.169  0.00  0.00    +0.000 HD
ATOM     25  H   UNL     1       6.691   1.091  12.065  0.00  0.00    +0.000 HD
ENDBRANCH  15  22
ENDBRANCH   1  19
TORSDOF 3
ENDMDL
MODEL 2
REMARK VINA RESULT:      -8.2      1.035      1.457
REMARK  Name = 
REMARK  3 active torsions:
REMARK  status: ('A' for Active; 'I' for Inactive)
REMARK    1  A    between atoms: C_2  and  C_4
REMARK    2  A    between atoms: C_8  and  C_9
REMARK    3  A    between atoms: N_13  and  C_14
REMARK                            x       y       z     vdW  Elec       q    Type
REMARK                         _______ _______ _______ _____ _____    ______ ____
ROOT
ATOM      1  C   UNL     1       6.731   4.787  16.079  0.00  0.00    +0.000 A 
ATOM      2  C   UNL     1       7.807   5.023  16.908  0.00  0.00    +0.000 A 
ATOM      3  S   UNL     1       7.275   5.125  18.535  0.00  0.00    +0.000 S 
ATOM      4  C   UNL     1       5.659   4.815  18.023  0.00  0.00    +0.000 A 
ATOM      5  N   UNL     1       4.651   4.773  18.926  0.00  0.00    +0.000 N 
ATOM      6  N   UNL     1       5.516   4.675  16.724  0.00  0.00    +0.000 NA
ATOM      7  H   UNL     1       4.878   4.959  19.893  0.00  0.00    +0.000 HD
ENDROOT
BRANCH   5   8
ATOM      8  C   UNL     1       3.493   3.984  18.764  0.00  0.00    +0.000 A 
ATOM      9  C   UNL     1       2.342   4.585  18.234  0.00  0.00    +0.000 A 
ATOM     10  C   UNL     1       1.179   3.838  18.020  0.00  0.00    +0.000 A 
ATOM     11  C   UNL     1       1.142   2.483  18.348  0.00  0.00    +0.000 A 
ATOM     12  C   UNL     1       2.267   1.876  18.899  0.00  0.00    +0.000 A 
ATOM     13  C   UNL     1       3.426   2.622  19.103  0.00  0.00    +0.000 A 
ATOM     14  F   UNL     1       4.462   2.008  19.696  0.00  0.00    +0.000 F 
ENDBRANCH   5   8
BRANCH   1  19
ATOM     15  C   UNL     1       6.139   3.639  12.541  0.00  0.00    +0.000 A 
ATOM     16  C   UNL     1       7.079   4.413  11.849  0.00  0.00    +0.000 A 
ATOM     17  C   UNL     1       7.889   5.307  12.543  0.00  0.00    +0.000 A 
ATOM     18  C   UNL     1       7.759   5.432  13.926  0.00  0.00    +0.000 A 
ATOM     19  C   UNL     1       6.808   4.672  14.630  0.00  0.00    +0.000 A 
ATOM     20  C   UNL     1       5.992   3.781  13.925  0.00  0.00    +0.000 A 
BRANCH  15  22
ATOM     21  N   UNL     1       5.845   1.431  11.584  0.00  0.00    +0.000 N 
ATOM     22  C   UNL     1       5.287   2.657  11.828  0.00  0.00    +0.000 C 
ATOM     23  O   UNL     1       4.136   2.915  11.508  0.00  0.00    +0.000 OA
ATOM     24  H   UNL     1       5.234   0.729  11.185  0.00  0.00    +0.000 HD
ATOM     25  H   UNL     1       6.684   1.116  12.050  0.00  0.00    +0.000 HD
ENDBRANCH  15  22
ENDBRANCH   1  19
TORSDOF 3
ENDMDL
MODEL 3
REMARK VINA RESULT:      -7.9      3.257      7.081
REMARK  Name = 
REMARK  3 active torsions:
REMARK  status: ('A' for Active; 'I' for Inactive)
REMARK    1  A    between atoms: C_2  and  C_4
REMARK    2  A    between atoms: C_8  and  C_9
REMARK    3  A    between atoms: N_13  and  C_14
REMARK                            x       y       z     vdW  Elec       q    Type
REMARK                         _______ _______ _______ _____ _____    ______ ____
ROOT
ATOM      1  C   UNL     1       4.862   5.376  17.829  0.00  0.00    +0.000 A 
ATOM      2  C   UNL     1       5.404   6.519  18.379  0.00  0.00    +0.000 A 
ATOM      3  S   UNL     1       6.805   6.977  17.503  0.00  0.00    +0.000 S 
ATOM      4  C   UNL     1       6.570   5.644  16.436  0.00  0.00    +0.000 A 
ATOM      5  N   UNL     1       7.437   5.419  15.422  0.00  0.00    +0.000 N 
ATOM      6  N   UNL     1       5.536   4.888  16.728  0.00  0.00    +0.000 NA
ATOM      7  H   UNL     1       8.233   6.037  15.336  0.00  0.00    +0.000 HD
ENDROOT
BRANCH   5   8
ATOM      8  C   UNL     1       7.069   4.808  14.204  0.00  0.00    +0.000 A 
ATOM      9  C   UNL     1       5.983   3.920  14.202  0.00  0.00    +0.000 A 
ATOM     10  C   UNL     1       5.556   3.316  13.015  0.00  0.00    +0.000 A 
ATOM     11  C   UNL     1       6.218   3.576  11.815  0.00  0.00    +0.000 A 
ATOM     12  C   UNL     1       7.314   4.434  11.803  0.00  0.00    +0.000 A 
ATOM     13  C   UNL     1       7.731   5.039  12.986  0.00  0.00    +0.000 A 
ATOM     14  F   UNL     1       8.831   5.807  12.936  0.00  0.00    +0.000 F 
ENDBRANCH   5   8
BRANCH   1  19
ATOM     15  C   UNL     1       2.568   3.338  20.012  0.00  0.00    +0.000 A 
ATOM     16  C   UNL     1       1.418   3.284  19.214  0.00  0.00    +0.000 A 
ATOM     17  C   UNL     1       1.401   3.921  17.976  0.00  0.00    +0.000 A 
ATOM     18  C   UNL     1       2.529   4.615  17.537  0.00  0.00    +0.000 A 
ATOM     19  C   UNL     1       3.683   4.688  18.336  0.00  0.00    +0.000 A 
ATOM     20  C   UNL     1       3.691   4.053  19.582  0.00  0.00    +0.000 A 
BRANCH  15  22
ATOM     21  N   UNL     1       1.468   2.646  22.059  0.00  0.00    +0.000 N 
ATOM     22  C   UNL     1       2.620   2.641  21.320  0.00  0.00    +0.000 C 
ATOM     23  O   UNL     1       3.627   2.062  21.702  0.00  0.00    +0.000 OA
ATOM     24  H   UNL     1       1.473   2.090  22.905  0.00  0.00    +0.000 HD
ATOM     25  H   UNL     1       0.572   2.894  21.662  0.00  0.00    +0.000 HD
ENDBRANCH  15  22
ENDBRANCH   1  19
TORSDOF 3
ENDMDL
MODEL 4
REMARK VINA RESULT:      -7.8      4.550      7.898
REMARK  Name = 
REMARK  3 active torsions:
REMARK  status: ('A' for Active; 'I' for Inactive)
REMARK    1  A    between atoms: C_2  and  C_4
REMARK    2  A    between atoms: C_8  and  C_9
REMARK    3  A    between atoms: N_13  and  C_14
REMARK                            x       y       z     vdW  Elec       q    Type
REMARK                         _______ _______ _______ _____ _____    ______ ____
ROOT
ATOM      1  C   UNL     1       2.776   5.875  19.248  0.00  0.00    +0.000 A 
ATOM      2  C   UNL     1       2.655   4.998  20.305  0.00  0.00    +0.000 A 
ATOM      3  S   UNL     1       3.381   3.498  19.903  0.00  0.00    +0.000 S 
ATOM      4  C   UNL     1       3.835   4.134  18.367  0.00  0.00    +0.000 A 
ATOM      5  N   UNL     1       4.501   3.362  17.476  0.00  0.00    +0.000 N 
ATOM      6  N   UNL     1       3.446   5.370  18.152  0.00  0.00    +0.000 NA
ATOM      7  H   UNL     1       4.689   2.402  17.734  0.00  0.00    +0.000 HD
ENDROOT
BRANCH   5   8
ATOM      8  C   UNL     1       5.407   3.875  16.525  0.00  0.00    +0.000 A 
ATOM      9  C   UNL     1       5.054   3.825  15.168  0.00  0.00    +0.000 A 
ATOM     10  C   UNL     1       5.901   4.352  14.188  0.00  0.00    +0.000 A 
ATOM     11  C   UNL     1       7.122   4.923  14.547  0.00  0.00    +0.000 A 
ATOM     12  C   UNL     1       7.501   4.959  15.886  0.00  0.00    +0.000 A 
ATOM     13  C   UNL     1       6.650   4.439  16.859  0.00  0.00    +0.000 A 
ATOM     14  F   UNL     1       7.087   4.437  18.128  0.00  0.00    +0.000 F 
ENDBRANCH   5   8
BRANCH   1  19
ATOM     15  C   UNL     1       1.128   9.092  20.307  0.00  0.00    +0.000 A 
ATOM     16  C   UNL     1       1.144   9.808  19.103  0.00  0.00    +0.000 A 
ATOM     17  C   UNL     1       1.700   9.237  17.962  0.00  0.00    +0.000 A 
ATOM     18  C   UNL     1       2.244   7.954  18.023  0.00  0.00    +0.000 A 
ATOM     19  C   UNL     1       2.248   7.231  19.229  0.00  0.00    +0.000 A 
ATOM     20  C   UNL     1       1.694   7.813  20.374  0.00  0.00    +0.000 A 
BRANCH  15  22
ATOM     21  N   UNL     1      -0.424   8.892  22.158  0.00  0.00    +0.000 N 
ATOM     22  C   UNL     1       0.513   9.666  21.528  0.00  0.00    +0.000 C 
ATOM     23  O   UNL     1       0.850  10.755  21.968  0.00  0.00    +0.000 OA
ATOM     24  H   UNL     1      -0.773   9.239  23.044  0.00  0.00    +0.000 HD
ATOM     25  H   UNL     1      -0.534   7.907  21.962  0.00  0.00    +0.000 HD
ENDBRANCH  15  22
ENDBRANCH   1  19
TORSDOF 3
ENDMDL
MODEL 5
REMARK VINA RESULT:      -7.7      6.674      9.716
REMARK  Name = 
REMARK  3 active torsions:
REMARK  status: ('A' for Active; 'I' for Inactive)
REMARK    1  A    between atoms: C_2  and  C_4
REMARK    2  A    between atoms: C_8  and  C_9
REMARK    3  A    between atoms: N_13  and  C_14
REMARK                            x       y       z     vdW  Elec       q    Type
REMARK                         _______ _______ _______ _____ _____    ______ ____
ROOT
ATOM      1  C   UNL     1       1.070   9.107  19.907  0.00  0.00    +0.000 A 
ATOM      2  C   UNL     1       1.477   9.655  18.709  0.00  0.00    +0.000 A 
ATOM      3  S   UNL     1       2.456   8.534  17.859  0.00  0.00    +0.000 S 
ATOM      4  C   UNL     1       2.241   7.389  19.129  0.00  0.00    +0.000 A 
ATOM      5  N   UNL     1       2.832   6.173  19.061  0.00  0.00    +0.000 N 
ATOM      6  N   UNL     1       1.514   7.821  20.134  0.00  0.00    +0.000 NA
ATOM      7  H   UNL     1       3.421   5.980  18.263  0.00  0.00    +0.000 HD
ENDROOT
BRANCH   5   8
ATOM      8  C   UNL     1       2.294   5.011  19.655  0.00  0.00    +0.000 A 
ATOM      9  C   UNL     1       2.635   4.719  20.983  0.00  0.00    +0.000 A 
ATOM     10  C   UNL     1       2.101   3.599  21.629  0.00  0.00    +0.000 A 
ATOM     11  C   UNL     1       1.230   2.745  20.952  0.00  0.00    +0.000 A 
ATOM     12  C   UNL     1       0.900   3.006  19.625  0.00  0.00    +0.000 A 
ATOM     13  C   UNL     1       1.429   4.126  18.988  0.00  0.00    +0.000 A 
ATOM     14  F   UNL     1       1.134   4.299  17.690  0.00  0.00    +0.000 F 
ENDBRANCH   5   8
BRANCH   1  19
ATOM     15  C   UNL     1      -1.166  11.637  21.576  0.00  0.00    +0.000 A 
ATOM     16  C   UNL     1      -1.225  11.123  22.877  0.00  0.00    +0.000 A 
ATOM     17  C   UNL     1      -0.542   9.952  23.194  0.00  0.00    +0.000 A 
ATOM     18  C   UNL     1       0.196   9.292  22.211  0.00  0.00    +0.000 A 
ATOM     19  C   UNL     1       0.250   9.790  20.898  0.00  0.00    +0.000 A 
ATOM     20  C   UNL     1      -0.444  10.963  20.584  0.00  0.00    +0.000 A 
BRANCH  15  22
ATOM     21  N   UNL     1      -2.440  12.948  19.985  0.00  0.00    +0.000 N 
ATOM     22  C   UNL     1      -1.859  12.900  21.223  0.00  0.00    +0.000 C 
ATOM     23  O   UNL     1      -1.940  13.833  22.008  0.00  0.00    +0.000 OA
ATOM     24  H   UNL     1      -2.996  13.769  19.779  0.00  0.00    +0.000 HD
ATOM     25  H   UNL     1      -2.602  12.119  19.429  0.00  0.00    +0.000 HD
ENDBRANCH  15  22
ENDBRANCH   1  19
TORSDOF 3
ENDMDL
MODEL 6
REMARK VINA RESULT:      -7.6      6.158      8.821
REMARK  Name = 
REMARK  3 active torsions:
REMARK  status: ('A' for Active; 'I' for Inactive)
REMARK    1  A    between atoms: C_2  and  C_4
REMARK    2  A    between atoms: C_8  and  C_9
REMARK    3  A    between atoms: N_13  and  C_14
REMARK                            x       y       z     vdW  Elec       q    Type
REMARK                         _______ _______ _______ _____ _____    ______ ____
ROOT
ATOM      1  C   UNL     1       1.757   8.720  18.832  0.00  0.00    +0.000 A 
ATOM      2  C   UNL     1       2.495   8.987  17.699  0.00  0.00    +0.000 A 
ATOM      3  S   UNL     1       3.534   7.666  17.358  0.00  0.00    +0.000 S 
ATOM      4  C   UNL     1       2.903   6.823  18.721  0.00  0.00    +0.000 A 
ATOM      5  N   UNL     1       3.367   5.591  19.039  0.00  0.00    +0.000 N 
ATOM      6  N   UNL     1       2.000   7.489  19.405  0.00  0.00    +0.000 NA
ATOM      7  H   UNL     1       4.111   5.207  18.471  0.00  0.00    +0.000 HD
ENDROOT
BRANCH   5   8
ATOM      8  C   UNL     1       2.587   4.606  19.681  0.00  0.00    +0.000 A 
ATOM      9  C   UNL     1       2.863   4.303  21.022  0.00  0.00    +0.000 A 
ATOM     10  C   UNL     1       2.097   3.360  21.715  0.00  0.00    +0.000 A 
ATOM     11  C   UNL     1       1.053   2.694  21.074  0.00  0.00    +0.000 A 
ATOM     12  C   UNL     1       0.780   2.964  19.736  0.00  0.00    +0.000 A 
ATOM     13  C   UNL     1       1.542   3.909  19.052  0.00  0.00    +0.000 A 
ATOM     14  F   UNL     1       1.284   4.086  17.747  0.00  0.00    +0.000 F 
ENDBRANCH   5   8
BRANCH   1  19
ATOM     15  C   UNL     1      -0.406  10.499  21.351  0.00  0.00    +0.000 A 
ATOM     16  C   UNL     1      -1.155  11.336  20.515  0.00  0.00    +0.000 A 
ATOM     17  C   UNL     1      -0.940  11.318  19.140  0.00  0.00    +0.000 A 
ATOM     18  C   UNL     1       0.025  10.468  18.600  0.00  0.00    +0.000 A 
ATOM     19  C   UNL     1       0.794   9.634  19.430  0.00  0.00    +0.000 A 
ATOM     20  C   UNL     1       0.578   9.662  20.812  0.00  0.00    +0.000 A 
BRANCH  15  22
ATOM     21  N   UNL     1      -0.277   9.332  23.472  0.00  0.00    +0.000 N 
ATOM     22  C   UNL     1      -0.638  10.477  22.816  0.00  0.00    +0.000 C 
ATOM     23  O   UNL     1      -1.093  11.443  23.410  0.00  0.00    +0.000 OA
ATOM     24  H   UNL     1      -0.344   9.352  24.483  0.00  0.00    +0.000 HD
ATOM     25  H   UNL     1       0.321   8.633  23.053  0.00  0.00    +0.000 HD
ENDBRANCH  15  22
ENDBRANCH   1  19
TORSDOF 3
ENDMDL
MODEL 7
REMARK VINA RESULT:      -7.5      5.471      9.038
REMARK  Name = 
REMARK  3 active torsions:
REMARK  status: ('A' for Active; 'I' for Inactive)
REMARK    1  A    between atoms: C_2  and  C_4
REMARK    2  A    between atoms: C_8  and  C_9
REMARK    3  A    between atoms: N_13  and  C_14
REMARK                            x       y       z     vdW  Elec       q    Type
REMARK                         _______ _______ _______ _____ _____    ______ ____
ROOT
ATOM      1  C   UNL     1       1.928   6.784  20.158  0.00  0.00    +0.000 A 
ATOM      2  C   UNL     1       1.429   5.612  20.686  0.00  0.00    +0.000 A 
ATOM      3  S   UNL     1       2.385   4.287  20.169  0.00  0.00    +0.000 S 
ATOM      4  C   UNL     1       3.414   5.370  19.309  0.00  0.00    +0.000 A 
ATOM      5  N   UNL     1       4.469   4.897  18.604  0.00  0.00    +0.000 N 
ATOM      6  N   UNL     1       3.054   6.631  19.375  0.00  0.00    +0.000 NA
ATOM      7  H   UNL     1       4.607   3.895  18.578  0.00  0.00    +0.000 HD
ENDROOT
BRANCH   5   8
ATOM      8  C   UNL     1       5.654   5.632  18.389  0.00  0.00    +0.000 A 
ATOM      9  C   UNL     1       6.728   5.443  19.271  0.00  0.00    +0.000 A 
ATOM     10  C   UNL     1       7.937   6.121  19.082  0.00  0.00    +0.000 A 
ATOM     11  C   UNL     1       8.086   7.009  18.017  0.00  0.00    +0.000 A 
ATOM     12  C   UNL     1       7.022   7.228  17.147  0.00  0.00    +0.000 A 
ATOM     13  C   UNL     1       5.823   6.546  17.335  0.00  0.00    +0.000 A 
ATOM     14  F   UNL     1       4.806   6.839  16.509  0.00  0.00    +0.000 F 
ENDBRANCH   5   8
BRANCH   1  19
ATOM     15  C   UNL     1       0.241   9.742  21.767  0.00  0.00    +0.000 A 
ATOM     16  C   UNL     1       0.137  10.615  20.676  0.00  0.00    +0.000 A 
ATOM     17  C   UNL     1       0.627  10.233  19.431  0.00  0.00    +0.000 A 
ATOM     18  C   UNL     1       1.224   8.982  19.274  0.00  0.00    +0.000 A 
ATOM     19  C   UNL     1       1.347   8.103  20.364  0.00  0.00    +0.000 A 
ATOM     20  C   UNL     1       0.860   8.496  21.615  0.00  0.00    +0.000 A 
BRANCH  15  22
ATOM     21  N   UNL     1      -1.398  10.933  23.097  0.00  0.00    +0.000 N 
ATOM     22  C   UNL     1      -0.302  10.114  23.096  0.00  0.00    +0.000 C 
ATOM     23  O   UNL     1       0.181   9.684  24.133  0.00  0.00    +0.000 OA
ATOM     24  H   UNL     1      -1.828  11.109  23.997  0.00  0.00    +0.000 HD
ATOM     25  H   UNL     1      -1.956  11.093  22.269  0.00  0.00    +0.000 HD
ENDBRANCH  15  22
ENDBRANCH   1  19
TORSDOF 3
ENDMDL
MODEL 8
REMARK VINA RESULT:      -7.4      5.998      8.560
REMARK  Name = 
REMARK  3 active torsions:
REMARK  status: ('A' for Active; 'I' for Inactive)
REMARK    1  A    between atoms: C_2  and  C_4
REMARK    2  A    between atoms: C_8  and  C_9
REMARK    3  A    between atoms: N_13  and  C_14
REMARK                            x       y       z     vdW  Elec       q    Type
REMARK                         _______ _______ _______ _____ _____    ______ ____
ROOT
ATOM      1  C   UNL     1       1.703   8.710  18.923  0.00  0.00    +0.000 A 
ATOM      2  C   UNL     1       2.433   9.007  17.791  0.00  0.00    +0.000 A 
ATOM      3  S   UNL     1       3.487   7.707  17.420  0.00  0.00    +0.000 S 
ATOM      4  C   UNL     1       2.873   6.830  18.771  0.00  0.00    +0.000 A 
ATOM      5  N   UNL     1       3.355   5.599  19.063  0.00  0.00    +0.000 N 
ATOM      6  N   UNL     1       1.966   7.472  19.471  0.00  0.00    +0.000 NA
ATOM      7  H   UNL     1       4.101   5.235  18.485  0.00  0.00    +0.000 HD
ENDROOT
BRANCH   5   8
ATOM      8  C   UNL     1       2.591   4.592  19.691  0.00  0.00    +0.000 A 
ATOM      9  C   UNL     1       2.866   4.281  21.030  0.00  0.00    +0.000 A 
ATOM     10  C   UNL     1       2.114   3.315  21.709  0.00  0.00    +0.000 A 
ATOM     11  C   UNL     1       1.088   2.636  21.055  0.00  0.00    +0.000 A 
ATOM     12  C   UNL     1       0.817   2.914  19.718  0.00  0.00    +0.000 A 
ATOM     13  C   UNL     1       1.564   3.881  19.048  0.00  0.00    +0.000 A 
ATOM     14  F   UNL     1       1.309   4.067  17.744  0.00  0.00    +0.000 F 
ENDBRANCH   5   8
BRANCH   1  19
ATOM     15  C   UNL     1      -1.129  11.147  19.396  0.00  0.00    +0.000 A 
ATOM     16  C   UNL     1      -1.046  11.389  20.773  0.00  0.00    +0.000 A 
ATOM     17  C   UNL     1      -0.072  10.748  21.533  0.00  0.00    +0.000 A 
ATOM     18  C   UNL     1       0.815   9.862  20.921  0.00  0.00    +0.000 A 
ATOM     19  C   UNL     1       0.731   9.600  19.542  0.00  0.00    +0.000 A 
ATOM     20  C   UNL     1      -0.254  10.242  18.785  0.00  0.00    +0.000 A 
BRANCH  15  22
ATOM     21  N   UNL     1      -1.719  12.265  17.327  0.00  0.00    +0.000 N 
ATOM     22  C   UNL     1      -2.138  11.842  18.559  0.00  0.00    +0.000 C 
ATOM     23  O   UNL     1      -3.291  11.996  18.935  0.00  0.00    +0.000 OA
ATOM     24  H   UNL     1      -2.429  12.652  16.718  0.00  0.00    +0.000 HD
ATOM     25  H   UNL     1      -0.863  11.934  16.903  0.00  0.00    +0.000 HD
ENDBRANCH  15  22
ENDBRANCH   1  19
TORSDOF 3
ENDMDL
MODEL 9
REMARK VINA RESULT:      -7.4      4.951      8.357
REMARK  Name = 
REMARK  3 active torsions:
REMARK  status: ('A' for Active; 'I' for Inactive)
REMARK    1  A    between atoms: C_2  and  C_4
REMARK    2  A    between atoms: C_8  and  C_9
REMARK    3  A    between atoms: N_13  and  C_14
REMARK                            x       y       z     vdW  Elec       q    Type
REMARK                         _______ _______ _______ _____ _____    ______ ____
ROOT
ATOM      1  C   UNL     1       2.181   6.210  20.043  0.00  0.00    +0.000 A 
ATOM      2  C   UNL     1       1.793   5.296  20.999  0.00  0.00    +0.000 A 
ATOM      3  S   UNL     1       2.492   3.768  20.661  0.00  0.00    +0.000 S 
ATOM      4  C   UNL     1       3.288   4.440  19.288  0.00  0.00    +0.000 A 
ATOM      5  N   UNL     1       4.072   3.664  18.503  0.00  0.00    +0.000 N 
ATOM      6  N   UNL     1       3.028   5.710  19.075  0.00  0.00    +0.000 NA
ATOM      7  H   UNL     1       4.144   2.682  18.735  0.00  0.00    +0.000 HD
ENDROOT
BRANCH   5   8
ATOM      8  C   UNL     1       5.184   4.154  17.786  0.00  0.00    +0.000 A 
ATOM      9  C   UNL     1       6.305   4.590  18.505  0.00  0.00    +0.000 A 
ATOM     10  C   UNL     1       7.447   5.052  17.841  0.00  0.00    +0.000 A 
ATOM     11  C   UNL     1       7.478   5.100  16.447  0.00  0.00    +0.000 A 
ATOM     12  C   UNL     1       6.364   4.695  15.717  0.00  0.00    +0.000 A 
ATOM     13  C   UNL     1       5.233   4.229  16.383  0.00  0.00    +0.000 A 
ATOM     14  F   UNL     1       4.162   3.912  15.639  0.00  0.00    +0.000 F 
ENDBRANCH   5   8
BRANCH   1  19
ATOM     15  C   UNL     1       0.690   9.530  21.014  0.00  0.00    +0.000 A 
ATOM     16  C   UNL     1       0.846  10.250  19.823  0.00  0.00    +0.000 A 
ATOM     17  C   UNL     1       1.444   9.648  18.720  0.00  0.00    +0.000 A 
ATOM     18  C   UNL     1       1.890   8.329  18.805  0.00  0.00    +0.000 A 
ATOM     19  C   UNL     1       1.753   7.601  20.000  0.00  0.00    +0.000 A 
ATOM     20  C   UNL     1       1.158   8.214  21.107  0.00  0.00    +0.000 A 
BRANCH  15  22
ATOM     21  N   UNL     1      -0.492   9.271  23.114  0.00  0.00    +0.000 N 
ATOM     22  C   UNL     1       0.027  10.139  22.193  0.00  0.00    +0.000 C 
ATOM     23  O   UNL     1      -0.020  11.350  22.351  0.00  0.00    +0.000 OA
ATOM     24  H   UNL     1      -0.856   9.681  23.965  0.00  0.00    +0.000 HD
ATOM     25  H   UNL     1      -0.248   8.289  23.131  0.00  0.00    +0.000 HD
ENDBRANCH  15  22
ENDBRANCH   1  19
TORSDOF 3
ENDMDL
