MODEL 1
REMARK VINA RESULT:      -8.6      0.000      0.000
REMARK  Name = 
REMARK  7 active torsions:
REMARK  status: ('A' for Active; 'I' for Inactive)
REMARK    1  A    between atoms: C_1  and  C_2
REMARK    2  A    between atoms: C_2  and  C_3
REMARK    3  A    between atoms: N_6  and  C_7
REMARK    4  A    between atoms: N_6  and  C_8
REMARK    5  A    between atoms: C_8  and  C_9
REMARK    6  A    between atoms: C_21  and  C_22
REMARK    7  A    between atoms: C_23  and  N_24
REMARK                            x       y       z     vdW  Elec       q    Type
REMARK                         _______ _______ _______ _____ _____    ______ ____
ROOT
ATOM      1  C   UNL     1       2.614   4.656  19.616  0.00  0.00    +0.000 A 
ATOM      2  N   UNL     1       2.130   5.912  19.697  0.00  0.00    +0.000 NA
ATOM      3  C   UNL     1       2.652   6.881  18.924  0.00  0.00    +0.000 A 
ATOM      4  N   UNL     1       2.209   8.176  19.093  0.00  0.00    +0.000 N 
ATOM      5  C   UNL     1       1.478   8.496  20.308  0.00  0.00    +0.000 C 
ATOM      6  N   UNL     1       3.639   6.629  18.050  0.00  0.00    +0.000 NA
ATOM      7  C   UNL     1       4.145   5.368  17.969  0.00  0.00    +0.000 A 
ATOM      8  N   UNL     1       5.235   5.177  17.062  0.00  0.00    +0.000 N 
ATOM      9  C   UNL     1       5.516   4.052  16.312  0.00  0.00    +0.000 A 
ATOM     10  C   UNL     1       6.676   4.322  15.631  0.00  0.00    +0.000 A 
ATOM     11  N   UNL     1       7.101   5.588  15.890  0.00  0.00    +0.000 NA
ATOM     12  C   UNL     1       6.226   6.100  16.739  0.00  0.00    +0.000 A 
ATOM     13  C   UNL     1       6.359   7.443  17.357  0.00  0.00    +0.000 C 
ATOM     14  C   UNL     1       3.638   4.343  18.744  0.00  0.00    +0.000 A 
ENDROOT
BRANCH  14  15
ATOM     15  N   UNL     1       4.256   3.053  18.821  0.00  0.00    +0.000 N 
ATOM     16  O   UNL     1       3.771   2.157  18.120  0.00  0.00    +0.000 OA
ATOM     17  O   UNL     1       5.219   2.932  19.586  0.00  0.00    +0.000 OA
ENDBRANCH  14  15
BRANCH   1  19
ATOM     18  C   UNL     1       0.819   2.971  20.051  0.00  0.00    +0.000 C 
ATOM     19  C   UNL     1       2.024   3.703  20.625  0.00  0.00    +0.000 C 
ENDBRANCH   1  19
BRANCH   4  20
ATOM     20  C   UNL     1       1.847   8.899  17.877  0.00  0.00    +0.000 C 
BRANCH  20  21
ATOM     21  C   UNL     1       0.873  10.018  18.161  0.00  0.00    +0.000 A 
ATOM     22  C   UNL     1      -0.498   9.845  17.921  0.00  0.00    +0.000 A 
ATOM     23  C   UNL     1      -1.391  10.898  18.124  0.00  0.00    +0.000 A 
ATOM     24  C   UNL     1      -0.927  12.129  18.584  0.00  0.00    +0.000 A 
ATOM     25  C   UNL     1       0.425  12.299  18.872  0.00  0.00    +0.000 A 
ATOM     26  C   UNL     1       1.319  11.248  18.669  0.00  0.00    +0.000 A 
ENDBRANCH  20  21
ENDBRANCH   4  20
TORSDOF 4
ENDMDL
MODEL 2
REMARK VINA RESULT:      -7.0      1.523      4.010
REMARK  Name = 
REMARK  7 active torsions:
REMARK  status: ('A' for Active; 'I' for Inactive)
REMARK    1  A    between atoms: C_1  and  C_2
REMARK    2  A    between atoms: C_2  and  C_3
REMARK    3  A    between atoms: N_6  and  C_7
REMARK    4  A    between atoms: N_6  and  C_8
REMARK    5  A    between atoms: C_8  and  C_9
REMARK    6  A    between atoms: C_21  and  C_22
REMARK    7  A    between atoms: C_23  and  N_24
REMARK                            x       y       z     vdW  Elec       q    Type
REMARK                         _______ _______ _______ _____ _____    ______ ____
ROOT
ATOM      1  C   UNL     1       4.502   6.507  17.693  0.00  0.00    +0.000 A 
ATOM      2  N   UNL     1       3.640   7.529  17.873  0.00  0.00    +0.000 NA
ATOM      3  C   UNL     1       2.631   7.404  18.752  0.00  0.00    +0.000 A 
ATOM      4  N   UNL     1       1.704   8.421  18.849  0.00  0.00    +0.000 N 
ATOM      5  C   UNL     1       1.651   9.402  17.778  0.00  0.00    +0.000 C 
ATOM      6  N   UNL     1       2.463   6.287  19.479  0.00  0.00    +0.000 NA
ATOM      7  C   UNL     1       3.319   5.245  19.296  0.00  0.00    +0.000 A 
ATOM      8  N   UNL     1       3.054   4.062  20.056  0.00  0.00    +0.000 N 
ATOM      9  C   UNL     1       3.974   3.172  20.573  0.00  0.00    +0.000 A 
ATOM     10  C   UNL     1       3.249   2.180  21.185  0.00  0.00    +0.000 A 
ATOM     11  N   UNL     1       1.917   2.445  21.112  0.00  0.00    +0.000 NA
ATOM     12  C   UNL     1       1.806   3.581  20.445  0.00  0.00    +0.000 A 
ATOM     13  C   UNL     1       0.510   4.193  20.059  0.00  0.00    +0.000 C 
ATOM     14  C   UNL     1       4.370   5.331  18.403  0.00  0.00    +0.000 A 
ENDROOT
BRANCH  14  15
ATOM     15  N   UNL     1       5.179   4.203  18.050  0.00  0.00    +0.000 N 
ATOM     16  O   UNL     1       6.280   4.107  18.606  0.00  0.00    +0.000 OA
ATOM     17  O   UNL     1       4.721   3.418  17.213  0.00  0.00    +0.000 OA
ENDBRANCH  14  15
BRANCH   1  19
ATOM     18  C   UNL     1       6.827   7.249  17.146  0.00  0.00    +0.000 C 
ATOM     19  C   UNL     1       5.506   6.737  16.590  0.00  0.00    +0.000 C 
ENDBRANCH   1  19
BRANCH   4  20
ATOM     20  C   UNL     1       1.387   8.879  20.199  0.00  0.00    +0.000 C 
BRANCH  20  21
ATOM     21  C   UNL     1       0.555  10.140  20.181  0.00  0.00    +0.000 A 
ATOM     22  C   UNL     1      -0.737  10.130  19.637  0.00  0.00    +0.000 A 
ATOM     23  C   UNL     1      -1.483  11.308  19.562  0.00  0.00    +0.000 A 
ATOM     24  C   UNL     1      -0.953  12.502  20.044  0.00  0.00    +0.000 A 
ATOM     25  C   UNL     1       0.311  12.516  20.630  0.00  0.00    +0.000 A 
ATOM     26  C   UNL     1       1.058  11.341  20.705  0.00  0.00    +0.000 A 
ENDBRANCH  20  21
ENDBRANCH   4  20
TORSDOF 4
ENDMDL
MODEL 3
REMARK VINA RESULT:      -7.0      1.516      4.073
REMARK  Name = 
REMARK  7 active torsions:
REMARK  status: ('A' for Active; 'I' for Inactive)
REMARK    1  A    between atoms: C_1  and  C_2
REMARK    2  A    between atoms: C_2  and  C_3
REMARK    3  A    between atoms: N_6  and  C_7
REMARK    4  A    between atoms: N_6  and  C_8
REMARK    5  A    between atoms: C_8  and  C_9
REMARK    6  A    between atoms: C_21  and  C_22
REMARK    7  A    between atoms: C_23  and  N_24
REMARK                            x       y       z     vdW  Elec       q    Type
REMARK                         _______ _______ _______ _____ _____    ______ ____
ROOT
ATOM      1  C   UNL     1       4.514   6.484  17.681  0.00  0.00    +0.000 A 
ATOM      2  N   UNL     1       3.652   7.507  17.850  0.00  0.00    +0.000 NA
ATOM      3  C   UNL     1       2.637   7.389  18.724  0.00  0.00    +0.000 A 
ATOM      4  N   UNL     1       1.711   8.408  18.809  0.00  0.00    +0.000 N 
ATOM      5  C   UNL     1       1.665   9.382  17.731  0.00  0.00    +0.000 C 
ATOM      6  N   UNL     1       2.464   6.277  19.456  0.00  0.00    +0.000 NA
ATOM      7  C   UNL     1       3.320   5.232  19.285  0.00  0.00    +0.000 A 
ATOM      8  N   UNL     1       3.048   4.055  20.051  0.00  0.00    +0.000 N 
ATOM      9  C   UNL     1       3.965   3.166  20.578  0.00  0.00    +0.000 A 
ATOM     10  C   UNL     1       3.235   2.179  21.192  0.00  0.00    +0.000 A 
ATOM     11  N   UNL     1       1.903   2.445  21.109  0.00  0.00    +0.000 NA
ATOM     12  C   UNL     1       1.798   3.577  20.434  0.00  0.00    +0.000 A 
ATOM     13  C   UNL     1       0.505   4.188  20.037  0.00  0.00    +0.000 C 
ATOM     14  C   UNL     1       4.376   5.312  18.398  0.00  0.00    +0.000 A 
ENDROOT
BRANCH  14  15
ATOM     15  N   UNL     1       5.186   4.180  18.057  0.00  0.00    +0.000 N 
ATOM     16  O   UNL     1       4.722   3.387  17.229  0.00  0.00    +0.000 OA
ATOM     17  O   UNL     1       6.280   4.078  18.621  0.00  0.00    +0.000 OA
ENDBRANCH  14  15
BRANCH   1  19
ATOM     18  C   UNL     1       6.838   7.235  17.143  0.00  0.00    +0.000 C 
ATOM     19  C   UNL     1       5.525   6.705  16.583  0.00  0.00    +0.000 C 
ENDBRANCH   1  19
BRANCH   4  20
ATOM     20  C   UNL     1       1.386   8.874  20.154  0.00  0.00    +0.000 C 
BRANCH  20  21
ATOM     21  C   UNL     1       0.549  10.131  20.123  0.00  0.00    +0.000 A 
ATOM     22  C   UNL     1       1.041  11.325  20.670  0.00  0.00    +0.000 A 
ATOM     23  C   UNL     1       0.245  12.472  20.698  0.00  0.00    +0.000 A 
ATOM     24  C   UNL     1      -1.041  12.442  20.165  0.00  0.00    +0.000 A 
ATOM     25  C   UNL     1      -1.524  11.276  19.576  0.00  0.00    +0.000 A 
ATOM     26  C   UNL     1      -0.731  10.129  19.548  0.00  0.00    +0.000 A 
ENDBRANCH  20  21
ENDBRANCH   4  20
TORSDOF 4
ENDMDL
MODEL 4
REMARK VINA RESULT:      -6.9      1.677      3.966
REMARK  Name = 
REMARK  7 active torsions:
REMARK  status: ('A' for Active; 'I' for Inactive)
REMARK    1  A    between atoms: C_1  and  C_2
REMARK    2  A    between atoms: C_2  and  C_3
REMARK    3  A    between atoms: N_6  and  C_7
REMARK    4  A    between atoms: N_6  and  C_8
REMARK    5  A    between atoms: C_8  and  C_9
REMARK    6  A    between atoms: C_21  and  C_22
REMARK    7  A    between atoms: C_23  and  N_24
REMARK                            x       y       z     vdW  Elec       q    Type
REMARK                         _______ _______ _______ _____ _____    ______ ____
ROOT
ATOM      1  C   UNL     1       5.278   6.752  17.510  0.00  0.00    +0.000 A 
ATOM      2  N   UNL     1       4.314   7.662  17.755  0.00  0.00    +0.000 NA
ATOM      3  C   UNL     1       3.161   7.277  18.328  0.00  0.00    +0.000 A 
ATOM      4  N   UNL     1       2.151   8.204  18.480  0.00  0.00    +0.000 N 
ATOM      5  C   UNL     1       2.235   9.437  17.715  0.00  0.00    +0.000 C 
ATOM      6  N   UNL     1       2.943   6.001  18.686  0.00  0.00    +0.000 NA
ATOM      7  C   UNL     1       3.904   5.070  18.430  0.00  0.00    +0.000 A 
ATOM      8  N   UNL     1       3.589   3.719  18.781  0.00  0.00    +0.000 N 
ATOM      9  C   UNL     1       4.457   2.746  19.237  0.00  0.00    +0.000 A 
ATOM     10  C   UNL     1       3.709   1.607  19.397  0.00  0.00    +0.000 A 
ATOM     11  N   UNL     1       2.402   1.846  19.104  0.00  0.00    +0.000 NA
ATOM     12  C   UNL     1       2.334   3.117  18.747  0.00  0.00    +0.000 A 
ATOM     13  C   UNL     1       1.097   3.776  18.259  0.00  0.00    +0.000 C 
ATOM     14  C   UNL     1       5.103   5.424  17.844  0.00  0.00    +0.000 A 
ENDROOT
BRANCH  14  15
ATOM     15  N   UNL     1       6.060   4.455  17.397  0.00  0.00    +0.000 N 
ATOM     16  O   UNL     1       7.040   4.257  18.125  0.00  0.00    +0.000 OA
ATOM     17  O   UNL     1       5.839   3.900  16.316  0.00  0.00    +0.000 OA
ENDBRANCH  14  15
BRANCH   1  19
ATOM     18  C   UNL     1       7.593   7.678  17.698  0.00  0.00    +0.000 C 
ATOM     19  C   UNL     1       6.463   7.298  16.752  0.00  0.00    +0.000 C 
ENDBRANCH   1  19
BRANCH   4  20
ATOM     20  C   UNL     1       1.527   8.270  19.799  0.00  0.00    +0.000 C 
BRANCH  20  21
ATOM     21  C   UNL     1       0.684   9.514  19.958  0.00  0.00    +0.000 A 
ATOM     22  C   UNL     1       0.965  10.436  20.976  0.00  0.00    +0.000 A 
ATOM     23  C   UNL     1       0.149  11.553  21.164  0.00  0.00    +0.000 A 
ATOM     24  C   UNL     1      -0.942  11.770  20.326  0.00  0.00    +0.000 A 
ATOM     25  C   UNL     1      -1.204  10.886  19.281  0.00  0.00    +0.000 A 
ATOM     26  C   UNL     1      -0.390   9.769  19.093  0.00  0.00    +0.000 A 
ENDBRANCH  20  21
ENDBRANCH   4  20
TORSDOF 4
ENDMDL
MODEL 5
REMARK VINA RESULT:      -6.9      7.611     10.220
REMARK  Name = 
REMARK  7 active torsions:
REMARK  status: ('A' for Active; 'I' for Inactive)
REMARK    1  A    between atoms: C_1  and  C_2
REMARK    2  A    between atoms: C_2  and  C_3
REMARK    3  A    between atoms: N_6  and  C_7
REMARK    4  A    between atoms: N_6  and  C_8
REMARK    5  A    between atoms: C_8  and  C_9
REMARK    6  A    between atoms: C_21  and  C_22
REMARK    7  A    between atoms: C_23  and  N_24
REMARK                            x       y       z     vdW  Elec       q    Type
REMARK                         _______ _______ _______ _____ _____    ______ ____
ROOT
ATOM      1  C   UNL     1      -2.800  11.485  18.028  0.00  0.00    +0.000 A 
ATOM      2  N   UNL     1      -4.141  11.494  18.162  0.00  0.00    +0.000 NA
ATOM      3  C   UNL     1      -4.700  12.034  19.259  0.00  0.00    +0.000 A 
ATOM      4  N   UNL     1      -6.067  11.945  19.421  0.00  0.00    +0.000 N 
ATOM      5  C   UNL     1      -6.792  10.987  18.603  0.00  0.00    +0.000 C 
ATOM      6  N   UNL     1      -3.955  12.588  20.229  0.00  0.00    +0.000 NA
ATOM      7  C   UNL     1      -2.599  12.573  20.112  0.00  0.00    +0.000 A 
ATOM      8  N   UNL     1      -1.860  13.126  21.204  0.00  0.00    +0.000 N 
ATOM      9  C   UNL     1      -0.661  13.809  21.147  0.00  0.00    +0.000 A 
ATOM     10  C   UNL     1      -0.323  14.105  22.444  0.00  0.00    +0.000 A 
ATOM     11  N   UNL     1      -1.288  13.675  23.300  0.00  0.00    +0.000 NA
ATOM     12  C   UNL     1      -2.212  13.100  22.551  0.00  0.00    +0.000 A 
ATOM     13  C   UNL     1      -3.410  12.410  23.095  0.00  0.00    +0.000 C 
ATOM     14  C   UNL     1      -1.984  12.029  19.000  0.00  0.00    +0.000 A 
ENDROOT
BRANCH  14  15
ATOM     15  N   UNL     1      -0.567  11.831  18.920  0.00  0.00    +0.000 N 
ATOM     16  O   UNL     1       0.083  12.682  18.301  0.00  0.00    +0.000 OA
ATOM     17  O   UNL     1      -0.106  10.824  19.466  0.00  0.00    +0.000 OA
ENDBRANCH  14  15
BRANCH   1  19
ATOM     18  C   UNL     1      -3.243  10.937  15.629  0.00  0.00    +0.000 C 
ATOM     19  C   UNL     1      -2.307  10.739  16.813  0.00  0.00    +0.000 C 
ENDBRANCH   1  19
BRANCH   4  20
ATOM     20  C   UNL     1      -6.757  13.180  19.785  0.00  0.00    +0.000 C 
BRANCH  20  21
ATOM     21  C   UNL     1      -6.984  13.276  21.275  0.00  0.00    +0.000 A 
ATOM     22  C   UNL     1      -7.488  12.179  21.988  0.00  0.00    +0.000 A 
ATOM     23  C   UNL     1      -7.757  12.286  23.354  0.00  0.00    +0.000 A 
ATOM     24  C   UNL     1      -7.511  13.482  24.023  0.00  0.00    +0.000 A 
ATOM     25  C   UNL     1      -6.966  14.565  23.336  0.00  0.00    +0.000 A 
ATOM     26  C   UNL     1      -6.697  14.460  21.971  0.00  0.00    +0.000 A 
ENDBRANCH  20  21
ENDBRANCH   4  20
TORSDOF 4
ENDMDL
MODEL 6
REMARK VINA RESULT:      -6.8      7.651     10.349
REMARK  Name = 
REMARK  7 active torsions:
REMARK  status: ('A' for Active; 'I' for Inactive)
REMARK    1  A    between atoms: C_1  and  C_2
REMARK    2  A    between atoms: C_2  and  C_3
REMARK    3  A    between atoms: N_6  and  C_7
REMARK    4  A    between atoms: N_6  and  C_8
REMARK    5  A    between atoms: C_8  and  C_9
REMARK    6  A    between atoms: C_21  and  C_22
REMARK    7  A    between atoms: C_23  and  N_24
REMARK                            x       y       z     vdW  Elec       q    Type
REMARK                         _______ _______ _______ _____ _____    ______ ____
ROOT
ATOM      1  C   UNL     1      -2.787  11.696  18.140  0.00  0.00    +0.000 A 
ATOM      2  N   UNL     1      -4.131  11.662  18.251  0.00  0.00    +0.000 NA
ATOM      3  C   UNL     1      -4.723  12.152  19.354  0.00  0.00    +0.000 A 
ATOM      4  N   UNL     1      -6.089  12.018  19.489  0.00  0.00    +0.000 N 
ATOM      5  C   UNL     1      -6.772  11.066  18.629  0.00  0.00    +0.000 C 
ATOM      6  N   UNL     1      -4.011  12.697  20.353  0.00  0.00    +0.000 NA
ATOM      7  C   UNL     1      -2.653  12.725  20.259  0.00  0.00    +0.000 A 
ATOM      8  N   UNL     1      -1.949  13.265  21.380  0.00  0.00    +0.000 N 
ATOM      9  C   UNL     1      -0.770  13.984  21.365  0.00  0.00    +0.000 A 
ATOM     10  C   UNL     1      -0.463  14.249  22.676  0.00  0.00    +0.000 A 
ATOM     11  N   UNL     1      -1.428  13.765  23.502  0.00  0.00    +0.000 NA
ATOM     12  C   UNL     1      -2.323  13.187  22.719  0.00  0.00    +0.000 A 
ATOM     13  C   UNL     1      -3.508  12.446  23.221  0.00  0.00    +0.000 C 
ATOM     14  C   UNL     1      -2.004  12.233  19.143  0.00  0.00    +0.000 A 
ENDROOT
BRANCH  14  15
ATOM     15  N   UNL     1      -0.581  12.079  19.081  0.00  0.00    +0.000 N 
ATOM     16  O   UNL     1       0.048  12.934  18.446  0.00  0.00    +0.000 OA
ATOM     17  O   UNL     1      -0.093  11.102  19.658  0.00  0.00    +0.000 OA
ENDBRANCH  14  15
BRANCH   1  19
ATOM     18  C   UNL     1      -3.011   9.712  16.635  0.00  0.00    +0.000 C 
ATOM     19  C   UNL     1      -2.253  11.003  16.911  0.00  0.00    +0.000 C 
ENDBRANCH   1  19
BRANCH   4  20
ATOM     20  C   UNL     1      -6.821  13.221  19.878  0.00  0.00    +0.000 C 
BRANCH  20  21
ATOM     21  C   UNL     1      -7.074  13.265  21.366  0.00  0.00    +0.000 A 
ATOM     22  C   UNL     1      -6.826  14.438  22.094  0.00  0.00    +0.000 A 
ATOM     23  C   UNL     1      -6.999  14.462  23.479  0.00  0.00    +0.000 A 
ATOM     24  C   UNL     1      -7.439  13.321  24.148  0.00  0.00    +0.000 A 
ATOM     25  C   UNL     1      -7.735  12.165  23.430  0.00  0.00    +0.000 A 
ATOM     26  C   UNL     1      -7.561  12.139  22.046  0.00  0.00    +0.000 A 
ENDBRANCH  20  21
ENDBRANCH   4  20
TORSDOF 4
ENDMDL
MODEL 7
REMARK VINA RESULT:      -6.7      7.578      9.764
REMARK  Name = 
REMARK  7 active torsions:
REMARK  status: ('A' for Active; 'I' for Inactive)
REMARK    1  A    between atoms: C_1  and  C_2
REMARK    2  A    between atoms: C_2  and  C_3
REMARK    3  A    between atoms: N_6  and  C_7
REMARK    4  A    between atoms: N_6  and  C_8
REMARK    5  A    between atoms: C_8  and  C_9
REMARK    6  A    between atoms: C_21  and  C_22
REMARK    7  A    between atoms: C_23  and  N_24
REMARK                            x       y       z     vdW  Elec       q    Type
REMARK                         _______ _______ _______ _____ _____    ______ ____
ROOT
ATOM      1  C   UNL     1      -5.798  12.337  20.490  0.00  0.00    +0.000 A 
ATOM      2  N   UNL     1      -4.840  12.856  21.285  0.00  0.00    +0.000 NA
ATOM      3  C   UNL     1      -3.564  12.885  20.862  0.00  0.00    +0.000 A 
ATOM      4  N   UNL     1      -2.587  13.330  21.728  0.00  0.00    +0.000 N 
ATOM      5  C   UNL     1      -2.911  13.411  23.142  0.00  0.00    +0.000 C 
ATOM      6  N   UNL     1      -3.212  12.425  19.651  0.00  0.00    +0.000 NA
ATOM      7  C   UNL     1      -4.168  11.886  18.845  0.00  0.00    +0.000 A 
ATOM      8  N   UNL     1      -3.722  11.359  17.592  0.00  0.00    +0.000 N 
ATOM      9  C   UNL     1      -4.405  11.355  16.392  0.00  0.00    +0.000 A 
ATOM     10  C   UNL     1      -3.596  10.709  15.491  0.00  0.00    +0.000 A 
ATOM     11  N   UNL     1      -2.418  10.354  16.071  0.00  0.00    +0.000 NA
ATOM     12  C   UNL     1      -2.494  10.758  17.328  0.00  0.00    +0.000 A 
ATOM     13  C   UNL     1      -1.450  10.491  18.349  0.00  0.00    +0.000 C 
ATOM     14  C   UNL     1      -5.491  11.837  19.241  0.00  0.00    +0.000 A 
ENDROOT
BRANCH  14  15
ATOM     15  N   UNL     1      -6.491  11.121  18.506  0.00  0.00    +0.000 N 
ATOM     16  O   UNL     1      -7.196  11.779  17.731  0.00  0.00    +0.000 OA
ATOM     17  O   UNL     1      -6.580   9.905  18.708  0.00  0.00    +0.000 OA
ENDBRANCH  14  15
BRANCH   1  19
ATOM     18  C   UNL     1      -7.089  12.639  22.610  0.00  0.00    +0.000 C 
ATOM     19  C   UNL     1      -7.157  12.254  21.139  0.00  0.00    +0.000 C 
ENDBRANCH   1  19
BRANCH   4  20
ATOM     20  C   UNL     1      -1.649  14.314  21.194  0.00  0.00    +0.000 C 
BRANCH  20  21
ATOM     21  C   UNL     1      -0.488  13.655  20.487  0.00  0.00    +0.000 A 
ATOM     22  C   UNL     1       0.206  12.599  21.094  0.00  0.00    +0.000 A 
ATOM     23  C   UNL     1       1.317  12.030  20.470  0.00  0.00    +0.000 A 
ATOM     24  C   UNL     1       1.735  12.498  19.226  0.00  0.00    +0.000 A 
ATOM     25  C   UNL     1       1.026  13.514  18.590  0.00  0.00    +0.000 A 
ATOM     26  C   UNL     1      -0.085  14.084  19.213  0.00  0.00    +0.000 A 
ENDBRANCH  20  21
ENDBRANCH   4  20
TORSDOF 4
ENDMDL
MODEL 8
REMARK VINA RESULT:      -6.7      7.465     10.847
REMARK  Name = 
REMARK  7 active torsions:
REMARK  status: ('A' for Active; 'I' for Inactive)
REMARK    1  A    between atoms: C_1  and  C_2
REMARK    2  A    between atoms: C_2  and  C_3
REMARK    3  A    between atoms: N_6  and  C_7
REMARK    4  A    between atoms: N_6  and  C_8
REMARK    5  A    between atoms: C_8  and  C_9
REMARK    6  A    between atoms: C_21  and  C_22
REMARK    7  A    between atoms: C_23  and  N_24
REMARK                            x       y       z     vdW  Elec       q    Type
REMARK                         _______ _______ _______ _____ _____    ______ ____
ROOT
ATOM      1  C   UNL     1      -3.900  11.262  18.094  0.00  0.00    +0.000 A 
ATOM      2  N   UNL     1      -2.695  11.792  18.387  0.00  0.00    +0.000 NA
ATOM      3  C   UNL     1      -2.564  12.610  19.445  0.00  0.00    +0.000 A 
ATOM      4  N   UNL     1      -1.347  13.219  19.668  0.00  0.00    +0.000 N 
ATOM      5  C   UNL     1      -0.381  13.235  18.582  0.00  0.00    +0.000 C 
ATOM      6  N   UNL     1      -3.605  12.905  20.242  0.00  0.00    +0.000 NA
ATOM      7  C   UNL     1      -4.829  12.386  19.948  0.00  0.00    +0.000 A 
ATOM      8  N   UNL     1      -5.908  12.783  20.799  0.00  0.00    +0.000 N 
ATOM      9  C   UNL     1      -7.004  12.030  21.173  0.00  0.00    +0.000 A 
ATOM     10  C   UNL     1      -7.782  12.845  21.956  0.00  0.00    +0.000 A 
ATOM     11  N   UNL     1      -7.190  14.058  22.123  0.00  0.00    +0.000 NA
ATOM     12  C   UNL     1      -6.061  14.011  21.438  0.00  0.00    +0.000 A 
ATOM     13  C   UNL     1      -5.142  15.165  21.275  0.00  0.00    +0.000 C 
ATOM     14  C   UNL     1      -5.007  11.541  18.870  0.00  0.00    +0.000 A 
ENDROOT
BRANCH  14  15
ATOM     15  N   UNL     1      -6.302  11.120  18.424  0.00  0.00    +0.000 N 
ATOM     16  O   UNL     1      -6.939  11.916  17.724  0.00  0.00    +0.000 OA
ATOM     17  O   UNL     1      -6.687  10.001  18.779  0.00  0.00    +0.000 OA
ENDBRANCH  14  15
BRANCH   1  19
ATOM     18  C   UNL     1      -2.675  10.714  15.984  0.00  0.00    +0.000 C 
ATOM     19  C   UNL     1      -3.928  10.466  16.813  0.00  0.00    +0.000 C 
ENDBRANCH   1  19
BRANCH   4  20
ATOM     20  C   UNL     1      -0.827  13.145  21.032  0.00  0.00    +0.000 C 
BRANCH  20  21
ATOM     21  C   UNL     1      -0.573  11.718  21.456  0.00  0.00    +0.000 A 
ATOM     22  C   UNL     1      -1.047  11.249  22.689  0.00  0.00    +0.000 A 
ATOM     23  C   UNL     1      -0.759   9.949  23.111  0.00  0.00    +0.000 A 
ATOM     24  C   UNL     1      -0.010   9.101  22.298  0.00  0.00    +0.000 A 
ATOM     25  C   UNL     1       0.426   9.539  21.050  0.00  0.00    +0.000 A 
ATOM     26  C   UNL     1       0.140  10.838  20.628  0.00  0.00    +0.000 A 
ENDBRANCH  20  21
ENDBRANCH   4  20
TORSDOF 4
ENDMDL
MODEL 9
REMARK VINA RESULT:      -6.7      7.327     10.639
REMARK  Name = 
REMARK  7 active torsions:
REMARK  status: ('A' for Active; 'I' for Inactive)
REMARK    1  A    between atoms: C_1  and  C_2
REMARK    2  A    between atoms: C_2  and  C_3
REMARK    3  A    between atoms: N_6  and  C_7
REMARK    4  A    between atoms: N_6  and  C_8
REMARK    5  A    between atoms: C_8  and  C_9
REMARK    6  A    between atoms: C_21  and  C_22
REMARK    7  A    between atoms: C_23  and  N_24
REMARK                            x       y       z     vdW  Elec       q    Type
REMARK                         _______ _______ _______ _____ _____    ______ ____
ROOT
ATOM      1  C   UNL     1      -3.440  11.150  18.134  0.00  0.00    +0.000 A 
ATOM      2  N   UNL     1      -2.230  11.663  18.434  0.00  0.00    +0.000 NA
ATOM      3  C   UNL     1      -2.114  12.575  19.415  0.00  0.00    +0.000 A 
ATOM      4  N   UNL     1      -0.885  13.158  19.639  0.00  0.00    +0.000 N 
ATOM      5  C   UNL     1       0.130  13.035  18.605  0.00  0.00    +0.000 C 
ATOM      6  N   UNL     1      -3.177  12.982  20.127  0.00  0.00    +0.000 NA
ATOM      7  C   UNL     1      -4.407  12.481  19.825  0.00  0.00    +0.000 A 
ATOM      8  N   UNL     1      -5.507  12.997  20.580  0.00  0.00    +0.000 N 
ATOM      9  C   UNL     1      -6.648  12.323  20.969  0.00  0.00    +0.000 A 
ATOM     10  C   UNL     1      -7.428  13.237  21.632  0.00  0.00    +0.000 A 
ATOM     11  N   UNL     1      -6.796  14.439  21.712  0.00  0.00    +0.000 NA
ATOM     12  C   UNL     1      -5.639  14.285  21.090  0.00  0.00    +0.000 A 
ATOM     13  C   UNL     1      -4.668  15.385  20.865  0.00  0.00    +0.000 C 
ATOM     14  C   UNL     1      -4.570  11.542  18.824  0.00  0.00    +0.000 A 
ENDROOT
BRANCH  14  15
ATOM     15  N   UNL     1      -5.859  11.127  18.356  0.00  0.00    +0.000 N 
ATOM     16  O   UNL     1      -6.430  11.874  17.553  0.00  0.00    +0.000 OA
ATOM     17  O   UNL     1      -6.304  10.062  18.797  0.00  0.00    +0.000 OA
ENDBRANCH  14  15
BRANCH   1  19
ATOM     18  C   UNL     1      -2.930  10.955  15.694  0.00  0.00    +0.000 C 
ATOM     19  C   UNL     1      -3.441  10.236  16.934  0.00  0.00    +0.000 C 
ENDBRANCH   1  19
BRANCH   4  20
ATOM     20  C   UNL     1      -0.432  13.198  21.027  0.00  0.00    +0.000 C 
BRANCH  20  21
ATOM     21  C   UNL     1      -0.219  11.810  21.586  0.00  0.00    +0.000 A 
ATOM     22  C   UNL     1       0.706  10.940  20.992  0.00  0.00    +0.000 A 
ATOM     23  C   UNL     1       0.859   9.637  21.468  0.00  0.00    +0.000 A 
ATOM     24  C   UNL     1       0.102   9.196  22.551  0.00  0.00    +0.000 A 
ATOM     25  C   UNL     1      -0.787  10.065  23.180  0.00  0.00    +0.000 A 
ATOM     26  C   UNL     1      -0.941  11.368  22.705  0.00  0.00    +0.000 A 
ENDBRANCH  20  21
ENDBRANCH   4  20
TORSDOF 4
ENDMDL
