MODEL 1
REMARK VINA RESULT:      -7.3      0.000      0.000
REMARK  Name = 
REMARK  3 active torsions:
REMARK  status: ('A' for Active; 'I' for Inactive)
REMARK    1  A    between atoms: N_1  and  C_2
REMARK    2  A    between atoms: C_8  and  C_9
REMARK    3  A    between atoms: C_13  and  N_14
REMARK                            x       y       z     vdW  Elec       q    Type
REMARK                         _______ _______ _______ _____ _____    ______ ____
ROOT
ATOM      1  C   UNL     1      -2.494  11.772  18.965  0.00  0.00    +0.000 A 
ATOM      2  C   UNL     1      -1.251  11.293  19.440  0.00  0.00    +0.000 A 
ATOM      3  C   UNL     1      -0.571  10.342  18.676  0.00  0.00    +0.000 A 
ATOM      4  N   UNL     1      -1.014   9.901  17.481  0.00  0.00    +0.000 NA
ATOM      5  C   UNL     1      -2.177  10.403  17.028  0.00  0.00    +0.000 A 
ATOM      6  C   UNL     1      -2.975  11.305  17.724  0.00  0.00    +0.000 A 
ATOM      7  C   UNL     1      -4.241  11.786  17.058  0.00  0.00    +0.000 C 
ATOM      8  N   UNL     1      -4.570  11.074  15.836  0.00  0.00    +0.000 N 
ATOM      9  C   UNL     1      -3.688  10.328  15.136  0.00  0.00    +0.000 C 
ATOM     10  S   UNL     1      -4.047   9.811  13.599  0.00  0.00    +0.000 S 
ATOM     11  N   UNL     1      -2.533   9.997  15.749  0.00  0.00    +0.000 N 
ATOM     12  C   UNL     1       0.729   9.761  19.160  0.00  0.00    +0.000 C 
ATOM     13  C   UNL     1       1.547  10.820  19.884  0.00  0.00    +0.000 C 
ATOM     14  C   UNL     1       0.768  11.360  21.075  0.00  0.00    +0.000 C 
ATOM     15  C   UNL     1      -0.664  11.791  20.743  0.00  0.00    +0.000 C 
ATOM     16  H   UNL     1      -5.426  11.315  15.354  0.00  0.00    +0.000 HD
ATOM     17  H   UNL     1      -1.869   9.401  15.272  0.00  0.00    +0.000 HD
ENDROOT
BRANCH   7  18
ATOM     18  C   UNL     1      -5.494  11.759  17.930  0.00  0.00    +0.000 A 
ATOM     19  C   UNL     1      -6.322  12.888  18.058  0.00  0.00    +0.000 A 
ATOM     20  C   UNL     1      -7.444  12.868  18.893  0.00  0.00    +0.000 A 
ATOM     21  C   UNL     1      -7.754  11.719  19.621  0.00  0.00    +0.000 A 
ATOM     22  C   UNL     1      -6.939  10.589  19.503  0.00  0.00    +0.000 A 
ATOM     23  C   UNL     1      -5.811  10.604  18.666  0.00  0.00    +0.000 A 
BRANCH  22  24
ATOM     24  N   UNL     1      -7.265   9.372  20.253  0.00  0.00    +0.000 N 
ATOM     25  O   UNL     1      -6.989   8.280  19.739  0.00  0.00    +0.000 OA
ATOM     26  O   UNL     1      -7.796   9.507  21.366  0.00  0.00    +0.000 OA
ENDBRANCH  22  24
ENDBRANCH   7  18
BRANCH   1  27
ATOM     27  N   UNL     1      -3.083  12.885  19.600  0.00  0.00    +0.000 N 
ATOM     28  H   UNL     1      -4.077  12.994  19.423  0.00  0.00    +0.000 HD
ATOM     29  H   UNL     1      -2.608  13.771  19.485  0.00  0.00    +0.000 HD
ENDBRANCH   1  27
TORSDOF 3
ENDMDL
MODEL 2
REMARK VINA RESULT:      -6.9      9.466     11.964
REMARK  Name = 
REMARK  3 active torsions:
REMARK  status: ('A' for Active; 'I' for Inactive)
REMARK    1  A    between atoms: N_1  and  C_2
REMARK    2  A    between atoms: C_8  and  C_9
REMARK    3  A    between atoms: C_13  and  N_14
REMARK                            x       y       z     vdW  Elec       q    Type
REMARK                         _______ _______ _______ _____ _____    ______ ____
ROOT
ATOM      1  C   UNL     1       5.682   3.828  15.618  0.00  0.00    +0.000 A 
ATOM      2  C   UNL     1       6.010   3.822  14.243  0.00  0.00    +0.000 A 
ATOM      3  C   UNL     1       6.842   4.832  13.756  0.00  0.00    +0.000 A 
ATOM      4  N   UNL     1       7.393   5.779  14.543  0.00  0.00    +0.000 NA
ATOM      5  C   UNL     1       7.100   5.740  15.855  0.00  0.00    +0.000 A 
ATOM      6  C   UNL     1       6.237   4.823  16.447  0.00  0.00    +0.000 A 
ATOM      7  C   UNL     1       6.039   4.906  17.942  0.00  0.00    +0.000 C 
ATOM      8  N   UNL     1       6.631   6.084  18.550  0.00  0.00    +0.000 N 
ATOM      9  C   UNL     1       7.578   6.845  17.957  0.00  0.00    +0.000 C 
ATOM     10  S   UNL     1       8.426   7.974  18.831  0.00  0.00    +0.000 S 
ATOM     11  N   UNL     1       7.775   6.670  16.634  0.00  0.00    +0.000 N 
ATOM     12  C   UNL     1       7.182   4.903  12.293  0.00  0.00    +0.000 C 
ATOM     13  C   UNL     1       7.336   3.503  11.715  0.00  0.00    +0.000 C 
ATOM     14  C   UNL     1       6.044   2.719  11.889  0.00  0.00    +0.000 C 
ATOM     15  C   UNL     1       5.479   2.752  13.314  0.00  0.00    +0.000 C 
ATOM     16  H   UNL     1       6.506   6.229  19.543  0.00  0.00    +0.000 HD
ATOM     17  H   UNL     1       8.443   7.254  16.149  0.00  0.00    +0.000 HD
ENDROOT
BRANCH   7  18
ATOM     18  C   UNL     1       4.588   4.852  18.416  0.00  0.00    +0.000 A 
ATOM     19  C   UNL     1       3.617   5.728  17.903  0.00  0.00    +0.000 A 
ATOM     20  C   UNL     1       2.301   5.700  18.375  0.00  0.00    +0.000 A 
ATOM     21  C   UNL     1       1.934   4.798  19.374  0.00  0.00    +0.000 A 
ATOM     22  C   UNL     1       2.890   3.920  19.893  0.00  0.00    +0.000 A 
ATOM     23  C   UNL     1       4.215   3.944  19.424  0.00  0.00    +0.000 A 
BRANCH  22  24
ATOM     24  N   UNL     1       2.511   2.959  20.933  0.00  0.00    +0.000 N 
ATOM     25  O   UNL     1       3.417   2.383  21.550  0.00  0.00    +0.000 OA
ATOM     26  O   UNL     1       1.302   2.780  21.138  0.00  0.00    +0.000 OA
ENDBRANCH  22  24
ENDBRANCH   7  18
BRANCH   1  27
ATOM     27  N   UNL     1       5.034   2.703  16.168  0.00  0.00    +0.000 N 
ATOM     28  H   UNL     1       5.348   1.811  15.797  0.00  0.00    +0.000 HD
ATOM     29  H   UNL     1       4.023   2.734  16.192  0.00  0.00    +0.000 HD
ENDBRANCH   1  27
TORSDOF 3
ENDMDL
MODEL 3
REMARK VINA RESULT:      -6.7      8.967     11.635
REMARK  Name = 
REMARK  3 active torsions:
REMARK  status: ('A' for Active; 'I' for Inactive)
REMARK    1  A    between atoms: N_1  and  C_2
REMARK    2  A    between atoms: C_8  and  C_9
REMARK    3  A    between atoms: C_13  and  N_14
REMARK                            x       y       z     vdW  Elec       q    Type
REMARK                         _______ _______ _______ _____ _____    ______ ____
ROOT
ATOM      1  C   UNL     1       5.146   3.942  15.829  0.00  0.00    +0.000 A 
ATOM      2  C   UNL     1       5.670   4.136  14.531  0.00  0.00    +0.000 A 
ATOM      3  C   UNL     1       6.875   4.831  14.399  0.00  0.00    +0.000 A 
ATOM      4  N   UNL     1       7.590   5.275  15.453  0.00  0.00    +0.000 NA
ATOM      5  C   UNL     1       7.093   5.042  16.681  0.00  0.00    +0.000 A 
ATOM      6  C   UNL     1       5.876   4.418  16.937  0.00  0.00    +0.000 A 
ATOM      7  C   UNL     1       5.479   4.213  18.380  0.00  0.00    +0.000 C 
ATOM      8  N   UNL     1       6.344   4.890  19.330  0.00  0.00    +0.000 N 
ATOM      9  C   UNL     1       7.583   5.342  19.034  0.00  0.00    +0.000 C 
ATOM     10  S   UNL     1       8.622   5.814  20.240  0.00  0.00    +0.000 S 
ATOM     11  N   UNL     1       7.917   5.425  17.730  0.00  0.00    +0.000 N 
ATOM     12  C   UNL     1       7.451   5.110  13.038  0.00  0.00    +0.000 C 
ATOM     13  C   UNL     1       7.190   3.941  12.101  0.00  0.00    +0.000 C 
ATOM     14  C   UNL     1       5.693   3.700  11.968  0.00  0.00    +0.000 C 
ATOM     15  C   UNL     1       4.953   3.609  13.307  0.00  0.00    +0.000 C 
ATOM     16  H   UNL     1       6.118   4.831  20.314  0.00  0.00    +0.000 HD
ATOM     17  H   UNL     1       8.819   5.802  17.470  0.00  0.00    +0.000 HD
ENDROOT
BRANCH   7  18
ATOM     18  C   UNL     1       4.048   4.613  18.731  0.00  0.00    +0.000 A 
ATOM     19  C   UNL     1       3.608   5.942  18.610  0.00  0.00    +0.000 A 
ATOM     20  C   UNL     1       2.308   6.306  18.975  0.00  0.00    +0.000 A 
ATOM     21  C   UNL     1       1.426   5.347  19.473  0.00  0.00    +0.000 A 
ATOM     22  C   UNL     1       1.850   4.021  19.597  0.00  0.00    +0.000 A 
ATOM     23  C   UNL     1       3.155   3.649  19.233  0.00  0.00    +0.000 A 
BRANCH  22  24
ATOM     24  N   UNL     1       0.925   3.003  20.106  0.00  0.00    +0.000 N 
ATOM     25  O   UNL     1       0.176   2.442  19.296  0.00  0.00    +0.000 OA
ATOM     26  O   UNL     1       0.951   2.758  21.321  0.00  0.00    +0.000 OA
ENDBRANCH  22  24
ENDBRANCH   7  18
BRANCH   1  27
ATOM     27  N   UNL     1       4.060   3.059  16.000  0.00  0.00    +0.000 N 
ATOM     28  H   UNL     1       4.253   2.263  16.600  0.00  0.00    +0.000 HD
ATOM     29  H   UNL     1       3.592   2.754  15.156  0.00  0.00    +0.000 HD
ENDBRANCH   1  27
TORSDOF 3
ENDMDL
MODEL 4
REMARK VINA RESULT:      -6.6      6.190      8.009
REMARK  Name = 
REMARK  3 active torsions:
REMARK  status: ('A' for Active; 'I' for Inactive)
REMARK    1  A    between atoms: N_1  and  C_2
REMARK    2  A    between atoms: C_8  and  C_9
REMARK    3  A    between atoms: C_13  and  N_14
REMARK                            x       y       z     vdW  Elec       q    Type
REMARK                         _______ _______ _______ _____ _____    ______ ____
ROOT
ATOM      1  C   UNL     1       1.692   9.700  18.883  0.00  0.00    +0.000 A 
ATOM      2  C   UNL     1       2.081   8.344  18.977  0.00  0.00    +0.000 A 
ATOM      3  C   UNL     1       1.684   7.617  20.101  0.00  0.00    +0.000 A 
ATOM      4  N   UNL     1       0.901   8.129  21.073  0.00  0.00    +0.000 NA
ATOM      5  C   UNL     1       0.508   9.408  20.942  0.00  0.00    +0.000 A 
ATOM      6  C   UNL     1       0.888  10.251  19.902  0.00  0.00    +0.000 A 
ATOM      7  C   UNL     1       0.335  11.656  19.895  0.00  0.00    +0.000 C 
ATOM      8  N   UNL     1      -0.377  12.014  21.109  0.00  0.00    +0.000 N 
ATOM      9  C   UNL     1      -0.843  11.116  22.004  0.00  0.00    +0.000 C 
ATOM     10  S   UNL     1      -1.911  11.577  23.189  0.00  0.00    +0.000 S 
ATOM     11  N   UNL     1      -0.380   9.852  21.913  0.00  0.00    +0.000 N 
ATOM     12  C   UNL     1       2.113   6.187  20.277  0.00  0.00    +0.000 C 
ATOM     13  C   UNL     1       2.143   5.473  18.933  0.00  0.00    +0.000 C 
ATOM     14  C   UNL     1       3.111   6.172  17.990  0.00  0.00    +0.000 C 
ATOM     15  C   UNL     1       2.906   7.688  17.892  0.00  0.00    +0.000 C 
ATOM     16  H   UNL     1      -0.743  12.953  21.194  0.00  0.00    +0.000 HD
ATOM     17  H   UNL     1      -0.672   9.164  22.594  0.00  0.00    +0.000 HD
ENDROOT
BRANCH   7  18
ATOM     18  C   UNL     1       1.356  12.764  19.644  0.00  0.00    +0.000 A 
ATOM     19  C   UNL     1       1.437  13.415  18.401  0.00  0.00    +0.000 A 
ATOM     20  C   UNL     1       2.404  14.398  18.166  0.00  0.00    +0.000 A 
ATOM     21  C   UNL     1       3.311  14.743  19.169  0.00  0.00    +0.000 A 
ATOM     22  C   UNL     1       3.240  14.103  20.410  0.00  0.00    +0.000 A 
ATOM     23  C   UNL     1       2.272  13.114  20.651  0.00  0.00    +0.000 A 
BRANCH  22  24
ATOM     24  N   UNL     1       4.179  14.468  21.475  0.00  0.00    +0.000 N 
ATOM     25  O   UNL     1       5.336  14.769  21.151  0.00  0.00    +0.000 OA
ATOM     26  O   UNL     1       3.759  14.459  22.641  0.00  0.00    +0.000 OA
ENDBRANCH  22  24
ENDBRANCH   7  18
BRANCH   1  27
ATOM     27  N   UNL     1       1.889  10.383  17.665  0.00  0.00    +0.000 N 
ATOM     28  H   UNL     1       1.065  10.435  17.073  0.00  0.00    +0.000 HD
ATOM     29  H   UNL     1       2.693  10.104  17.119  0.00  0.00    +0.000 HD
ENDBRANCH   1  27
TORSDOF 3
ENDMDL
MODEL 5
REMARK VINA RESULT:      -6.4      4.086      5.651
REMARK  Name = 
REMARK  3 active torsions:
REMARK  status: ('A' for Active; 'I' for Inactive)
REMARK    1  A    between atoms: N_1  and  C_2
REMARK    2  A    between atoms: C_8  and  C_9
REMARK    3  A    between atoms: C_13  and  N_14
REMARK                            x       y       z     vdW  Elec       q    Type
REMARK                         _______ _______ _______ _____ _____    ______ ____
ROOT
ATOM      1  C   UNL     1       0.287  14.271  19.030  0.00  0.00    +0.000 A 
ATOM      2  C   UNL     1       1.242  15.235  18.634  0.00  0.00    +0.000 A 
ATOM      3  C   UNL     1       2.478  14.789  18.160  0.00  0.00    +0.000 A 
ATOM      4  N   UNL     1       2.784  13.484  18.011  0.00  0.00    +0.000 NA
ATOM      5  C   UNL     1       1.844  12.585  18.354  0.00  0.00    +0.000 A 
ATOM      6  C   UNL     1       0.602  12.904  18.895  0.00  0.00    +0.000 A 
ATOM      7  C   UNL     1      -0.345  11.769  19.203  0.00  0.00    +0.000 C 
ATOM      8  N   UNL     1       0.254  10.452  19.080  0.00  0.00    +0.000 N 
ATOM      9  C   UNL     1       1.400  10.204  18.408  0.00  0.00    +0.000 C 
ATOM     10  S   UNL     1       1.849   8.646  18.045  0.00  0.00    +0.000 S 
ATOM     11  N   UNL     1       2.170  11.263  18.082  0.00  0.00    +0.000 N 
ATOM     12  C   UNL     1       3.549  15.771  17.774  0.00  0.00    +0.000 C 
ATOM     13  C   UNL     1       2.931  17.000  17.122  0.00  0.00    +0.000 C 
ATOM     14  C   UNL     1       1.962  17.672  18.084  0.00  0.00    +0.000 C 
ATOM     15  C   UNL     1       0.943  16.716  18.715  0.00  0.00    +0.000 C 
ATOM     16  H   UNL     1      -0.308   9.643  19.308  0.00  0.00    +0.000 HD
ATOM     17  H   UNL     1       3.056  11.110  17.620  0.00  0.00    +0.000 HD
ENDROOT
BRANCH   7  18
ATOM     18  C   UNL     1      -1.008  11.821  20.577  0.00  0.00    +0.000 A 
ATOM     19  C   UNL     1      -0.350  11.348  21.726  0.00  0.00    +0.000 A 
ATOM     20  C   UNL     1      -0.982  11.360  22.973  0.00  0.00    +0.000 A 
ATOM     21  C   UNL     1      -2.287  11.839  23.093  0.00  0.00    +0.000 A 
ATOM     22  C   UNL     1      -2.953  12.313  21.958  0.00  0.00    +0.000 A 
ATOM     23  C   UNL     1      -2.323  12.303  20.702  0.00  0.00    +0.000 A 
BRANCH  22  24
ATOM     24  N   UNL     1      -4.319  12.832  22.077  0.00  0.00    +0.000 N 
ATOM     25  O   UNL     1      -5.038  12.377  22.976  0.00  0.00    +0.000 OA
ATOM     26  O   UNL     1      -4.675  13.703  21.270  0.00  0.00    +0.000 OA
ENDBRANCH  22  24
ENDBRANCH   7  18
BRANCH   1  27
ATOM     27  N   UNL     1      -1.033  14.689  19.296  0.00  0.00    +0.000 N 
ATOM     28  H   UNL     1      -1.452  14.267  20.119  0.00  0.00    +0.000 HD
ATOM     29  H   UNL     1      -1.679  14.655  18.519  0.00  0.00    +0.000 HD
ENDBRANCH   1  27
TORSDOF 3
ENDMDL
MODEL 6
REMARK VINA RESULT:      -6.4      3.794      7.113
REMARK  Name = 
REMARK  3 active torsions:
REMARK  status: ('A' for Active; 'I' for Inactive)
REMARK    1  A    between atoms: N_1  and  C_2
REMARK    2  A    between atoms: C_8  and  C_9
REMARK    3  A    between atoms: C_13  and  N_14
REMARK                            x       y       z     vdW  Elec       q    Type
REMARK                         _______ _______ _______ _____ _____    ______ ____
ROOT
ATOM      1  C   UNL     1      -1.939  11.337  18.299  0.00  0.00    +0.000 A 
ATOM      2  C   UNL     1      -3.320  11.523  18.534  0.00  0.00    +0.000 A 
ATOM      3  C   UNL     1      -3.708  12.400  19.550  0.00  0.00    +0.000 A 
ATOM      4  N   UNL     1      -2.830  13.120  20.279  0.00  0.00    +0.000 NA
ATOM      5  C   UNL     1      -1.522  12.958  20.009  0.00  0.00    +0.000 A 
ATOM      6  C   UNL     1      -1.011  12.071  19.067  0.00  0.00    +0.000 A 
ATOM      7  C   UNL     1       0.486  12.032  18.873  0.00  0.00    +0.000 C 
ATOM      8  N   UNL     1       1.226  12.799  19.859  0.00  0.00    +0.000 N 
ATOM      9  C   UNL     1       0.677  13.754  20.642  0.00  0.00    +0.000 C 
ATOM     10  S   UNL     1       1.637  14.795  21.508  0.00  0.00    +0.000 S 
ATOM     11  N   UNL     1      -0.670  13.798  20.713  0.00  0.00    +0.000 N 
ATOM     12  C   UNL     1      -5.162  12.596  19.876  0.00  0.00    +0.000 C 
ATOM     13  C   UNL     1      -6.002  12.550  18.608  0.00  0.00    +0.000 C 
ATOM     14  C   UNL     1      -5.824  11.209  17.911  0.00  0.00    +0.000 C 
ATOM     15  C   UNL     1      -4.362  10.796  17.712  0.00  0.00    +0.000 C 
ATOM     16  H   UNL     1       2.237  12.789  19.817  0.00  0.00    +0.000 HD
ATOM     17  H   UNL     1      -1.114  14.469  21.324  0.00  0.00    +0.000 HD
ENDROOT
BRANCH   7  18
ATOM     18  C   UNL     1       1.109  10.639  18.843  0.00  0.00    +0.000 A 
ATOM     19  C   UNL     1       1.812  10.175  17.718  0.00  0.00    +0.000 A 
ATOM     20  C   UNL     1       2.343   8.882  17.683  0.00  0.00    +0.000 A 
ATOM     21  C   UNL     1       2.174   8.026  18.773  0.00  0.00    +0.000 A 
ATOM     22  C   UNL     1       1.478   8.475  19.899  0.00  0.00    +0.000 A 
ATOM     23  C   UNL     1       0.942   9.773  19.939  0.00  0.00    +0.000 A 
BRANCH  22  24
ATOM     24  N   UNL     1       1.308   7.589  21.054  0.00  0.00    +0.000 N 
ATOM     25  O   UNL     1       1.507   6.377  20.891  0.00  0.00    +0.000 OA
ATOM     26  O   UNL     1       0.979   8.105  22.132  0.00  0.00    +0.000 OA
ENDBRANCH  22  24
ENDBRANCH   7  18
BRANCH   1  27
ATOM     27  N   UNL     1      -1.533  10.637  17.144  0.00  0.00    +0.000 N 
ATOM     28  H   UNL     1      -1.721  11.119  16.270  0.00  0.00    +0.000 HD
ATOM     29  H   UNL     1      -1.824   9.671  17.079  0.00  0.00    +0.000 HD
ENDBRANCH   1  27
TORSDOF 3
ENDMDL
MODEL 7
REMARK VINA RESULT:      -6.4      4.259      7.524
REMARK  Name = 
REMARK  3 active torsions:
REMARK  status: ('A' for Active; 'I' for Inactive)
REMARK    1  A    between atoms: N_1  and  C_2
REMARK    2  A    between atoms: C_8  and  C_9
REMARK    3  A    between atoms: C_13  and  N_14
REMARK                            x       y       z     vdW  Elec       q    Type
REMARK                         _______ _______ _______ _____ _____    ______ ____
ROOT
ATOM      1  C   UNL     1      -1.787  10.744  18.523  0.00  0.00    +0.000 A 
ATOM      2  C   UNL     1      -3.139  11.155  18.566  0.00  0.00    +0.000 A 
ATOM      3  C   UNL     1      -3.466  12.286  19.317  0.00  0.00    +0.000 A 
ATOM      4  N   UNL     1      -2.546  13.039  19.956  0.00  0.00    +0.000 NA
ATOM      5  C   UNL     1      -1.261  12.653  19.866  0.00  0.00    +0.000 A 
ATOM      6  C   UNL     1      -0.819  11.513  19.201  0.00  0.00    +0.000 A 
ATOM      7  C   UNL     1       0.665  11.241  19.177  0.00  0.00    +0.000 C 
ATOM      8  N   UNL     1       1.438  12.116  20.041  0.00  0.00    +0.000 N 
ATOM      9  C   UNL     1       0.980  13.289  20.532  0.00  0.00    +0.000 C 
ATOM     10  S   UNL     1       2.019  14.373  21.242  0.00  0.00    +0.000 S 
ATOM     11  N   UNL     1      -0.346  13.519  20.452  0.00  0.00    +0.000 N 
ATOM     12  C   UNL     1      -4.895  12.736  19.440  0.00  0.00    +0.000 C 
ATOM     13  C   UNL     1      -5.639  12.502  18.133  0.00  0.00    +0.000 C 
ATOM     14  C   UNL     1      -5.611  11.024  17.772  0.00  0.00    +0.000 C 
ATOM     15  C   UNL     1      -4.215  10.394  17.822  0.00  0.00    +0.000 C 
ATOM     16  H   UNL     1       2.436  11.969  20.108  0.00  0.00    +0.000 HD
ATOM     17  H   UNL     1      -0.730  14.366  20.850  0.00  0.00    +0.000 HD
ENDROOT
BRANCH   7  18
ATOM     18  C   UNL     1       1.078   9.812  19.522  0.00  0.00    +0.000 A 
ATOM     19  C   UNL     1       0.780   9.245  20.773  0.00  0.00    +0.000 A 
ATOM     20  C   UNL     1       1.199   7.951  21.095  0.00  0.00    +0.000 A 
ATOM     21  C   UNL     1       1.930   7.201  20.173  0.00  0.00    +0.000 A 
ATOM     22  C   UNL     1       2.232   7.753  18.924  0.00  0.00    +0.000 A 
ATOM     23  C   UNL     1       1.815   9.053  18.595  0.00  0.00    +0.000 A 
BRANCH  22  24
ATOM     24  N   UNL     1       2.987   6.968  17.943  0.00  0.00    +0.000 N 
ATOM     25  O   UNL     1       3.896   7.534  17.321  0.00  0.00    +0.000 OA
ATOM     26  O   UNL     1       2.675   5.777  17.795  0.00  0.00    +0.000 OA
ENDBRANCH  22  24
ENDBRANCH   7  18
BRANCH   1  27
ATOM     27  N   UNL     1      -1.407   9.749  17.600  0.00  0.00    +0.000 N 
ATOM     28  H   UNL     1      -0.887  10.093  16.798  0.00  0.00    +0.000 HD
ATOM     29  H   UNL     1      -2.135   9.115  17.298  0.00  0.00    +0.000 HD
ENDBRANCH   1  27
TORSDOF 3
ENDMDL
MODEL 8
REMARK VINA RESULT:      -6.4      4.474      6.826
REMARK  Name = 
REMARK  3 active torsions:
REMARK  status: ('A' for Active; 'I' for Inactive)
REMARK    1  A    between atoms: N_1  and  C_2
REMARK    2  A    between atoms: C_8  and  C_9
REMARK    3  A    between atoms: C_13  and  N_14
REMARK                            x       y       z     vdW  Elec       q    Type
REMARK                         _______ _______ _______ _____ _____    ______ ____
ROOT
ATOM      1  C   UNL     1      -1.791  12.587  21.228  0.00  0.00    +0.000 A 
ATOM      2  C   UNL     1      -2.875  12.895  22.081  0.00  0.00    +0.000 A 
ATOM      3  C   UNL     1      -4.164  12.889  21.544  0.00  0.00    +0.000 A 
ATOM      4  N   UNL     1      -4.430  12.549  20.265  0.00  0.00    +0.000 NA
ATOM      5  C   UNL     1      -3.387  12.219  19.483  0.00  0.00    +0.000 A 
ATOM      6  C   UNL     1      -2.055  12.247  19.885  0.00  0.00    +0.000 A 
ATOM      7  C   UNL     1      -1.007  11.821  18.884  0.00  0.00    +0.000 C 
ATOM      8  N   UNL     1      -1.522  11.626  17.541  0.00  0.00    +0.000 N 
ATOM      9  C   UNL     1      -2.832  11.461  17.250  0.00  0.00    +0.000 C 
ATOM     10  S   UNL     1      -3.306  10.930  15.750  0.00  0.00    +0.000 S 
ATOM     11  N   UNL     1      -3.724  11.776  18.211  0.00  0.00    +0.000 N 
ATOM     12  C   UNL     1      -5.348  13.259  22.393  0.00  0.00    +0.000 C 
ATOM     13  C   UNL     1      -5.160  12.751  23.816  0.00  0.00    +0.000 C 
ATOM     14  C   UNL     1      -3.902  13.353  24.424  0.00  0.00    +0.000 C 
ATOM     15  C   UNL     1      -2.656  13.224  23.541  0.00  0.00    +0.000 C 
ATOM     16  H   UNL     1      -0.872  11.377  16.807  0.00  0.00    +0.000 HD
ATOM     17  H   UNL     1      -4.713  11.709  18.013  0.00  0.00    +0.000 HD
ENDROOT
BRANCH   7  18
ATOM     18  C   UNL     1       0.199  12.750  18.759  0.00  0.00    +0.000 A 
ATOM     19  C   UNL     1       1.511  12.247  18.751  0.00  0.00    +0.000 A 
ATOM     20  C   UNL     1       2.611  13.108  18.680  0.00  0.00    +0.000 A 
ATOM     21  C   UNL     1       2.417  14.489  18.622  0.00  0.00    +0.000 A 
ATOM     22  C   UNL     1       1.117  15.001  18.629  0.00  0.00    +0.000 A 
ATOM     23  C   UNL     1       0.008  14.142  18.701  0.00  0.00    +0.000 A 
BRANCH  22  24
ATOM     24  N   UNL     1       0.903  16.450  18.554  0.00  0.00    +0.000 N 
ATOM     25  O   UNL     1       1.891  17.175  18.383  0.00  0.00    +0.000 OA
ATOM     26  O   UNL     1      -0.260  16.866  18.662  0.00  0.00    +0.000 OA
ENDBRANCH  22  24
ENDBRANCH   7  18
BRANCH   1  27
ATOM     27  N   UNL     1      -0.518  12.370  21.795  0.00  0.00    +0.000 N 
ATOM     28  H   UNL     1       0.226  12.223  21.119  0.00  0.00    +0.000 HD
ATOM     29  H   UNL     1      -0.466  11.675  22.528  0.00  0.00    +0.000 HD
ENDBRANCH   1  27
TORSDOF 3
ENDMDL
MODEL 9
REMARK VINA RESULT:      -6.3      8.467     11.500
REMARK  Name = 
REMARK  3 active torsions:
REMARK  status: ('A' for Active; 'I' for Inactive)
REMARK    1  A    between atoms: N_1  and  C_2
REMARK    2  A    between atoms: C_8  and  C_9
REMARK    3  A    between atoms: C_13  and  N_14
REMARK                            x       y       z     vdW  Elec       q    Type
REMARK                         _______ _______ _______ _____ _____    ______ ____
ROOT
ATOM      1  C   UNL     1       4.968   4.082  16.042  0.00  0.00    +0.000 A 
ATOM      2  C   UNL     1       5.497   4.174  14.734  0.00  0.00    +0.000 A 
ATOM      3  C   UNL     1       6.790   4.678  14.575  0.00  0.00    +0.000 A 
ATOM      4  N   UNL     1       7.578   5.029  15.613  0.00  0.00    +0.000 NA
ATOM      5  C   UNL     1       7.069   4.893  16.850  0.00  0.00    +0.000 A 
ATOM      6  C   UNL     1       5.777   4.462  17.133  0.00  0.00    +0.000 A 
ATOM      7  C   UNL     1       5.374   4.344  18.583  0.00  0.00    +0.000 C 
ATOM      8  N   UNL     1       6.344   4.901  19.510  0.00  0.00    +0.000 N 
ATOM      9  C   UNL     1       7.631   5.158  19.192  0.00  0.00    +0.000 C 
ATOM     10  S   UNL     1       8.747   5.490  20.377  0.00  0.00    +0.000 S 
ATOM     11  N   UNL     1       7.956   5.167  17.883  0.00  0.00    +0.000 N 
ATOM     12  C   UNL     1       7.382   4.845  13.204  0.00  0.00    +0.000 C 
ATOM     13  C   UNL     1       6.936   3.712  12.292  0.00  0.00    +0.000 C 
ATOM     14  C   UNL     1       5.419   3.694  12.181  0.00  0.00    +0.000 C 
ATOM     15  C   UNL     1       4.692   3.738  13.529  0.00  0.00    +0.000 C 
ATOM     16  H   UNL     1       6.125   4.893  20.498  0.00  0.00    +0.000 HD
ATOM     17  H   UNL     1       8.900   5.401  17.606  0.00  0.00    +0.000 HD
ENDROOT
BRANCH   7  18
ATOM     18  C   UNL     1       4.023   4.959  18.943  0.00  0.00    +0.000 A 
ATOM     19  C   UNL     1       3.051   4.228  19.646  0.00  0.00    +0.000 A 
ATOM     20  C   UNL     1       1.800   4.784  19.933  0.00  0.00    +0.000 A 
ATOM     21  C   UNL     1       1.497   6.080  19.515  0.00  0.00    +0.000 A 
ATOM     22  C   UNL     1       2.456   6.818  18.815  0.00  0.00    +0.000 A 
ATOM     23  C   UNL     1       3.714   6.265  18.523  0.00  0.00    +0.000 A 
BRANCH  22  24
ATOM     24  N   UNL     1       2.152   8.186  18.384  0.00  0.00    +0.000 N 
ATOM     25  O   UNL     1       2.565   8.551  17.275  0.00  0.00    +0.000 OA
ATOM     26  O   UNL     1       1.493   8.899  19.154  0.00  0.00    +0.000 OA
ENDBRANCH  22  24
ENDBRANCH   7  18
BRANCH   1  27
ATOM     27  N   UNL     1       3.765   3.374  16.242  0.00  0.00    +0.000 N 
ATOM     28  H   UNL     1       3.314   3.553  17.134  0.00  0.00    +0.000 HD
ATOM     29  H   UNL     1       3.793   2.380  16.058  0.00  0.00    +0.000 HD
ENDBRANCH   1  27
TORSDOF 3
ENDMDL
