MODEL 1
REMARK VINA RESULT:      -9.2      0.000      0.000
REMARK  Name = 
REMARK  2 active torsions:
REMARK  status: ('A' for Active; 'I' for Inactive)
REMARK    1  A    between atoms: S_2  and  C_4
REMARK    2  A    between atoms: S_2  and  N_19
REMARK                            x       y       z     vdW  Elec       q    Type
REMARK                         _______ _______ _______ _____ _____    ______ ____
ROOT
ATOM      1  C   UNL     1       1.640   8.187  20.092  0.00  0.00    +0.000 A 
ATOM      2  C   UNL     1       2.094   8.795  18.912  0.00  0.00    +0.000 A 
ATOM      3  C   UNL     1       2.753   8.038  17.928  0.00  0.00    +0.000 A 
ATOM      4  C   UNL     1       2.919   6.676  18.185  0.00  0.00    +0.000 A 
ATOM      5  O   UNL     1       3.561   5.778  17.372  0.00  0.00    +0.000 OA
ATOM      6  C   UNL     1       3.484   4.592  18.015  0.00  0.00    +0.000 A 
ATOM      7  C   UNL     1       2.798   4.683  19.202  0.00  0.00    +0.000 A 
ATOM      8  C   UNL     1       2.449   6.044  19.340  0.00  0.00    +0.000 A 
ATOM      9  C   UNL     1       1.796   6.810  20.314  0.00  0.00    +0.000 A 
ATOM     10  C   UNL     1       2.619   3.477  20.059  0.00  0.00    +0.000 C 
ATOM     11  C   UNL     1       1.462   2.589  19.645  0.00  0.00    +0.000 C 
ATOM     12  C   UNL     1       2.171   1.473  18.875  0.00  0.00    +0.000 C 
ATOM     13  C   UNL     1       3.521   2.073  18.312  0.00  0.00    +0.000 C 
ATOM     14  C   UNL     1       4.139   3.349  17.528  0.00  0.00    +0.000 C 
ATOM     15  N   UNL     1       3.744   2.574  19.719  0.00  0.00    +0.000 NA
ATOM     16  H   UNL     1       4.630   3.066  19.825  0.00  0.00    +0.000 HD
ENDROOT
BRANCH   1  18
ATOM     17  O   UNL     1      -0.457   8.400  21.610  0.00  0.00    +0.000 OA
ATOM     18  S   UNL     1       0.768   9.118  21.321  0.00  0.00    +0.000 S 
ATOM     19  O   UNL     1       1.701   9.502  22.364  0.00  0.00    +0.000 OA
BRANCH  18  20
ATOM     20  N   UNL     1       0.308  10.583  20.590  0.00  0.00    +0.000 N 
ATOM     21  C   UNL     1       0.851  11.792  20.941  0.00  0.00    +0.000 A 
ATOM     22  C   UNL     1       0.328  12.742  20.095  0.00  0.00    +0.000 A 
ATOM     23  C   UNL     1      -0.567  12.082  19.206  0.00  0.00    +0.000 A 
ATOM     24  C   UNL     1      -1.363  12.539  18.134  0.00  0.00    +0.000 A 
ATOM     25  C   UNL     1      -2.152  11.632  17.426  0.00  0.00    +0.000 A 
ATOM     26  C   UNL     1      -2.148  10.288  17.775  0.00  0.00    +0.000 A 
ATOM     27  F   UNL     1      -2.911   9.436  17.080  0.00  0.00    +0.000 F 
ATOM     28  C   UNL     1      -1.367   9.799  18.826  0.00  0.00    +0.000 A 
ATOM     29  C   UNL     1      -0.577  10.718  19.538  0.00  0.00    +0.000 A 
ENDBRANCH  18  20
ENDBRANCH   1  18
TORSDOF 2
ENDMDL
MODEL 2
REMARK VINA RESULT:      -8.6      2.003      2.942
REMARK  Name = 
REMARK  2 active torsions:
REMARK  status: ('A' for Active; 'I' for Inactive)
REMARK    1  A    between atoms: S_2  and  C_4
REMARK    2  A    between atoms: S_2  and  N_19
REMARK                            x       y       z     vdW  Elec       q    Type
REMARK                         _______ _______ _______ _____ _____    ______ ____
ROOT
ATOM      1  C   UNL     1       1.105   9.599  19.997  0.00  0.00    +0.000 A 
ATOM      2  C   UNL     1       0.550   9.097  21.182  0.00  0.00    +0.000 A 
ATOM      3  C   UNL     1       0.738   7.751  21.543  0.00  0.00    +0.000 A 
ATOM      4  C   UNL     1       1.498   6.965  20.675  0.00  0.00    +0.000 A 
ATOM      5  O   UNL     1       1.767   5.630  20.829  0.00  0.00    +0.000 OA
ATOM      6  C   UNL     1       2.523   5.291  19.761  0.00  0.00    +0.000 A 
ATOM      7  C   UNL     1       2.773   6.360  18.935  0.00  0.00    +0.000 A 
ATOM      8  C   UNL     1       2.085   7.453  19.504  0.00  0.00    +0.000 A 
ATOM      9  C   UNL     1       1.888   8.796  19.154  0.00  0.00    +0.000 A 
ATOM     10  C   UNL     1       3.583   6.177  17.698  0.00  0.00    +0.000 C 
ATOM     11  C   UNL     1       5.081   6.212  17.928  0.00  0.00    +0.000 C 
ATOM     12  C   UNL     1       5.443   4.725  17.931  0.00  0.00    +0.000 C 
ATOM     13  C   UNL     1       4.152   3.928  18.373  0.00  0.00    +0.000 C 
ATOM     14  C   UNL     1       2.965   3.900  19.476  0.00  0.00    +0.000 C 
ATOM     15  N   UNL     1       3.434   4.749  17.328  0.00  0.00    +0.000 NA
ATOM     16  H   UNL     1       2.447   4.511  17.251  0.00  0.00    +0.000 HD
ENDROOT
BRANCH   1  18
ATOM     17  O   UNL     1       1.451  12.091  20.644  0.00  0.00    +0.000 OA
ATOM     18  S   UNL     1       0.915  11.303  19.551  0.00  0.00    +0.000 S 
ATOM     19  O   UNL     1       1.361  11.481  18.182  0.00  0.00    +0.000 OA
BRANCH  18  20
ATOM     20  N   UNL     1      -0.756  11.615  19.507  0.00  0.00    +0.000 N 
ATOM     21  C   UNL     1      -1.380  12.457  20.392  0.00  0.00    +0.000 A 
ATOM     22  C   UNL     1      -2.698  12.551  20.012  0.00  0.00    +0.000 A 
ATOM     23  C   UNL     1      -2.877  11.732  18.862  0.00  0.00    +0.000 A 
ATOM     24  C   UNL     1      -3.995  11.459  18.045  0.00  0.00    +0.000 A 
ATOM     25  C   UNL     1      -3.858  10.598  16.956  0.00  0.00    +0.000 A 
ATOM     26  C   UNL     1      -2.626  10.019  16.679  0.00  0.00    +0.000 A 
ATOM     27  F   UNL     1      -2.519   9.198  15.627  0.00  0.00    +0.000 F 
ATOM     28  C   UNL     1      -1.497  10.273  17.462  0.00  0.00    +0.000 A 
ATOM     29  C   UNL     1      -1.642  11.139  18.560  0.00  0.00    +0.000 A 
ENDBRANCH  18  20
ENDBRANCH   1  18
TORSDOF 2
ENDMDL
MODEL 3
REMARK VINA RESULT:      -8.6      2.011      2.557
REMARK  Name = 
REMARK  2 active torsions:
REMARK  status: ('A' for Active; 'I' for Inactive)
REMARK    1  A    between atoms: S_2  and  C_4
REMARK    2  A    between atoms: S_2  and  N_19
REMARK                            x       y       z     vdW  Elec       q    Type
REMARK                         _______ _______ _______ _____ _____    ______ ____
ROOT
ATOM      1  C   UNL     1       1.479   9.264  19.126  0.00  0.00    +0.000 A 
ATOM      2  C   UNL     1       2.230   9.439  17.955  0.00  0.00    +0.000 A 
ATOM      3  C   UNL     1       3.000   8.382  17.438  0.00  0.00    +0.000 A 
ATOM      4  C   UNL     1       2.967   7.175  18.138  0.00  0.00    +0.000 A 
ATOM      5  O   UNL     1       3.670   6.042  17.818  0.00  0.00    +0.000 OA
ATOM      6  C   UNL     1       3.338   5.135  18.764  0.00  0.00    +0.000 A 
ATOM      7  C   UNL     1       2.431   5.630  19.669  0.00  0.00    +0.000 A 
ATOM      8  C   UNL     1       2.203   6.970  19.290  0.00  0.00    +0.000 A 
ATOM      9  C   UNL     1       1.441   8.032  19.797  0.00  0.00    +0.000 A 
ATOM     10  C   UNL     1       1.953   4.777  20.793  0.00  0.00    +0.000 C 
ATOM     11  C   UNL     1       0.824   3.836  20.421  0.00  0.00    +0.000 C 
ATOM     12  C   UNL     1       1.560   2.509  20.225  0.00  0.00    +0.000 C 
ATOM     13  C   UNL     1       3.052   2.852  19.832  0.00  0.00    +0.000 C 
ATOM     14  C   UNL     1       3.949   3.783  18.855  0.00  0.00    +0.000 C 
ATOM     15  N   UNL     1       3.025   3.779  21.023  0.00  0.00    +0.000 NA
ATOM     16  H   UNL     1       3.914   4.253  21.173  0.00  0.00    +0.000 HD
ENDROOT
BRANCH   1  18
ATOM     17  O   UNL     1       0.054  10.177  21.097  0.00  0.00    +0.000 OA
ATOM     18  S   UNL     1       0.468  10.571  19.765  0.00  0.00    +0.000 S 
ATOM     19  O   UNL     1       1.126  11.838  19.506  0.00  0.00    +0.000 OA
BRANCH  18  20
ATOM     20  N   UNL     1      -0.940  10.611  18.814  0.00  0.00    +0.000 N 
ATOM     21  C   UNL     1      -1.092   9.858  17.677  0.00  0.00    +0.000 A 
ATOM     22  C   UNL     1      -2.373  10.060  17.217  0.00  0.00    +0.000 A 
ATOM     23  C   UNL     1      -3.013  10.971  18.103  0.00  0.00    +0.000 A 
ATOM     24  C   UNL     1      -4.313  11.519  18.139  0.00  0.00    +0.000 A 
ATOM     25  C   UNL     1      -4.660  12.402  19.162  0.00  0.00    +0.000 A 
ATOM     26  C   UNL     1      -3.730  12.735  20.138  0.00  0.00    +0.000 A 
ATOM     27  F   UNL     1      -4.086  13.583  21.110  0.00  0.00    +0.000 F 
ATOM     28  C   UNL     1      -2.436  12.205  20.138  0.00  0.00    +0.000 A 
ATOM     29  C   UNL     1      -2.091  11.318  19.103  0.00  0.00    +0.000 A 
ENDBRANCH  18  20
ENDBRANCH   1  18
TORSDOF 2
ENDMDL
MODEL 4
REMARK VINA RESULT:      -8.5      1.875      2.531
REMARK  Name = 
REMARK  2 active torsions:
REMARK  status: ('A' for Active; 'I' for Inactive)
REMARK    1  A    between atoms: S_2  and  C_4
REMARK    2  A    between atoms: S_2  and  N_19
REMARK                            x       y       z     vdW  Elec       q    Type
REMARK                         _______ _______ _______ _____ _____    ______ ____
ROOT
ATOM      1  C   UNL     1       1.469   8.620  19.893  0.00  0.00    +0.000 A 
ATOM      2  C   UNL     1       1.974   9.097  18.675  0.00  0.00    +0.000 A 
ATOM      3  C   UNL     1       2.665   8.237  17.805  0.00  0.00    +0.000 A 
ATOM      4  C   UNL     1       2.809   6.909  18.212  0.00  0.00    +0.000 A 
ATOM      5  O   UNL     1       3.475   5.927  17.525  0.00  0.00    +0.000 OA
ATOM      6  C   UNL     1       3.363   4.817  18.288  0.00  0.00    +0.000 A 
ATOM      7  C   UNL     1       2.630   5.037  19.430  0.00  0.00    +0.000 A 
ATOM      8  C   UNL     1       2.288   6.406  19.407  0.00  0.00    +0.000 A 
ATOM      9  C   UNL     1       1.603   7.275  20.267  0.00  0.00    +0.000 A 
ATOM     10  C   UNL     1       2.407   3.930  20.402  0.00  0.00    +0.000 C 
ATOM     11  C   UNL     1       1.260   3.008  20.038  0.00  0.00    +0.000 C 
ATOM     12  C   UNL     1       1.990   1.813  19.421  0.00  0.00    +0.000 C 
ATOM     13  C   UNL     1       3.366   2.343  18.852  0.00  0.00    +0.000 C 
ATOM     14  C   UNL     1       4.026   3.526  17.963  0.00  0.00    +0.000 C 
ATOM     15  N   UNL     1       3.537   2.991  20.205  0.00  0.00    +0.000 NA
ATOM     16  H   UNL     1       4.422   3.487  20.295  0.00  0.00    +0.000 HD
ENDROOT
BRANCH   1  18
ATOM     17  O   UNL     1      -0.576   8.919  21.467  0.00  0.00    +0.000 OA
ATOM     18  S   UNL     1       0.556   9.681  20.980  0.00  0.00    +0.000 S 
ATOM     19  O   UNL     1       1.486  10.340  21.878  0.00  0.00    +0.000 OA
BRANCH  18  20
ATOM     20  N   UNL     1      -0.081  10.933  20.021  0.00  0.00    +0.000 N 
ATOM     21  C   UNL     1      -1.325  10.871  19.447  0.00  0.00    +0.000 A 
ATOM     22  C   UNL     1      -1.555  12.077  18.829  0.00  0.00    +0.000 A 
ATOM     23  C   UNL     1      -0.407  12.894  19.032  0.00  0.00    +0.000 A 
ATOM     24  C   UNL     1      -0.090  14.215  18.648  0.00  0.00    +0.000 A 
ATOM     25  C   UNL     1       1.142  14.760  19.009  0.00  0.00    +0.000 A 
ATOM     26  C   UNL     1       2.047  14.006  19.745  0.00  0.00    +0.000 A 
ATOM     27  F   UNL     1       3.221  14.552  20.082  0.00  0.00    +0.000 F 
ATOM     28  C   UNL     1       1.763  12.698  20.150  0.00  0.00    +0.000 A 
ATOM     29  C   UNL     1       0.521  12.152  19.780  0.00  0.00    +0.000 A 
ENDBRANCH  18  20
ENDBRANCH   1  18
TORSDOF 2
ENDMDL
MODEL 5
REMARK VINA RESULT:      -8.4      3.514      7.937
REMARK  Name = 
REMARK  2 active torsions:
REMARK  status: ('A' for Active; 'I' for Inactive)
REMARK    1  A    between atoms: S_2  and  C_4
REMARK    2  A    between atoms: S_2  and  N_19
REMARK                            x       y       z     vdW  Elec       q    Type
REMARK                         _______ _______ _______ _____ _____    ______ ____
ROOT
ATOM      1  C   UNL     1       2.694   4.604  18.896  0.00  0.00    +0.000 A 
ATOM      2  C   UNL     1       2.398   4.154  20.190  0.00  0.00    +0.000 A 
ATOM      3  C   UNL     1       1.873   5.037  21.149  0.00  0.00    +0.000 A 
ATOM      4  C   UNL     1       1.664   6.357  20.746  0.00  0.00    +0.000 A 
ATOM      5  O   UNL     1       1.195   7.373  21.536  0.00  0.00    +0.000 OA
ATOM      6  C   UNL     1       1.158   8.462  20.737  0.00  0.00    +0.000 A 
ATOM      7  C   UNL     1       1.563   8.184  19.454  0.00  0.00    +0.000 A 
ATOM      8  C   UNL     1       1.925   6.820  19.453  0.00  0.00    +0.000 A 
ATOM      9  C   UNL     1       2.450   5.930  18.506  0.00  0.00    +0.000 A 
ATOM     10  C   UNL     1       1.600   9.265  18.429  0.00  0.00    +0.000 C 
ATOM     11  C   UNL     1       0.261   9.542  17.773  0.00  0.00    +0.000 C 
ATOM     12  C   UNL     1      -0.214  10.788  18.523  0.00  0.00    +0.000 C 
ATOM     13  C   UNL     1       0.477  10.774  19.945  0.00  0.00    +0.000 C 
ATOM     14  C   UNL     1       0.795   9.822  21.217  0.00  0.00    +0.000 C 
ATOM     15  N   UNL     1       1.759  10.530  19.185  0.00  0.00    +0.000 NA
ATOM     16  H   UNL     1       2.572  10.470  19.796  0.00  0.00    +0.000 HD
ENDROOT
BRANCH   1  18
ATOM     17  O   UNL     1       3.890   2.361  18.360  0.00  0.00    +0.000 OA
ATOM     18  S   UNL     1       3.313   3.493  17.662  0.00  0.00    +0.000 S 
ATOM     19  O   UNL     1       2.303   3.330  16.633  0.00  0.00    +0.000 OA
BRANCH  18  20
ATOM     20  N   UNL     1       4.599   4.289  16.886  0.00  0.00    +0.000 N 
ATOM     21  C   UNL     1       4.649   4.474  15.528  0.00  0.00    +0.000 A 
ATOM     22  C   UNL     1       5.765   5.230  15.255  0.00  0.00    +0.000 A 
ATOM     23  C   UNL     1       6.415   5.505  16.491  0.00  0.00    +0.000 A 
ATOM     24  C   UNL     1       7.574   6.238  16.822  0.00  0.00    +0.000 A 
ATOM     25  C   UNL     1       7.968   6.339  18.156  0.00  0.00    +0.000 A 
ATOM     26  C   UNL     1       7.219   5.723  19.150  0.00  0.00    +0.000 A 
ATOM     27  F   UNL     1       7.615   5.836  20.424  0.00  0.00    +0.000 F 
ATOM     28  C   UNL     1       6.060   4.996  18.860  0.00  0.00    +0.000 A 
ATOM     29  C   UNL     1       5.670   4.895  17.513  0.00  0.00    +0.000 A 
ENDBRANCH  18  20
ENDBRANCH   1  18
TORSDOF 2
ENDMDL
MODEL 6
REMARK VINA RESULT:      -8.4      2.053      2.560
REMARK  Name = 
REMARK  2 active torsions:
REMARK  status: ('A' for Active; 'I' for Inactive)
REMARK    1  A    between atoms: S_2  and  C_4
REMARK    2  A    between atoms: S_2  and  N_19
REMARK                            x       y       z     vdW  Elec       q    Type
REMARK                         _______ _______ _______ _____ _____    ______ ____
ROOT
ATOM      1  C   UNL     1       1.378   8.447  20.170  0.00  0.00    +0.000 A 
ATOM      2  C   UNL     1       1.759   9.123  19.002  0.00  0.00    +0.000 A 
ATOM      3  C   UNL     1       2.475   8.455  17.993  0.00  0.00    +0.000 A 
ATOM      4  C   UNL     1       2.771   7.108  18.215  0.00  0.00    +0.000 A 
ATOM      5  O   UNL     1       3.484   6.294  17.374  0.00  0.00    +0.000 OA
ATOM      6  C   UNL     1       3.527   5.092  17.989  0.00  0.00    +0.000 A 
ATOM      7  C   UNL     1       2.849   5.090  19.184  0.00  0.00    +0.000 A 
ATOM      8  C   UNL     1       2.375   6.408  19.358  0.00  0.00    +0.000 A 
ATOM      9  C   UNL     1       1.664   7.086  20.357  0.00  0.00    +0.000 A 
ATOM     10  C   UNL     1       2.794   3.852  20.012  0.00  0.00    +0.000 C 
ATOM     11  C   UNL     1       1.720   2.870  19.587  0.00  0.00    +0.000 C 
ATOM     12  C   UNL     1       2.522   1.843  18.783  0.00  0.00    +0.000 C 
ATOM     13  C   UNL     1       3.803   2.581  18.223  0.00  0.00    +0.000 C 
ATOM     14  C   UNL     1       4.290   3.928  17.465  0.00  0.00    +0.000 C 
ATOM     15  N   UNL     1       3.994   3.067  19.639  0.00  0.00    +0.000 NA
ATOM     16  H   UNL     1       4.831   3.637  19.750  0.00  0.00    +0.000 HD
ENDROOT
BRANCH   1  18
ATOM     17  O   UNL     1      -0.504   8.292  21.955  0.00  0.00    +0.000 OA
ATOM     18  S   UNL     1       0.436   9.263  21.429  0.00  0.00    +0.000 S 
ATOM     19  O   UNL     1       1.345   9.999  22.288  0.00  0.00    +0.000 OA
BRANCH  18  20
ATOM     20  N   UNL     1      -0.489  10.458  20.652  0.00  0.00    +0.000 N 
ATOM     21  C   UNL     1      -0.917  10.341  19.354  0.00  0.00    +0.000 A 
ATOM     22  C   UNL     1      -1.712  11.431  19.081  0.00  0.00    +0.000 A 
ATOM     23  C   UNL     1      -1.759  12.236  20.254  0.00  0.00    +0.000 A 
ATOM     24  C   UNL     1      -2.422  13.444  20.561  0.00  0.00    +0.000 A 
ATOM     25  C   UNL     1      -2.280  14.004  21.831  0.00  0.00    +0.000 A 
ATOM     26  C   UNL     1      -1.493  13.372  22.785  0.00  0.00    +0.000 A 
ATOM     27  F   UNL     1      -1.374  13.927  23.997  0.00  0.00    +0.000 F 
ATOM     28  C   UNL     1      -0.829  12.171  22.518  0.00  0.00    +0.000 A 
ATOM     29  C   UNL     1      -0.973  11.613  21.236  0.00  0.00    +0.000 A 
ENDBRANCH  18  20
ENDBRANCH   1  18
TORSDOF 2
ENDMDL
MODEL 7
REMARK VINA RESULT:      -8.4      1.052      1.234
REMARK  Name = 
REMARK  2 active torsions:
REMARK  status: ('A' for Active; 'I' for Inactive)
REMARK    1  A    between atoms: S_2  and  C_4
REMARK    2  A    between atoms: S_2  and  N_19
REMARK                            x       y       z     vdW  Elec       q    Type
REMARK                         _______ _______ _______ _____ _____    ______ ____
ROOT
ATOM      1  C   UNL     1       1.470   8.988  19.753  0.00  0.00    +0.000 A 
ATOM      2  C   UNL     1       1.979   9.283  18.480  0.00  0.00    +0.000 A 
ATOM      3  C   UNL     1       2.624   8.290  17.723  0.00  0.00    +0.000 A 
ATOM      4  C   UNL     1       2.720   7.021  18.297  0.00  0.00    +0.000 A 
ATOM      5  O   UNL     1       3.336   5.932  17.738  0.00  0.00    +0.000 OA
ATOM      6  C   UNL     1       3.189   4.935  18.638  0.00  0.00    +0.000 A 
ATOM      7  C   UNL     1       2.481   5.330  19.747  0.00  0.00    +0.000 A 
ATOM      8  C   UNL     1       2.194   6.698  19.551  0.00  0.00    +0.000 A 
ATOM      9  C   UNL     1       1.555   7.698  20.297  0.00  0.00    +0.000 A 
ATOM     10  C   UNL     1       2.225   4.367  20.855  0.00  0.00    +0.000 C 
ATOM     11  C   UNL     1       1.038   3.455  20.622  0.00  0.00    +0.000 C 
ATOM     12  C   UNL     1       1.711   2.161  20.159  0.00  0.00    +0.000 C 
ATOM     13  C   UNL     1       3.099   2.556  19.516  0.00  0.00    +0.000 C 
ATOM     14  C   UNL     1       3.796   3.587  18.477  0.00  0.00    +0.000 C 
ATOM     15  N   UNL     1       3.314   3.365  20.773  0.00  0.00    +0.000 NA
ATOM     16  H   UNL     1       4.219   3.831  20.791  0.00  0.00    +0.000 HD
ENDROOT
BRANCH   1  18
ATOM     17  O   UNL     1      -0.432   9.536  21.436  0.00  0.00    +0.000 OA
ATOM     18  S   UNL     1       0.615  10.217  20.701  0.00  0.00    +0.000 S 
ATOM     19  O   UNL     1       1.593  11.064  21.358  0.00  0.00    +0.000 OA
BRANCH  18  20
ATOM     20  N   UNL     1      -0.164  11.239  19.588  0.00  0.00    +0.000 N 
ATOM     21  C   UNL     1       0.273  12.509  19.311  0.00  0.00    +0.000 A 
ATOM     22  C   UNL     1      -0.523  13.011  18.307  0.00  0.00    +0.000 A 
ATOM     23  C   UNL     1      -1.478  12.010  17.971  0.00  0.00    +0.000 A 
ATOM     24  C   UNL     1      -2.517  11.959  17.018  0.00  0.00    +0.000 A 
ATOM     25  C   UNL     1      -3.302  10.810  16.915  0.00  0.00    +0.000 A 
ATOM     26  C   UNL     1      -3.055   9.724  17.746  0.00  0.00    +0.000 A 
ATOM     27  F   UNL     1      -3.820   8.631  17.627  0.00  0.00    +0.000 F 
ATOM     28  C   UNL     1      -2.029   9.737  18.696  0.00  0.00    +0.000 A 
ATOM     29  C   UNL     1      -1.244  10.899  18.797  0.00  0.00    +0.000 A 
ENDBRANCH  18  20
ENDBRANCH   1  18
TORSDOF 2
ENDMDL
MODEL 8
REMARK VINA RESULT:      -8.3      2.226      2.604
REMARK  Name = 
REMARK  2 active torsions:
REMARK  status: ('A' for Active; 'I' for Inactive)
REMARK    1  A    between atoms: S_2  and  C_4
REMARK    2  A    between atoms: S_2  and  N_19
REMARK                            x       y       z     vdW  Elec       q    Type
REMARK                         _______ _______ _______ _____ _____    ______ ____
ROOT
ATOM      1  C   UNL     1       1.348   9.133  19.949  0.00  0.00    +0.000 A 
ATOM      2  C   UNL     1       1.764   9.513  18.665  0.00  0.00    +0.000 A 
ATOM      3  C   UNL     1       2.366   8.579  17.805  0.00  0.00    +0.000 A 
ATOM      4  C   UNL     1       2.517   7.279  18.291  0.00  0.00    +0.000 A 
ATOM      5  O   UNL     1       3.107   6.236  17.624  0.00  0.00    +0.000 OA
ATOM      6  C   UNL     1       3.034   5.184  18.469  0.00  0.00    +0.000 A 
ATOM      7  C   UNL     1       2.400   5.499  19.646  0.00  0.00    +0.000 A 
ATOM      8  C   UNL     1       2.084   6.871  19.555  0.00  0.00    +0.000 A 
ATOM      9  C   UNL     1       1.486   7.813  20.404  0.00  0.00    +0.000 A 
ATOM     10  C   UNL     1       2.234   4.466  20.707  0.00  0.00    +0.000 C 
ATOM     11  C   UNL     1       1.044   3.550  20.500  0.00  0.00    +0.000 C 
ATOM     12  C   UNL     1       1.699   2.298  19.912  0.00  0.00    +0.000 C 
ATOM     13  C   UNL     1       3.035   2.755  19.202  0.00  0.00    +0.000 C 
ATOM     14  C   UNL     1       3.645   3.858  18.183  0.00  0.00    +0.000 C 
ATOM     15  N   UNL     1       3.326   3.488  20.489  0.00  0.00    +0.000 NA
ATOM     16  H   UNL     1       4.225   3.967  20.474  0.00  0.00    +0.000 HD
ENDROOT
BRANCH   1  18
ATOM     17  O   UNL     1       0.026   9.531  22.150  0.00  0.00    +0.000 OA
ATOM     18  S   UNL     1       0.546  10.287  21.027  0.00  0.00    +0.000 S 
ATOM     19  O   UNL     1       1.412  11.437  21.208  0.00  0.00    +0.000 OA
BRANCH  18  20
ATOM     20  N   UNL     1      -0.803  10.888  20.185  0.00  0.00    +0.000 N 
ATOM     21  C   UNL     1      -1.157  10.448  18.935  0.00  0.00    +0.000 A 
ATOM     22  C   UNL     1      -2.337  11.068  18.597  0.00  0.00    +0.000 A 
ATOM     23  C   UNL     1      -2.705  11.917  19.678  0.00  0.00    +0.000 A 
ATOM     24  C   UNL     1      -3.808  12.770  19.895  0.00  0.00    +0.000 A 
ATOM     25  C   UNL     1      -3.900  13.488  21.087  0.00  0.00    +0.000 A 
ATOM     26  C   UNL     1      -2.911  13.359  22.054  0.00  0.00    +0.000 A 
ATOM     27  F   UNL     1      -3.022  14.056  23.191  0.00  0.00    +0.000 F 
ATOM     28  C   UNL     1      -1.808  12.519  21.876  0.00  0.00    +0.000 A 
ATOM     29  C   UNL     1      -1.719  11.800  20.672  0.00  0.00    +0.000 A 
ENDBRANCH  18  20
ENDBRANCH   1  18
TORSDOF 2
ENDMDL
MODEL 9
REMARK VINA RESULT:      -8.2      2.427      3.542
REMARK  Name = 
REMARK  2 active torsions:
REMARK  status: ('A' for Active; 'I' for Inactive)
REMARK    1  A    between atoms: S_2  and  C_4
REMARK    2  A    between atoms: S_2  and  N_19
REMARK                            x       y       z     vdW  Elec       q    Type
REMARK                         _______ _______ _______ _____ _____    ______ ____
ROOT
ATOM      1  C   UNL     1       1.468   8.959  19.483  0.00  0.00    +0.000 A 
ATOM      2  C   UNL     1       1.034   8.145  20.540  0.00  0.00    +0.000 A 
ATOM      3  C   UNL     1       1.517   6.832  20.671  0.00  0.00    +0.000 A 
ATOM      4  C   UNL     1       2.436   6.398  19.714  0.00  0.00    +0.000 A 
ATOM      5  O   UNL     1       2.996   5.148  19.648  0.00  0.00    +0.000 OA
ATOM      6  C   UNL     1       3.813   5.178  18.572  0.00  0.00    +0.000 A 
ATOM      7  C   UNL     1       3.821   6.405  17.953  0.00  0.00    +0.000 A 
ATOM      8  C   UNL     1       2.904   7.202  18.671  0.00  0.00    +0.000 A 
ATOM      9  C   UNL     1       2.413   8.509  18.550  0.00  0.00    +0.000 A 
ATOM     10  C   UNL     1       4.656   6.626  16.739  0.00  0.00    +0.000 C 
ATOM     11  C   UNL     1       6.107   6.948  17.036  0.00  0.00    +0.000 C 
ATOM     12  C   UNL     1       6.792   5.600  16.799  0.00  0.00    +0.000 C 
ATOM     13  C   UNL     1       5.710   4.474  17.041  0.00  0.00    +0.000 C 
ATOM     14  C   UNL     1       4.556   3.991  18.071  0.00  0.00    +0.000 C 
ATOM     15  N   UNL     1       4.831   5.289  16.124  0.00  0.00    +0.000 NA
ATOM     16  H   UNL     1       3.922   4.858  15.963  0.00  0.00    +0.000 HD
ENDROOT
BRANCH   1  18
ATOM     17  O   UNL     1       0.668  11.126  20.672  0.00  0.00    +0.000 OA
ATOM     18  S   UNL     1       0.903  10.632  19.330  0.00  0.00    +0.000 S 
ATOM     19  O   UNL     1       1.762  11.330  18.391  0.00  0.00    +0.000 OA
BRANCH  18  20
ATOM     20  N   UNL     1      -0.614  10.568  18.566  0.00  0.00    +0.000 N 
ATOM     21  C   UNL     1      -0.878   9.743  17.503  0.00  0.00    +0.000 A 
ATOM     22  C   UNL     1      -2.213   9.875  17.199  0.00  0.00    +0.000 A 
ATOM     23  C   UNL     1      -2.772  10.818  18.106  0.00  0.00    +0.000 A 
ATOM     24  C   UNL     1      -4.078  11.327  18.277  0.00  0.00    +0.000 A 
ATOM     25  C   UNL     1      -4.328  12.260  19.283  0.00  0.00    +0.000 A 
ATOM     26  C   UNL     1      -3.296  12.681  20.112  0.00  0.00    +0.000 A 
ATOM     27  F   UNL     1      -3.560  13.576  21.072  0.00  0.00    +0.000 F 
ATOM     28  C   UNL     1      -1.992  12.194  19.977  0.00  0.00    +0.000 A 
ATOM     29  C   UNL     1      -1.746  11.256  18.959  0.00  0.00    +0.000 A 
ENDBRANCH  18  20
ENDBRANCH   1  18
TORSDOF 2
ENDMDL
