MODEL 1
REMARK VINA RESULT:      -6.4      0.000      0.000
REMARK  Name = 
REMARK  7 active torsions:
REMARK  status: ('A' for Active; 'I' for Inactive)
REMARK    1  A    between atoms: C_1  and  C_2
REMARK    2  A    between atoms: C_2  and  C_3
REMARK    3  A    between atoms: C_2  and  C_4
REMARK    4  A    between atoms: C_4  and  N_5
REMARK    5  A    between atoms: N_8  and  C_9
REMARK    6  A    between atoms: N_13  and  C_14
REMARK    7  A    between atoms: C_14  and  C_15
REMARK                            x       y       z     vdW  Elec       q    Type
REMARK                         _______ _______ _______ _____ _____    ______ ____
ROOT
ATOM      1  N   UNL     1       2.696   2.496  18.768  0.00  0.00    +0.000 N 
ATOM      2  C   UNL     1       3.928   1.986  19.348  0.00  0.00    +0.000 C 
ATOM      3  C   UNL     1       4.955   3.092  19.635  0.00  0.00    +0.000 C 
ATOM      4  N   UNL     1       5.107   3.975  18.470  0.00  0.00    +0.000 NA
ATOM      5  C   UNL     1       6.277   4.827  18.604  0.00  0.00    +0.000 C 
ATOM      6  C   UNL     1       3.810   4.617  18.065  0.00  0.00    +0.000 C 
ATOM      7  C   UNL     1       3.056   5.433  19.161  0.00  0.00    +0.000 C 
ATOM      8  C   UNL     1       3.547   6.856  19.356  0.00  0.00    +0.000 C 
ATOM      9  N   UNL     1       3.564   7.646  18.121  0.00  0.00    +0.000 NA
ATOM     10  C   UNL     1       4.364   6.964  17.094  0.00  0.00    +0.000 C 
ATOM     11  C   UNL     1       3.943   5.516  16.802  0.00  0.00    +0.000 C 
ATOM     12  C   UNL     1       2.768   3.467  17.762  0.00  0.00    +0.000 C 
ATOM     13  O   UNL     1       1.908   3.561  16.887  0.00  0.00    +0.000 OA
ENDROOT
BRANCH   1  14
ATOM     14  C   UNL     1       1.401   2.093  19.297  0.00  0.00    +0.000 C 
BRANCH  14  16
ATOM     15  C   UNL     1       1.940   2.550  21.683  0.00  0.00    +0.000 C 
ATOM     16  C   UNL     1       0.909   2.794  20.571  0.00  0.00    +0.000 C 
ATOM     17  C   UNL     1       0.727   4.299  20.387  0.00  0.00    +0.000 C 
ENDBRANCH  14  16
ENDBRANCH   1  14
BRANCH   9  18
ATOM     18  C   UNL     1       2.228   8.013  17.617  0.00  0.00    +0.000 C 
BRANCH  18  19
ATOM     19  C   UNL     1       1.743   9.264  18.299  0.00  0.00    +0.000 A 
ATOM     20  C   UNL     1       0.818   9.300  19.400  0.00  0.00    +0.000 A 
ATOM     21  C   UNL     1       0.487  10.582  19.776  0.00  0.00    +0.000 A 
ATOM     22  S   UNL     1       1.314  11.753  18.850  0.00  0.00    +0.000 S 
ATOM     23  C   UNL     1       2.106  10.549  17.933  0.00  0.00    +0.000 A 
ENDBRANCH  18  19
ENDBRANCH   9  18
TORSDOF 4
ENDMDL
MODEL 2
REMARK VINA RESULT:      -6.3      3.406      5.799
REMARK  Name = 
REMARK  7 active torsions:
REMARK  status: ('A' for Active; 'I' for Inactive)
REMARK    1  A    between atoms: C_1  and  C_2
REMARK    2  A    between atoms: C_2  and  C_3
REMARK    3  A    between atoms: C_2  and  C_4
REMARK    4  A    between atoms: C_4  and  N_5
REMARK    5  A    between atoms: N_8  and  C_9
REMARK    6  A    between atoms: N_13  and  C_14
REMARK    7  A    between atoms: C_14  and  C_15
REMARK                            x       y       z     vdW  Elec       q    Type
REMARK                         _______ _______ _______ _____ _____    ______ ____
ROOT
ATOM      1  N   UNL     1       2.015   6.402  19.913  0.00  0.00    +0.000 N 
ATOM      2  C   UNL     1       1.799   5.444  20.984  0.00  0.00    +0.000 C 
ATOM      3  C   UNL     1       2.784   4.266  20.940  0.00  0.00    +0.000 C 
ATOM      4  N   UNL     1       2.867   3.710  19.582  0.00  0.00    +0.000 NA
ATOM      5  C   UNL     1       3.545   2.424  19.580  0.00  0.00    +0.000 C 
ATOM      6  C   UNL     1       3.296   4.733  18.568  0.00  0.00    +0.000 C 
ATOM      7  C   UNL     1       4.642   5.473  18.842  0.00  0.00    +0.000 C 
ATOM      8  C   UNL     1       5.888   4.720  18.414  0.00  0.00    +0.000 C 
ATOM      9  N   UNL     1       5.868   4.301  17.009  0.00  0.00    +0.000 NA
ATOM     10  C   UNL     1       4.667   3.499  16.737  0.00  0.00    +0.000 C 
ATOM     11  C   UNL     1       3.340   4.173  17.118  0.00  0.00    +0.000 C 
ATOM     12  C   UNL     1       2.266   5.932  18.619  0.00  0.00    +0.000 C 
ATOM     13  O   UNL     1       1.942   6.574  17.620  0.00  0.00    +0.000 OA
ENDROOT
BRANCH   1  14
ATOM     14  C   UNL     1       2.086   7.829  20.194  0.00  0.00    +0.000 C 
BRANCH  14  16
ATOM     15  C   UNL     1       1.297   9.017  22.233  0.00  0.00    +0.000 C 
ATOM     16  C   UNL     1       0.865   8.479  20.862  0.00  0.00    +0.000 C 
ATOM     17  C   UNL     1       0.283   9.629  20.041  0.00  0.00    +0.000 C 
ENDBRANCH  14  16
ENDBRANCH   1  14
BRANCH   9  18
ATOM     18  C   UNL     1       6.017   5.405  16.044  0.00  0.00    +0.000 C 
BRANCH  18  19
ATOM     19  C   UNL     1       6.370   4.863  14.684  0.00  0.00    +0.000 A 
ATOM     20  C   UNL     1       7.524   5.246  13.916  0.00  0.00    +0.000 A 
ATOM     21  C   UNL     1       7.558   4.652  12.674  0.00  0.00    +0.000 A 
ATOM     22  S   UNL     1       6.239   3.595  12.436  0.00  0.00    +0.000 S 
ATOM     23  C   UNL     1       5.610   3.941  13.986  0.00  0.00    +0.000 A 
ENDBRANCH  18  19
ENDBRANCH   9  18
TORSDOF 4
ENDMDL
MODEL 3
REMARK VINA RESULT:      -6.3      7.001      9.595
REMARK  Name = 
REMARK  7 active torsions:
REMARK  status: ('A' for Active; 'I' for Inactive)
REMARK    1  A    between atoms: C_1  and  C_2
REMARK    2  A    between atoms: C_2  and  C_3
REMARK    3  A    between atoms: C_2  and  C_4
REMARK    4  A    between atoms: C_4  and  N_5
REMARK    5  A    between atoms: N_8  and  C_9
REMARK    6  A    between atoms: N_13  and  C_14
REMARK    7  A    between atoms: C_14  and  C_15
REMARK                            x       y       z     vdW  Elec       q    Type
REMARK                         _______ _______ _______ _____ _____    ______ ____
ROOT
ATOM      1  N   UNL     1      -1.504  13.561  23.280  0.00  0.00    +0.000 N 
ATOM      2  C   UNL     1      -0.598  14.693  23.376  0.00  0.00    +0.000 C 
ATOM      3  C   UNL     1       0.279  14.863  22.126  0.00  0.00    +0.000 C 
ATOM      4  N   UNL     1       0.886  13.581  21.740  0.00  0.00    +0.000 NA
ATOM      5  C   UNL     1       1.945  13.773  20.763  0.00  0.00    +0.000 C 
ATOM      6  C   UNL     1      -0.143  12.520  21.464  0.00  0.00    +0.000 C 
ATOM      7  C   UNL     1      -1.228  12.855  20.393  0.00  0.00    +0.000 C 
ATOM      8  C   UNL     1      -0.802  12.629  18.954  0.00  0.00    +0.000 C 
ATOM      9  N   UNL     1      -0.297  11.277  18.695  0.00  0.00    +0.000 NA
ATOM     10  C   UNL     1       0.809  10.965  19.612  0.00  0.00    +0.000 C 
ATOM     11  C   UNL     1       0.483  11.143  21.102  0.00  0.00    +0.000 C 
ATOM     12  C   UNL     1      -1.030  12.350  22.762  0.00  0.00    +0.000 C 
ATOM     13  O   UNL     1      -1.494  11.266  23.113  0.00  0.00    +0.000 OA
ENDROOT
BRANCH   1  14
ATOM     14  C   UNL     1      -2.916  13.707  23.609  0.00  0.00    +0.000 C 
BRANCH  14  16
ATOM     15  C   UNL     1      -4.667  12.840  22.068  0.00  0.00    +0.000 C 
ATOM     16  C   UNL     1      -3.871  14.090  22.469  0.00  0.00    +0.000 C 
ATOM     17  C   UNL     1      -4.850  15.194  22.862  0.00  0.00    +0.000 C 
ENDBRANCH  14  16
ENDBRANCH   1  14
BRANCH   9  18
ATOM     18  C   UNL     1      -1.334  10.229  18.714  0.00  0.00    +0.000 C 
BRANCH  18  19
ATOM     19  C   UNL     1      -2.431  10.566  17.739  0.00  0.00    +0.000 A 
ATOM     20  C   UNL     1      -2.325  10.467  16.309  0.00  0.00    +0.000 A 
ATOM     21  C   UNL     1      -3.452  10.915  15.658  0.00  0.00    +0.000 A 
ATOM     22  S   UNL     1      -4.665  11.410  16.752  0.00  0.00    +0.000 S 
ATOM     23  C   UNL     1      -3.680  11.043  18.098  0.00  0.00    +0.000 A 
ENDBRANCH  18  19
ENDBRANCH   9  18
TORSDOF 4
ENDMDL
MODEL 4
REMARK VINA RESULT:      -6.3      3.683      5.700
REMARK  Name = 
REMARK  7 active torsions:
REMARK  status: ('A' for Active; 'I' for Inactive)
REMARK    1  A    between atoms: C_1  and  C_2
REMARK    2  A    between atoms: C_2  and  C_3
REMARK    3  A    between atoms: C_2  and  C_4
REMARK    4  A    between atoms: C_4  and  N_5
REMARK    5  A    between atoms: N_8  and  C_9
REMARK    6  A    between atoms: N_13  and  C_14
REMARK    7  A    between atoms: C_14  and  C_15
REMARK                            x       y       z     vdW  Elec       q    Type
REMARK                         _______ _______ _______ _____ _____    ______ ____
ROOT
ATOM      1  N   UNL     1       3.461   3.899  19.711  0.00  0.00    +0.000 N 
ATOM      2  C   UNL     1       2.316   4.755  19.974  0.00  0.00    +0.000 C 
ATOM      3  C   UNL     1       2.210   5.930  18.992  0.00  0.00    +0.000 C 
ATOM      4  N   UNL     1       3.506   6.610  18.854  0.00  0.00    +0.000 NA
ATOM      5  C   UNL     1       3.361   7.890  18.181  0.00  0.00    +0.000 C 
ATOM      6  C   UNL     1       4.592   5.684  18.381  0.00  0.00    +0.000 C 
ATOM      7  C   UNL     1       4.331   4.920  17.045  0.00  0.00    +0.000 C 
ATOM      8  C   UNL     1       4.636   5.709  15.784  0.00  0.00    +0.000 C 
ATOM      9  N   UNL     1       5.996   6.256  15.747  0.00  0.00    +0.000 NA
ATOM     10  C   UNL     1       6.243   7.080  16.938  0.00  0.00    +0.000 C 
ATOM     11  C   UNL     1       5.981   6.375  18.278  0.00  0.00    +0.000 C 
ATOM     12  C   UNL     1       4.695   4.486  19.408  0.00  0.00    +0.000 C 
ATOM     13  O   UNL     1       5.761   3.940  19.688  0.00  0.00    +0.000 OA
ENDROOT
BRANCH   1  14
ATOM     14  C   UNL     1       3.310   2.452  19.648  0.00  0.00    +0.000 C 
BRANCH  14  16
ATOM     15  C   UNL     1       0.901   2.299  19.043  0.00  0.00    +0.000 C 
ATOM     16  C   UNL     1       2.318   1.888  18.620  0.00  0.00    +0.000 C 
ATOM     17  C   UNL     1       2.578   2.399  17.204  0.00  0.00    +0.000 C 
ENDBRANCH  14  16
ENDBRANCH   1  14
BRANCH   9  18
ATOM     18  C   UNL     1       7.051   5.245  15.555  0.00  0.00    +0.000 C 
BRANCH  18  19
ATOM     19  C   UNL     1       6.945   4.638  14.180  0.00  0.00    +0.000 A 
ATOM     20  C   UNL     1       7.676   5.080  13.023  0.00  0.00    +0.000 A 
ATOM     21  C   UNL     1       7.326   4.398  11.880  0.00  0.00    +0.000 A 
ATOM     22  S   UNL     1       6.157   3.193  12.188  0.00  0.00    +0.000 S 
ATOM     23  C   UNL     1       6.104   3.590  13.848  0.00  0.00    +0.000 A 
ENDBRANCH  18  19
ENDBRANCH   9  18
TORSDOF 4
ENDMDL
MODEL 5
REMARK VINA RESULT:      -6.2      2.211      4.409
REMARK  Name = 
REMARK  7 active torsions:
REMARK  status: ('A' for Active; 'I' for Inactive)
REMARK    1  A    between atoms: C_1  and  C_2
REMARK    2  A    between atoms: C_2  and  C_3
REMARK    3  A    between atoms: C_2  and  C_4
REMARK    4  A    between atoms: C_4  and  N_5
REMARK    5  A    between atoms: N_8  and  C_9
REMARK    6  A    between atoms: N_13  and  C_14
REMARK    7  A    between atoms: C_14  and  C_15
REMARK                            x       y       z     vdW  Elec       q    Type
REMARK                         _______ _______ _______ _____ _____    ______ ____
ROOT
ATOM      1  N   UNL     1       6.369   4.643  17.680  0.00  0.00    +0.000 N 
ATOM      2  C   UNL     1       6.081   3.762  16.560  0.00  0.00    +0.000 C 
ATOM      3  C   UNL     1       4.576   3.550  16.338  0.00  0.00    +0.000 C 
ATOM      4  N   UNL     1       3.906   3.223  17.604  0.00  0.00    +0.000 NA
ATOM      5  C   UNL     1       2.560   2.723  17.375  0.00  0.00    +0.000 C 
ATOM      6  C   UNL     1       4.092   4.293  18.644  0.00  0.00    +0.000 C 
ATOM      7  C   UNL     1       3.652   5.738  18.253  0.00  0.00    +0.000 C 
ATOM      8  C   UNL     1       2.170   6.024  18.414  0.00  0.00    +0.000 C 
ATOM      9  N   UNL     1       1.657   5.731  19.756  0.00  0.00    +0.000 NA
ATOM     10  C   UNL     1       1.952   4.338  20.118  0.00  0.00    +0.000 C 
ATOM     11  C   UNL     1       3.431   3.940  20.007  0.00  0.00    +0.000 C 
ATOM     12  C   UNL     1       5.645   4.491  18.869  0.00  0.00    +0.000 C 
ATOM     13  O   UNL     1       6.128   4.773  19.965  0.00  0.00    +0.000 OA
ENDROOT
BRANCH   1  14
ATOM     14  C   UNL     1       7.313   5.742  17.539  0.00  0.00    +0.000 C 
BRANCH  14  16
ATOM     15  C   UNL     1       7.929   8.153  17.579  0.00  0.00    +0.000 C 
ATOM     16  C   UNL     1       6.751   7.169  17.604  0.00  0.00    +0.000 C 
ATOM     17  C   UNL     1       5.814   7.491  16.441  0.00  0.00    +0.000 C 
ENDBRANCH  14  16
ENDBRANCH   1  14
BRANCH   9  18
ATOM     18  C   UNL     1       2.109   6.673  20.797  0.00  0.00    +0.000 C 
BRANCH  18  19
ATOM     19  C   UNL     1       1.331   7.959  20.707  0.00  0.00    +0.000 A 
ATOM     20  C   UNL     1       0.286   8.357  21.610  0.00  0.00    +0.000 A 
ATOM     21  C   UNL     1      -0.309   9.544  21.247  0.00  0.00    +0.000 A 
ATOM     22  S   UNL     1       0.408  10.216  19.851  0.00  0.00    +0.000 S 
ATOM     23  C   UNL     1       1.505   8.914  19.720  0.00  0.00    +0.000 A 
ENDBRANCH  18  19
ENDBRANCH   9  18
TORSDOF 4
ENDMDL
MODEL 6
REMARK VINA RESULT:      -6.1      2.150      4.235
REMARK  Name = 
REMARK  7 active torsions:
REMARK  status: ('A' for Active; 'I' for Inactive)
REMARK    1  A    between atoms: C_1  and  C_2
REMARK    2  A    between atoms: C_2  and  C_3
REMARK    3  A    between atoms: C_2  and  C_4
REMARK    4  A    between atoms: C_4  and  N_5
REMARK    5  A    between atoms: N_8  and  C_9
REMARK    6  A    between atoms: N_13  and  C_14
REMARK    7  A    between atoms: C_14  and  C_15
REMARK                            x       y       z     vdW  Elec       q    Type
REMARK                         _______ _______ _______ _____ _____    ______ ____
ROOT
ATOM      1  N   UNL     1       5.140   3.681  17.751  0.00  0.00    +0.000 N 
ATOM      2  C   UNL     1       4.475   2.490  17.247  0.00  0.00    +0.000 C 
ATOM      3  C   UNL     1       2.955   2.520  17.459  0.00  0.00    +0.000 C 
ATOM      4  N   UNL     1       2.631   2.903  18.840  0.00  0.00    +0.000 NA
ATOM      5  C   UNL     1       1.234   2.643  19.146  0.00  0.00    +0.000 C 
ATOM      6  C   UNL     1       3.194   4.248  19.209  0.00  0.00    +0.000 C 
ATOM      7  C   UNL     1       2.798   5.450  18.295  0.00  0.00    +0.000 C 
ATOM      8  C   UNL     1       1.451   6.076  18.605  0.00  0.00    +0.000 C 
ATOM      9  N   UNL     1       1.302   6.489  20.004  0.00  0.00    +0.000 NA
ATOM     10  C   UNL     1       1.554   5.350  20.897  0.00  0.00    +0.000 C 
ATOM     11  C   UNL     1       2.903   4.647  20.684  0.00  0.00    +0.000 C 
ATOM     12  C   UNL     1       4.760   4.197  18.995  0.00  0.00    +0.000 C 
ATOM     13  O   UNL     1       5.549   4.808  19.714  0.00  0.00    +0.000 OA
ENDROOT
BRANCH   1  14
ATOM     14  C   UNL     1       6.107   4.397  16.931  0.00  0.00    +0.000 C 
BRANCH  14  16
ATOM     15  C   UNL     1       5.245   6.360  15.668  0.00  0.00    +0.000 C 
ATOM     16  C   UNL     1       5.642   4.882  15.551  0.00  0.00    +0.000 C 
ATOM     17  C   UNL     1       6.721   4.743  14.479  0.00  0.00    +0.000 C 
ENDBRANCH  14  16
ENDBRANCH   1  14
BRANCH   9  18
ATOM     18  C   UNL     1       2.107   7.666  20.378  0.00  0.00    +0.000 C 
BRANCH  18  19
ATOM     19  C   UNL     1       1.211   8.778  20.855  0.00  0.00    +0.000 A 
ATOM     20  C   UNL     1       0.838   9.010  22.224  0.00  0.00    +0.000 A 
ATOM     21  C   UNL     1      -0.054  10.048  22.366  0.00  0.00    +0.000 A 
ATOM     22  S   UNL     1      -0.416  10.786  20.870  0.00  0.00    +0.000 S 
ATOM     23  C   UNL     1       0.607   9.709  20.027  0.00  0.00    +0.000 A 
ENDBRANCH  18  19
ENDBRANCH   9  18
TORSDOF 4
ENDMDL
MODEL 7
REMARK VINA RESULT:      -6.1      6.879      9.703
REMARK  Name = 
REMARK  7 active torsions:
REMARK  status: ('A' for Active; 'I' for Inactive)
REMARK    1  A    between atoms: C_1  and  C_2
REMARK    2  A    between atoms: C_2  and  C_3
REMARK    3  A    between atoms: C_2  and  C_4
REMARK    4  A    between atoms: C_4  and  N_5
REMARK    5  A    between atoms: N_8  and  C_9
REMARK    6  A    between atoms: N_13  and  C_14
REMARK    7  A    between atoms: C_14  and  C_15
REMARK                            x       y       z     vdW  Elec       q    Type
REMARK                         _______ _______ _______ _____ _____    ______ ____
ROOT
ATOM      1  N   UNL     1      -1.083  14.183  22.824  0.00  0.00    +0.000 N 
ATOM      2  C   UNL     1       0.027  15.121  22.811  0.00  0.00    +0.000 C 
ATOM      3  C   UNL     1       0.952  14.934  21.600  0.00  0.00    +0.000 C 
ATOM      4  N   UNL     1       1.302  13.517  21.427  0.00  0.00    +0.000 NA
ATOM      5  C   UNL     1       2.403  13.356  20.492  0.00  0.00    +0.000 C 
ATOM      6  C   UNL     1       0.090  12.646  21.246  0.00  0.00    +0.000 C 
ATOM      7  C   UNL     1      -0.879  13.023  20.082  0.00  0.00    +0.000 C 
ATOM      8  C   UNL     1      -0.469  12.511  18.713  0.00  0.00    +0.000 C 
ATOM      9  N   UNL     1      -0.237  11.064  18.671  0.00  0.00    +0.000 NA
ATOM     10  C   UNL     1       0.761  10.682  19.680  0.00  0.00    +0.000 C 
ATOM     11  C   UNL     1       0.439  11.136  21.112  0.00  0.00    +0.000 C 
ATOM     12  C   UNL     1      -0.846  12.841  22.505  0.00  0.00    +0.000 C 
ATOM     13  O   UNL     1      -1.525  11.930  22.978  0.00  0.00    +0.000 OA
ENDROOT
BRANCH   1  14
ATOM     14  C   UNL     1      -2.446  14.645  23.053  0.00  0.00    +0.000 C 
BRANCH  14  16
ATOM     15  C   UNL     1      -3.716  15.896  24.789  0.00  0.00    +0.000 C 
ATOM     16  C   UNL     1      -2.981  14.581  24.491  0.00  0.00    +0.000 C 
ATOM     17  C   UNL     1      -3.943  13.416  24.714  0.00  0.00    +0.000 C 
ENDBRANCH  14  16
ENDBRANCH   1  14
BRANCH   9  18
ATOM     18  C   UNL     1      -1.461  10.250  18.779  0.00  0.00    +0.000 C 
BRANCH  18  19
ATOM     19  C   UNL     1      -2.387  10.551  17.631  0.00  0.00    +0.000 A 
ATOM     20  C   UNL     1      -3.616  11.290  17.732  0.00  0.00    +0.000 A 
ATOM     21  C   UNL     1      -4.303  11.348  16.540  0.00  0.00    +0.000 A 
ATOM     22  S   UNL     1      -3.462  10.561  15.280  0.00  0.00    +0.000 S 
ATOM     23  C   UNL     1      -2.185  10.128  16.328  0.00  0.00    +0.000 A 
ENDBRANCH  18  19
ENDBRANCH   9  18
TORSDOF 4
ENDMDL
MODEL 8
REMARK VINA RESULT:      -6.1      3.228      5.370
REMARK  Name = 
REMARK  7 active torsions:
REMARK  status: ('A' for Active; 'I' for Inactive)
REMARK    1  A    between atoms: C_1  and  C_2
REMARK    2  A    between atoms: C_2  and  C_3
REMARK    3  A    between atoms: C_2  and  C_4
REMARK    4  A    between atoms: C_4  and  N_5
REMARK    5  A    between atoms: N_8  and  C_9
REMARK    6  A    between atoms: N_13  and  C_14
REMARK    7  A    between atoms: C_14  and  C_15
REMARK                            x       y       z     vdW  Elec       q    Type
REMARK                         _______ _______ _______ _____ _____    ______ ____
ROOT
ATOM      1  N   UNL     1       1.449   4.683  20.068  0.00  0.00    +0.000 N 
ATOM      2  C   UNL     1       1.683   3.799  21.198  0.00  0.00    +0.000 C 
ATOM      3  C   UNL     1       3.087   3.176  21.188  0.00  0.00    +0.000 C 
ATOM      4  N   UNL     1       3.401   2.626  19.862  0.00  0.00    +0.000 NA
ATOM      5  C   UNL     1       4.578   1.773  19.911  0.00  0.00    +0.000 C 
ATOM      6  C   UNL     1       3.329   3.666  18.779  0.00  0.00    +0.000 C 
ATOM      7  C   UNL     1       4.211   4.939  18.967  0.00  0.00    +0.000 C 
ATOM      8  C   UNL     1       5.660   4.786  18.541  0.00  0.00    +0.000 C 
ATOM      9  N   UNL     1       5.822   4.311  17.163  0.00  0.00    +0.000 NA
ATOM     10  C   UNL     1       5.097   3.046  16.977  0.00  0.00    +0.000 C 
ATOM     11  C   UNL     1       3.610   3.090  17.361  0.00  0.00    +0.000 C 
ATOM     12  C   UNL     1       1.876   4.289  18.795  0.00  0.00    +0.000 C 
ATOM     13  O   UNL     1       1.298   4.656  17.773  0.00  0.00    +0.000 OA
ENDROOT
BRANCH   1  14
ATOM     14  C   UNL     1       0.883   6.010  20.266  0.00  0.00    +0.000 C 
BRANCH  14  16
ATOM     15  C   UNL     1       2.153   7.811  19.110  0.00  0.00    +0.000 C 
ATOM     16  C   UNL     1       1.864   7.173  20.476  0.00  0.00    +0.000 C 
ATOM     17  C   UNL     1       1.319   8.245  21.418  0.00  0.00    +0.000 C 
ENDBRANCH  14  16
ENDBRANCH   1  14
BRANCH   9  18
ATOM     18  C   UNL     1       5.463   5.303  16.134  0.00  0.00    +0.000 C 
BRANCH  18  19
ATOM     19  C   UNL     1       5.980   4.865  14.789  0.00  0.00    +0.000 A 
ATOM     20  C   UNL     1       5.272   4.019  13.867  0.00  0.00    +0.000 A 
ATOM     21  C   UNL     1       6.012   3.713  12.747  0.00  0.00    +0.000 A 
ATOM     22  S   UNL     1       7.540   4.474  12.765  0.00  0.00    +0.000 S 
ATOM     23  C   UNL     1       7.222   5.201  14.278  0.00  0.00    +0.000 A 
ENDBRANCH  18  19
ENDBRANCH   9  18
TORSDOF 4
ENDMDL
MODEL 9
REMARK VINA RESULT:      -6.1      4.261      6.110
REMARK  Name = 
REMARK  7 active torsions:
REMARK  status: ('A' for Active; 'I' for Inactive)
REMARK    1  A    between atoms: C_1  and  C_2
REMARK    2  A    between atoms: C_2  and  C_3
REMARK    3  A    between atoms: C_2  and  C_4
REMARK    4  A    between atoms: C_4  and  N_5
REMARK    5  A    between atoms: N_8  and  C_9
REMARK    6  A    between atoms: N_13  and  C_14
REMARK    7  A    between atoms: C_14  and  C_15
REMARK                            x       y       z     vdW  Elec       q    Type
REMARK                         _______ _______ _______ _____ _____    ______ ____
ROOT
ATOM      1  N   UNL     1       3.361   4.289  18.864  0.00  0.00    +0.000 N 
ATOM      2  C   UNL     1       4.211   4.839  19.907  0.00  0.00    +0.000 C 
ATOM      3  C   UNL     1       5.496   5.474  19.356  0.00  0.00    +0.000 C 
ATOM      4  N   UNL     1       6.151   4.573  18.398  0.00  0.00    +0.000 NA
ATOM      5  C   UNL     1       7.505   5.012  18.102  0.00  0.00    +0.000 C 
ATOM      6  C   UNL     1       5.258   4.217  17.242  0.00  0.00    +0.000 C 
ATOM      7  C   UNL     1       4.664   5.404  16.421  0.00  0.00    +0.000 C 
ATOM      8  C   UNL     1       5.587   5.977  15.361  0.00  0.00    +0.000 C 
ATOM      9  N   UNL     1       6.097   4.973  14.421  0.00  0.00    +0.000 NA
ATOM     10  C   UNL     1       6.769   3.890  15.153  0.00  0.00    +0.000 C 
ATOM     11  C   UNL     1       5.919   3.223  16.245  0.00  0.00    +0.000 C 
ATOM     12  C   UNL     1       3.946   3.555  17.825  0.00  0.00    +0.000 C 
ATOM     13  O   UNL     1       3.342   2.653  17.245  0.00  0.00    +0.000 OA
ENDROOT
BRANCH   1  14
ATOM     14  C   UNL     1       1.936   4.587  18.830  0.00  0.00    +0.000 C 
BRANCH  14  16
ATOM     15  C   UNL     1       0.595   2.494  18.960  0.00  0.00    +0.000 C 
ATOM     16  C   UNL     1       1.017   3.752  19.733  0.00  0.00    +0.000 C 
ATOM     17  C   UNL     1       1.693   3.327  21.036  0.00  0.00    +0.000 C 
ENDBRANCH  14  16
ENDBRANCH   1  14
BRANCH   9  18
ATOM     18  C   UNL     1       5.088   4.453  13.482  0.00  0.00    +0.000 C 
BRANCH  18  19
ATOM     19  C   UNL     1       5.729   3.504  12.504  0.00  0.00    +0.000 A 
ATOM     20  C   UNL     1       5.074   2.378  11.895  0.00  0.00    +0.000 A 
ATOM     21  C   UNL     1       5.919   1.635  11.102  0.00  0.00    +0.000 A 
ATOM     22  S   UNL     1       7.488   2.305  11.038  0.00  0.00    +0.000 S 
ATOM     23  C   UNL     1       7.046   3.580  12.084  0.00  0.00    +0.000 A 
ENDBRANCH  18  19
ENDBRANCH   9  18
TORSDOF 4
ENDMDL
