MODEL 1
REMARK VINA RESULT:      -6.8      0.000      0.000
REMARK  Name = 
REMARK  11 active torsions:
REMARK  status: ('A' for Active; 'I' for Inactive)
REMARK    1  A    between atoms: C_1  and  C_2
REMARK    2  A    between atoms: C_2  and  S_4
REMARK    3  A    between atoms: S_4  and  C_5
REMARK    4  A    between atoms: C_5  and  C_6
REMARK    5  A    between atoms: C_5  and  C_7
REMARK    6  A    between atoms: N_9  and  C_10
REMARK    7  A    between atoms: N_9  and  C_15
REMARK    8  A    between atoms: C_15  and  C_16
REMARK    9  A    between atoms: C_15  and  C_17
REMARK   10  A    between atoms: C_15  and  C_18
REMARK   11  A    between atoms: C_18  and  O_20
REMARK                            x       y       z     vdW  Elec       q    Type
REMARK                         _______ _______ _______ _____ _____    ______ ____
ROOT
ATOM      1  C   UNL     1       4.637   4.154  17.396  0.00  0.00    +0.000 C 
ATOM      2  O   UNL     1       4.992   2.989  17.181  0.00  0.00    +0.000 OA
ATOM      3  N   UNL     1       3.446   4.431  18.132  0.00  0.00    +0.000 N 
ENDROOT
BRANCH   3   4
ATOM      4  C   UNL     1       3.209   5.821  18.646  0.00  0.00    +0.000 C 
ATOM      5  C   UNL     1       2.422   6.827  17.801  0.00  0.00    +0.000 C 
ATOM      6  C   UNL     1       2.220   8.018  18.729  0.00  0.00    +0.000 C 
ATOM      7  C   UNL     1       2.088   7.416  20.122  0.00  0.00    +0.000 C 
ATOM      8  C   UNL     1       2.498   5.942  20.002  0.00  0.00    +0.000 C 
ENDBRANCH   3   4
BRANCH   3   9
ATOM      9  C   UNL     1       2.738   3.207  18.772  0.00  0.00    +0.000 C 
ATOM     10  C   UNL     1       1.327   3.542  19.359  0.00  0.00    +0.000 C 
ATOM     11  C   UNL     1       2.554   2.081  17.739  0.00  0.00    +0.000 C 
BRANCH   9  12
ATOM     12  C   UNL     1       3.417   2.622  20.044  0.00  0.00    +0.000 C 
ATOM     13  O   UNL     1       2.928   2.619  21.164  0.00  0.00    +0.000 OA
BRANCH  12  14
ATOM     14  O   UNL     1       4.695   2.220  19.827  0.00  0.00    +0.000 OA
ATOM     15  H   UNL     1       4.823   1.895  18.910  0.00  0.00    +0.000 HD
ENDBRANCH  12  14
ENDBRANCH   9  12
ENDBRANCH   3   9
BRANCH   1  16
ATOM     16  C   UNL     1       5.546   5.274  16.826  0.00  0.00    +0.000 C 
ATOM     17  C   UNL     1       5.423   5.290  15.292  0.00  0.00    +0.000 C 
BRANCH  16  18
ATOM     18  S   UNL     1       7.281   4.841  17.260  0.00  0.00    +0.000 S 
BRANCH  18  20
ATOM     19  C   UNL     1       8.057   7.173  18.477  0.00  0.00    +0.000 C 
ATOM     20  C   UNL     1       7.474   5.809  18.714  0.00  0.00    +0.000 C 
ATOM     21  O   UNL     1       7.182   5.376  19.821  0.00  0.00    +0.000 OA
ENDBRANCH  18  20
ENDBRANCH  16  18
ENDBRANCH   1  16
TORSDOF 7
ENDMDL
MODEL 2
REMARK VINA RESULT:      -6.7      0.885      1.142
REMARK  Name = 
REMARK  11 active torsions:
REMARK  status: ('A' for Active; 'I' for Inactive)
REMARK    1  A    between atoms: C_1  and  C_2
REMARK    2  A    between atoms: C_2  and  S_4
REMARK    3  A    between atoms: S_4  and  C_5
REMARK    4  A    between atoms: C_5  and  C_6
REMARK    5  A    between atoms: C_5  and  C_7
REMARK    6  A    between atoms: N_9  and  C_10
REMARK    7  A    between atoms: N_9  and  C_15
REMARK    8  A    between atoms: C_15  and  C_16
REMARK    9  A    between atoms: C_15  and  C_17
REMARK   10  A    between atoms: C_15  and  C_18
REMARK   11  A    between atoms: C_18  and  O_20
REMARK                            x       y       z     vdW  Elec       q    Type
REMARK                         _______ _______ _______ _____ _____    ______ ____
ROOT
ATOM      1  C   UNL     1       4.275   4.374  18.263  0.00  0.00    +0.000 C 
ATOM      2  O   UNL     1       4.607   3.188  18.161  0.00  0.00    +0.000 OA
ATOM      3  N   UNL     1       3.046   4.738  18.889  0.00  0.00    +0.000 N 
ENDROOT
BRANCH   3   4
ATOM      4  C   UNL     1       2.818   6.170  19.281  0.00  0.00    +0.000 C 
ATOM      5  C   UNL     1       2.177   7.143  18.289  0.00  0.00    +0.000 C 
ATOM      6  C   UNL     1       1.929   8.403  19.108  0.00  0.00    +0.000 C 
ATOM      7  C   UNL     1       1.616   7.906  20.513  0.00  0.00    +0.000 C 
ATOM      8  C   UNL     1       1.968   6.413  20.536  0.00  0.00    +0.000 C 
ENDBRANCH   3   4
BRANCH   3   9
ATOM      9  C   UNL     1       2.256   3.586  19.564  0.00  0.00    +0.000 C 
ATOM     10  C   UNL     1       0.874   4.036  20.144  0.00  0.00    +0.000 C 
ATOM     11  C   UNL     1       1.989   2.447  18.565  0.00  0.00    +0.000 C 
BRANCH   9  12
ATOM     12  C   UNL     1       2.896   2.991  20.852  0.00  0.00    +0.000 C 
ATOM     13  O   UNL     1       3.838   2.212  20.873  0.00  0.00    +0.000 OA
BRANCH  12  14
ATOM     14  O   UNL     1       2.217   3.314  21.982  0.00  0.00    +0.000 OA
ATOM     15  H   UNL     1       2.054   4.280  22.043  0.00  0.00    +0.000 HD
ENDBRANCH  12  14
ENDBRANCH   9  12
ENDBRANCH   3   9
BRANCH   1  16
ATOM     16  C   UNL     1       5.258   5.423  17.680  0.00  0.00    +0.000 C 
ATOM     17  C   UNL     1       4.940   5.634  16.188  0.00  0.00    +0.000 C 
BRANCH  16  18
ATOM     18  S   UNL     1       6.952   4.717  17.813  0.00  0.00    +0.000 S 
BRANCH  18  20
ATOM     19  C   UNL     1       8.097   7.100  18.543  0.00  0.00    +0.000 C 
ATOM     20  C   UNL     1       7.616   5.771  19.052  0.00  0.00    +0.000 C 
ATOM     21  O   UNL     1       7.701   5.419  20.222  0.00  0.00    +0.000 OA
ENDBRANCH  18  20
ENDBRANCH  16  18
ENDBRANCH   1  16
TORSDOF 7
ENDMDL
MODEL 3
REMARK VINA RESULT:      -6.7      1.306      1.655
REMARK  Name = 
REMARK  11 active torsions:
REMARK  status: ('A' for Active; 'I' for Inactive)
REMARK    1  A    between atoms: C_1  and  C_2
REMARK    2  A    between atoms: C_2  and  S_4
REMARK    3  A    between atoms: S_4  and  C_5
REMARK    4  A    between atoms: C_5  and  C_6
REMARK    5  A    between atoms: C_5  and  C_7
REMARK    6  A    between atoms: N_9  and  C_10
REMARK    7  A    between atoms: N_9  and  C_15
REMARK    8  A    between atoms: C_15  and  C_16
REMARK    9  A    between atoms: C_15  and  C_17
REMARK   10  A    between atoms: C_15  and  C_18
REMARK   11  A    between atoms: C_18  and  O_20
REMARK                            x       y       z     vdW  Elec       q    Type
REMARK                         _______ _______ _______ _____ _____    ______ ____
ROOT
ATOM      1  C   UNL     1       4.264   4.394  18.300  0.00  0.00    +0.000 C 
ATOM      2  O   UNL     1       4.592   3.204  18.240  0.00  0.00    +0.000 OA
ATOM      3  N   UNL     1       3.032   4.784  18.906  0.00  0.00    +0.000 N 
ENDROOT
BRANCH   3   4
ATOM      4  C   UNL     1       2.808   6.229  19.247  0.00  0.00    +0.000 C 
ATOM      5  C   UNL     1       2.129   7.158  18.237  0.00  0.00    +0.000 C 
ATOM      6  C   UNL     1       1.899   8.449  19.012  0.00  0.00    +0.000 C 
ATOM      7  C   UNL     1       1.634   8.008  20.446  0.00  0.00    +0.000 C 
ATOM      8  C   UNL     1       1.996   6.518  20.518  0.00  0.00    +0.000 C 
ENDBRANCH   3   4
BRANCH   3   9
ATOM      9  C   UNL     1       2.234   3.659  19.616  0.00  0.00    +0.000 C 
ATOM     10  C   UNL     1       3.085   2.851  20.652  0.00  0.00    +0.000 C 
ATOM     11  C   UNL     1       1.022   4.239  20.366  0.00  0.00    +0.000 C 
BRANCH   9  12
ATOM     12  C   UNL     1       1.756   2.491  18.706  0.00  0.00    +0.000 C 
ATOM     13  O   UNL     1       0.688   2.455  18.111  0.00  0.00    +0.000 OA
BRANCH  12  14
ATOM     14  O   UNL     1       2.589   1.420  18.731  0.00  0.00    +0.000 OA
ATOM     15  H   UNL     1       2.095   0.574  18.689  0.00  0.00    +0.000 HD
ENDBRANCH  12  14
ENDBRANCH   9  12
ENDBRANCH   3   9
BRANCH   1  16
ATOM     16  C   UNL     1       5.254   5.419  17.686  0.00  0.00    +0.000 C 
ATOM     17  C   UNL     1       4.930   5.597  16.192  0.00  0.00    +0.000 C 
BRANCH  16  18
ATOM     18  S   UNL     1       6.941   4.699  17.828  0.00  0.00    +0.000 S 
BRANCH  18  20
ATOM     19  C   UNL     1       8.085   7.091  18.529  0.00  0.00    +0.000 C 
ATOM     20  C   UNL     1       7.616   5.764  19.052  0.00  0.00    +0.000 C 
ATOM     21  O   UNL     1       7.717   5.419  20.223  0.00  0.00    +0.000 OA
ENDBRANCH  18  20
ENDBRANCH  16  18
ENDBRANCH   1  16
TORSDOF 7
ENDMDL
MODEL 4
REMARK VINA RESULT:      -6.7      1.259      1.269
REMARK  Name = 
REMARK  11 active torsions:
REMARK  status: ('A' for Active; 'I' for Inactive)
REMARK    1  A    between atoms: C_1  and  C_2
REMARK    2  A    between atoms: C_2  and  S_4
REMARK    3  A    between atoms: S_4  and  C_5
REMARK    4  A    between atoms: C_5  and  C_6
REMARK    5  A    between atoms: C_5  and  C_7
REMARK    6  A    between atoms: N_9  and  C_10
REMARK    7  A    between atoms: N_9  and  C_15
REMARK    8  A    between atoms: C_15  and  C_16
REMARK    9  A    between atoms: C_15  and  C_17
REMARK   10  A    between atoms: C_15  and  C_18
REMARK   11  A    between atoms: C_18  and  O_20
REMARK                            x       y       z     vdW  Elec       q    Type
REMARK                         _______ _______ _______ _____ _____    ______ ____
ROOT
ATOM      1  C   UNL     1       3.953   3.850  17.917  0.00  0.00    +0.000 C 
ATOM      2  O   UNL     1       4.171   2.636  17.837  0.00  0.00    +0.000 OA
ATOM      3  N   UNL     1       2.871   4.349  18.702  0.00  0.00    +0.000 N 
ENDROOT
BRANCH   3   4
ATOM      4  C   UNL     1       2.822   5.812  19.037  0.00  0.00    +0.000 C 
ATOM      5  C   UNL     1       2.227   6.806  18.036  0.00  0.00    +0.000 C 
ATOM      6  C   UNL     1       2.165   8.119  18.805  0.00  0.00    +0.000 C 
ATOM      7  C   UNL     1       1.889   7.720  20.249  0.00  0.00    +0.000 C 
ATOM      8  C   UNL     1       2.081   6.199  20.325  0.00  0.00    +0.000 C 
ENDBRANCH   3   4
BRANCH   3   9
ATOM      9  C   UNL     1       2.113   3.304  19.563  0.00  0.00    +0.000 C 
ATOM     10  C   UNL     1       0.777   3.848  20.169  0.00  0.00    +0.000 C 
ATOM     11  C   UNL     1       1.768   2.057  18.729  0.00  0.00    +0.000 C 
BRANCH   9  12
ATOM     12  C   UNL     1       2.829   2.856  20.870  0.00  0.00    +0.000 C 
ATOM     13  O   UNL     1       2.428   3.079  22.003  0.00  0.00    +0.000 OA
BRANCH  12  14
ATOM     14  O   UNL     1       4.044   2.294  20.646  0.00  0.00    +0.000 OA
ATOM     15  H   UNL     1       4.280   1.648  21.346  0.00  0.00    +0.000 HD
ENDBRANCH  12  14
ENDBRANCH   9  12
ENDBRANCH   3   9
BRANCH   1  16
ATOM     16  C   UNL     1       4.907   4.780  17.123  0.00  0.00    +0.000 C 
ATOM     17  C   UNL     1       5.087   4.220  15.701  0.00  0.00    +0.000 C 
BRANCH  16  18
ATOM     18  S   UNL     1       6.540   4.737  17.971  0.00  0.00    +0.000 S 
BRANCH  18  20
ATOM     19  C   UNL     1       7.723   7.208  18.092  0.00  0.00    +0.000 C 
ATOM     20  C   UNL     1       7.325   6.090  17.171  0.00  0.00    +0.000 C 
ATOM     21  O   UNL     1       7.494   6.114  15.958  0.00  0.00    +0.000 OA
ENDBRANCH  18  20
ENDBRANCH  16  18
ENDBRANCH   1  16
TORSDOF 7
ENDMDL
MODEL 5
REMARK VINA RESULT:      -6.6      2.212      5.126
REMARK  Name = 
REMARK  11 active torsions:
REMARK  status: ('A' for Active; 'I' for Inactive)
REMARK    1  A    between atoms: C_1  and  C_2
REMARK    2  A    between atoms: C_2  and  S_4
REMARK    3  A    between atoms: S_4  and  C_5
REMARK    4  A    between atoms: C_5  and  C_6
REMARK    5  A    between atoms: C_5  and  C_7
REMARK    6  A    between atoms: N_9  and  C_10
REMARK    7  A    between atoms: N_9  and  C_15
REMARK    8  A    between atoms: C_15  and  C_16
REMARK    9  A    between atoms: C_15  and  C_17
REMARK   10  A    between atoms: C_15  and  C_18
REMARK   11  A    between atoms: C_18  and  O_20
REMARK                            x       y       z     vdW  Elec       q    Type
REMARK                         _______ _______ _______ _____ _____    ______ ____
ROOT
ATOM      1  C   UNL     1       3.967   6.007  17.497  0.00  0.00    +0.000 C 
ATOM      2  O   UNL     1       4.595   7.067  17.395  0.00  0.00    +0.000 OA
ATOM      3  N   UNL     1       4.376   4.843  16.782  0.00  0.00    +0.000 N 
ENDROOT
BRANCH   3   4
ATOM      4  C   UNL     1       3.801   3.509  17.161  0.00  0.00    +0.000 C 
ATOM      5  C   UNL     1       4.263   2.813  18.445  0.00  0.00    +0.000 C 
ATOM      6  C   UNL     1       3.324   1.622  18.584  0.00  0.00    +0.000 C 
ATOM      7  C   UNL     1       1.994   2.099  18.013  0.00  0.00    +0.000 C 
ATOM      8  C   UNL     1       2.275   3.433  17.309  0.00  0.00    +0.000 C 
ENDBRANCH   3   4
BRANCH   3   9
ATOM      9  C   UNL     1       5.724   4.948  16.021  0.00  0.00    +0.000 C 
ATOM     10  C   UNL     1       6.181   3.597  15.375  0.00  0.00    +0.000 C 
ATOM     11  C   UNL     1       5.636   5.992  14.895  0.00  0.00    +0.000 C 
BRANCH   9  12
ATOM     12  C   UNL     1       6.974   5.252  16.897  0.00  0.00    +0.000 C 
ATOM     13  O   UNL     1       7.392   4.538  17.797  0.00  0.00    +0.000 OA
BRANCH  12  14
ATOM     14  O   UNL     1       7.503   6.479  16.661  0.00  0.00    +0.000 OA
ATOM     15  H   UNL     1       7.196   7.140  17.318  0.00  0.00    +0.000 HD
ENDBRANCH  12  14
ENDBRANCH   9  12
ENDBRANCH   3   9
BRANCH   1  16
ATOM     16  C   UNL     1       2.728   6.021  18.431  0.00  0.00    +0.000 C 
ATOM     17  C   UNL     1       2.128   7.438  18.449  0.00  0.00    +0.000 C 
BRANCH  16  18
ATOM     18  S   UNL     1       3.321   5.626  20.128  0.00  0.00    +0.000 S 
BRANCH  18  20
ATOM     19  C   UNL     1       2.339   3.553  21.632  0.00  0.00    +0.000 C 
ATOM     20  C   UNL     1       1.963   4.670  20.702  0.00  0.00    +0.000 C 
ATOM     21  O   UNL     1       0.816   4.893  20.335  0.00  0.00    +0.000 OA
ENDBRANCH  18  20
ENDBRANCH  16  18
ENDBRANCH   1  16
TORSDOF 7
ENDMDL
MODEL 6
REMARK VINA RESULT:      -6.4      1.604      1.916
REMARK  Name = 
REMARK  11 active torsions:
REMARK  status: ('A' for Active; 'I' for Inactive)
REMARK    1  A    between atoms: C_1  and  C_2
REMARK    2  A    between atoms: C_2  and  S_4
REMARK    3  A    between atoms: S_4  and  C_5
REMARK    4  A    between atoms: C_5  and  C_6
REMARK    5  A    between atoms: C_5  and  C_7
REMARK    6  A    between atoms: N_9  and  C_10
REMARK    7  A    between atoms: N_9  and  C_15
REMARK    8  A    between atoms: C_15  and  C_16
REMARK    9  A    between atoms: C_15  and  C_17
REMARK   10  A    between atoms: C_15  and  C_18
REMARK   11  A    between atoms: C_18  and  O_20
REMARK                            x       y       z     vdW  Elec       q    Type
REMARK                         _______ _______ _______ _____ _____    ______ ____
ROOT
ATOM      1  C   UNL     1       3.954   3.987  17.968  0.00  0.00    +0.000 C 
ATOM      2  O   UNL     1       4.174   2.771  17.963  0.00  0.00    +0.000 OA
ATOM      3  N   UNL     1       2.852   4.528  18.695  0.00  0.00    +0.000 N 
ENDROOT
BRANCH   3   4
ATOM      4  C   UNL     1       2.792   6.007  18.944  0.00  0.00    +0.000 C 
ATOM      5  C   UNL     1       2.109   6.928  17.930  0.00  0.00    +0.000 C 
ATOM      6  C   UNL     1       2.071   8.284  18.621  0.00  0.00    +0.000 C 
ATOM      7  C   UNL     1       1.903   7.968  20.102  0.00  0.00    +0.000 C 
ATOM      8  C   UNL     1       2.134   6.459  20.255  0.00  0.00    +0.000 C 
ENDBRANCH   3   4
BRANCH   3   9
ATOM      9  C   UNL     1       2.071   3.532  19.593  0.00  0.00    +0.000 C 
ATOM     10  C   UNL     1       2.984   2.746  20.591  0.00  0.00    +0.000 C 
ATOM     11  C   UNL     1       1.003   4.265  20.423  0.00  0.00    +0.000 C 
BRANCH   9  12
ATOM     12  C   UNL     1       1.404   2.335  18.854  0.00  0.00    +0.000 C 
ATOM     13  O   UNL     1       0.266   2.330  18.408  0.00  0.00    +0.000 OA
BRANCH  12  14
ATOM     14  O   UNL     1       2.168   1.213  18.861  0.00  0.00    +0.000 OA
ATOM     15  H   UNL     1       3.081   1.393  18.548  0.00  0.00    +0.000 HD
ENDBRANCH  12  14
ENDBRANCH   9  12
ENDBRANCH   3   9
BRANCH   1  16
ATOM     16  C   UNL     1       4.929   4.872  17.149  0.00  0.00    +0.000 C 
ATOM     17  C   UNL     1       5.307   4.136  15.851  0.00  0.00    +0.000 C 
BRANCH  16  18
ATOM     18  S   UNL     1       6.454   5.082  18.157  0.00  0.00    +0.000 S 
BRANCH  18  20
ATOM     19  C   UNL     1       8.090   7.271  18.387  0.00  0.00    +0.000 C 
ATOM     20  C   UNL     1       6.966   6.666  17.596  0.00  0.00    +0.000 C 
ATOM     21  O   UNL     1       6.417   7.226  16.656  0.00  0.00    +0.000 OA
ENDBRANCH  18  20
ENDBRANCH  16  18
ENDBRANCH   1  16
TORSDOF 7
ENDMDL
MODEL 7
REMARK VINA RESULT:      -6.4      1.319      1.602
REMARK  Name = 
REMARK  11 active torsions:
REMARK  status: ('A' for Active; 'I' for Inactive)
REMARK    1  A    between atoms: C_1  and  C_2
REMARK    2  A    between atoms: C_2  and  S_4
REMARK    3  A    between atoms: S_4  and  C_5
REMARK    4  A    between atoms: C_5  and  C_6
REMARK    5  A    between atoms: C_5  and  C_7
REMARK    6  A    between atoms: N_9  and  C_10
REMARK    7  A    between atoms: N_9  and  C_15
REMARK    8  A    between atoms: C_15  and  C_16
REMARK    9  A    between atoms: C_15  and  C_17
REMARK   10  A    between atoms: C_15  and  C_18
REMARK   11  A    between atoms: C_18  and  O_20
REMARK                            x       y       z     vdW  Elec       q    Type
REMARK                         _______ _______ _______ _____ _____    ______ ____
ROOT
ATOM      1  C   UNL     1       4.127   4.340  18.367  0.00  0.00    +0.000 C 
ATOM      2  O   UNL     1       4.758   3.277  18.395  0.00  0.00    +0.000 OA
ATOM      3  N   UNL     1       2.791   4.411  18.862  0.00  0.00    +0.000 N 
ENDROOT
BRANCH   3   4
ATOM      4  C   UNL     1       2.171   5.756  19.108  0.00  0.00    +0.000 C 
ATOM      5  C   UNL     1       2.483   6.519  20.399  0.00  0.00    +0.000 C 
ATOM      6  C   UNL     1       1.852   7.888  20.187  0.00  0.00    +0.000 C 
ATOM      7  C   UNL     1       1.987   8.159  18.693  0.00  0.00    +0.000 C 
ATOM      8  C   UNL     1       2.426   6.837  18.049  0.00  0.00    +0.000 C 
ENDBRANCH   3   4
BRANCH   3   9
ATOM      9  C   UNL     1       2.259   3.140  19.575  0.00  0.00    +0.000 C 
ATOM     10  C   UNL     1       0.774   3.269  20.051  0.00  0.00    +0.000 C 
ATOM     11  C   UNL     1       2.341   1.917  18.645  0.00  0.00    +0.000 C 
BRANCH   9  12
ATOM     12  C   UNL     1       2.937   2.791  20.932  0.00  0.00    +0.000 C 
ATOM     13  O   UNL     1       2.532   3.142  22.031  0.00  0.00    +0.000 OA
BRANCH  12  14
ATOM     14  O   UNL     1       4.126   2.154  20.784  0.00  0.00    +0.000 OA
ATOM     15  H   UNL     1       4.219   1.407  21.414  0.00  0.00    +0.000 HD
ENDBRANCH  12  14
ENDBRANCH   9  12
ENDBRANCH   3   9
BRANCH   1  16
ATOM     16  C   UNL     1       4.863   5.568  17.769  0.00  0.00    +0.000 C 
ATOM     17  C   UNL     1       4.927   5.419  16.238  0.00  0.00    +0.000 C 
BRANCH  16  18
ATOM     18  S   UNL     1       6.583   5.545  18.423  0.00  0.00    +0.000 S 
BRANCH  18  20
ATOM     19  C   UNL     1       7.616   7.971  17.669  0.00  0.00    +0.000 C 
ATOM     20  C   UNL     1       7.370   6.558  17.222  0.00  0.00    +0.000 C 
ATOM     21  O   UNL     1       7.656   6.136  16.109  0.00  0.00    +0.000 OA
ENDBRANCH  18  20
ENDBRANCH  16  18
ENDBRANCH   1  16
TORSDOF 7
ENDMDL
MODEL 8
REMARK VINA RESULT:      -6.3      1.505      1.920
REMARK  Name = 
REMARK  11 active torsions:
REMARK  status: ('A' for Active; 'I' for Inactive)
REMARK    1  A    between atoms: C_1  and  C_2
REMARK    2  A    between atoms: C_2  and  S_4
REMARK    3  A    between atoms: S_4  and  C_5
REMARK    4  A    between atoms: C_5  and  C_6
REMARK    5  A    between atoms: C_5  and  C_7
REMARK    6  A    between atoms: N_9  and  C_10
REMARK    7  A    between atoms: N_9  and  C_15
REMARK    8  A    between atoms: C_15  and  C_16
REMARK    9  A    between atoms: C_15  and  C_17
REMARK   10  A    between atoms: C_15  and  C_18
REMARK   11  A    between atoms: C_18  and  O_20
REMARK                            x       y       z     vdW  Elec       q    Type
REMARK                         _______ _______ _______ _____ _____    ______ ____
ROOT
ATOM      1  C   UNL     1       4.341   4.409  18.327  0.00  0.00    +0.000 C 
ATOM      2  O   UNL     1       4.708   3.246  18.128  0.00  0.00    +0.000 OA
ATOM      3  N   UNL     1       3.088   4.684  18.952  0.00  0.00    +0.000 N 
ENDROOT
BRANCH   3   4
ATOM      4  C   UNL     1       2.812   6.068  19.465  0.00  0.00    +0.000 C 
ATOM      5  C   UNL     1       2.211   7.124  18.533  0.00  0.00    +0.000 C 
ATOM      6  C   UNL     1       1.893   8.296  19.452  0.00  0.00    +0.000 C 
ATOM      7  C   UNL     1       1.509   7.662  20.784  0.00  0.00    +0.000 C 
ATOM      8  C   UNL     1       1.887   6.179  20.685  0.00  0.00    +0.000 C 
ENDBRANCH   3   4
BRANCH   3   9
ATOM      9  C   UNL     1       2.315   3.456  19.502  0.00  0.00    +0.000 C 
ATOM     10  C   UNL     1       0.859   3.793  19.964  0.00  0.00    +0.000 C 
ATOM     11  C   UNL     1       2.217   2.350  18.436  0.00  0.00    +0.000 C 
BRANCH   9  12
ATOM     12  C   UNL     1       2.870   2.842  20.819  0.00  0.00    +0.000 C 
ATOM     13  O   UNL     1       2.379   2.994  21.928  0.00  0.00    +0.000 OA
BRANCH  12  14
ATOM     14  O   UNL     1       4.060   2.210  20.651  0.00  0.00    +0.000 OA
ATOM     15  H   UNL     1       4.782   2.659  21.141  0.00  0.00    +0.000 HD
ENDBRANCH  12  14
ENDBRANCH   9  12
ENDBRANCH   3   9
BRANCH   1  16
ATOM     16  C   UNL     1       5.307   5.531  17.864  0.00  0.00    +0.000 C 
ATOM     17  C   UNL     1       4.793   6.122  16.539  0.00  0.00    +0.000 C 
BRANCH  16  18
ATOM     18  S   UNL     1       6.942   4.747  17.551  0.00  0.00    +0.000 S 
BRANCH  18  20
ATOM     19  C   UNL     1       6.231   3.762  15.092  0.00  0.00    +0.000 C 
ATOM     20  C   UNL     1       6.989   4.850  15.797  0.00  0.00    +0.000 C 
ATOM     21  O   UNL     1       7.620   5.726  15.219  0.00  0.00    +0.000 OA
ENDBRANCH  18  20
ENDBRANCH  16  18
ENDBRANCH   1  16
TORSDOF 7
ENDMDL
MODEL 9
REMARK VINA RESULT:      -6.3      1.689      2.169
REMARK  Name = 
REMARK  11 active torsions:
REMARK  status: ('A' for Active; 'I' for Inactive)
REMARK    1  A    between atoms: C_1  and  C_2
REMARK    2  A    between atoms: C_2  and  S_4
REMARK    3  A    between atoms: S_4  and  C_5
REMARK    4  A    between atoms: C_5  and  C_6
REMARK    5  A    between atoms: C_5  and  C_7
REMARK    6  A    between atoms: N_9  and  C_10
REMARK    7  A    between atoms: N_9  and  C_15
REMARK    8  A    between atoms: C_15  and  C_16
REMARK    9  A    between atoms: C_15  and  C_17
REMARK   10  A    between atoms: C_15  and  C_18
REMARK   11  A    between atoms: C_18  and  O_20
REMARK                            x       y       z     vdW  Elec       q    Type
REMARK                         _______ _______ _______ _____ _____    ______ ____
ROOT
ATOM      1  C   UNL     1       4.017   4.473  18.319  0.00  0.00    +0.000 C 
ATOM      2  O   UNL     1       4.592   3.392  18.494  0.00  0.00    +0.000 OA
ATOM      3  N   UNL     1       2.665   4.658  18.735  0.00  0.00    +0.000 N 
ENDROOT
BRANCH   3   4
ATOM      4  C   UNL     1       2.102   6.048  18.802  0.00  0.00    +0.000 C 
ATOM      5  C   UNL     1       2.505   6.983  19.946  0.00  0.00    +0.000 C 
ATOM      6  C   UNL     1       1.908   8.329  19.557  0.00  0.00    +0.000 C 
ATOM      7  C   UNL     1       1.975   8.367  18.036  0.00  0.00    +0.000 C 
ATOM      8  C   UNL     1       2.337   6.947  17.580  0.00  0.00    +0.000 C 
ENDBRANCH   3   4
BRANCH   3   9
ATOM      9  C   UNL     1       2.037   3.498  19.552  0.00  0.00    +0.000 C 
ATOM     10  C   UNL     1       3.062   2.759  20.474  0.00  0.00    +0.000 C 
ATOM     11  C   UNL     1       0.899   4.016  20.448  0.00  0.00    +0.000 C 
BRANCH   9  12
ATOM     12  C   UNL     1       1.517   2.289  18.721  0.00  0.00    +0.000 C 
ATOM     13  O   UNL     1       0.347   2.086  18.431  0.00  0.00    +0.000 OA
BRANCH  12  14
ATOM     14  O   UNL     1       2.484   1.378  18.445  0.00  0.00    +0.000 OA
ATOM     15  H   UNL     1       3.346   1.808  18.257  0.00  0.00    +0.000 HD
ENDBRANCH  12  14
ENDBRANCH   9  12
ENDBRANCH   3   9
BRANCH   1  16
ATOM     16  C   UNL     1       4.840   5.594  17.631  0.00  0.00    +0.000 C 
ATOM     17  C   UNL     1       4.975   5.270  16.133  0.00  0.00    +0.000 C 
BRANCH  16  18
ATOM     18  S   UNL     1       6.522   5.572  18.379  0.00  0.00    +0.000 S 
BRANCH  18  20
ATOM     19  C   UNL     1       7.639   7.980  17.691  0.00  0.00    +0.000 C 
ATOM     20  C   UNL     1       7.375   6.579  17.219  0.00  0.00    +0.000 C 
ATOM     21  O   UNL     1       7.690   6.163  16.111  0.00  0.00    +0.000 OA
ENDBRANCH  18  20
ENDBRANCH  16  18
ENDBRANCH   1  16
TORSDOF 7
ENDMDL
