MODEL 1
REMARK VINA RESULT:      -6.9      0.000      0.000
REMARK  Name = 
REMARK  14 active torsions:
REMARK  status: ('A' for Active; 'I' for Inactive)
REMARK    1  A    between atoms: C_1  and  C_2
REMARK    2  A    between atoms: C_2  and  N_3
REMARK    3  A    between atoms: N_3  and  C_4
REMARK    4  A    between atoms: N_3  and  C_6
REMARK    5  A    between atoms: C_4  and  C_5
REMARK    6  A    between atoms: C_6  and  C_7
REMARK    7  A    between atoms: C_7  and  C_8
REMARK    8  A    between atoms: C_8  and  N_9
REMARK    9  A    between atoms: N_9  and  C_10
REMARK   10  A    between atoms: C_15  and  S_16
REMARK   11  A    between atoms: S_16  and  N_19
REMARK   12  A    between atoms: N_19  and  C_20
REMARK   13  A    between atoms: C_25  and  C_26
REMARK   14  A    between atoms: C_26  and  O_28
REMARK                            x       y       z     vdW  Elec       q    Type
REMARK                         _______ _______ _______ _____ _____    ______ ____
ROOT
ATOM      1  S   UNL     1       0.325   9.153  21.488  0.00  0.00    +0.000 S 
ATOM      2  O   UNL     1      -0.566   8.093  21.874  0.00  0.00    +0.000 OA
ATOM      3  O   UNL     1       1.314   9.657  22.418  0.00  0.00    +0.000 OA
ENDROOT
BRANCH   1   9
ATOM      4  C   UNL     1       2.002   7.479  19.915  0.00  0.00    +0.000 A 
ATOM      5  C   UNL     1       2.731   7.306  18.714  0.00  0.00    +0.000 A 
ATOM      6  C   UNL     1       2.713   8.252  17.686  0.00  0.00    +0.000 A 
ATOM      7  C   UNL     1       1.939   9.392  17.806  0.00  0.00    +0.000 A 
ATOM      8  C   UNL     1       1.186   9.590  18.960  0.00  0.00    +0.000 A 
ATOM      9  C   UNL     1       1.193   8.643  20.004  0.00  0.00    +0.000 A 
BRANCH   4  10
ATOM     10  N   UNL     1       2.045   6.483  20.910  0.00  0.00    +0.000 N 
ATOM     11  H   UNL     1       3.004   6.377  21.262  0.00  0.00    +0.000 HD
BRANCH  10  12
ATOM     12  C   UNL     1       1.360   5.195  20.707  0.00  0.00    +0.000 C 
BRANCH  12  13
ATOM     13  C   UNL     1       2.111   4.075  21.432  0.00  0.00    +0.000 C 
BRANCH  13  14
ATOM     14  C   UNL     1       2.985   3.196  20.512  0.00  0.00    +0.000 C 
BRANCH  14  15
ATOM     15  N   UNL     1       3.433   3.819  19.249  0.00  0.00    +0.000 NA
BRANCH  15  17
ATOM     16  C   UNL     1       5.556   5.200  19.190  0.00  0.00    +0.000 C 
ATOM     17  C   UNL     1       4.899   3.823  19.135  0.00  0.00    +0.000 C 
ENDBRANCH  15  17
BRANCH  15  18
ATOM     18  C   UNL     1       2.744   3.229  18.080  0.00  0.00    +0.000 C 
ATOM     19  C   UNL     1       1.657   4.079  17.422  0.00  0.00    +0.000 C 
ENDBRANCH  15  18
ENDBRANCH  14  15
ENDBRANCH  13  14
ENDBRANCH  12  13
ENDBRANCH  10  12
ENDBRANCH   4  10
ENDBRANCH   1   9
BRANCH   1  20
ATOM     20  N   UNL     1      -0.677  10.468  21.068  0.00  0.00    +0.000 N 
ATOM     21  H   UNL     1      -0.518  10.727  20.084  0.00  0.00    +0.000 HD
BRANCH  20  22
ATOM     22  C   UNL     1      -0.903  11.597  21.938  0.00  0.00    +0.000 A 
ATOM     23  C   UNL     1      -1.953  11.596  22.857  0.00  0.00    +0.000 A 
ATOM     24  C   UNL     1      -2.240  12.748  23.644  0.00  0.00    +0.000 A 
ATOM     25  C   UNL     1      -1.446  13.922  23.558  0.00  0.00    +0.000 A 
ATOM     26  C   UNL     1      -0.407  13.909  22.627  0.00  0.00    +0.000 A 
ATOM     27  C   UNL     1      -0.143  12.766  21.817  0.00  0.00    +0.000 A 
ATOM     28  C   UNL     1       0.364  15.159  22.343  0.00  0.00    +0.000 C 
ATOM     29  C   UNL     1       0.323  16.325  23.286  0.00  0.00    +0.000 C 
ATOM     30  C   UNL     1      -0.779  16.344  24.321  0.00  0.00    +0.000 C 
ATOM     31  C   UNL     1      -1.748  15.151  24.386  0.00  0.00    +0.000 C 
BRANCH  27  32
ATOM     32  C   UNL     1       0.913  12.859  20.767  0.00  0.00    +0.000 C 
ATOM     33  O   UNL     1       2.115  12.844  20.921  0.00  0.00    +0.000 OA
BRANCH  32  34
ATOM     34  O   UNL     1       0.400  13.087  19.547  0.00  0.00    +0.000 OA
ATOM     35  H   UNL     1       1.148  12.813  18.970  0.00  0.00    +0.000 HD
ENDBRANCH  32  34
ENDBRANCH  27  32
ENDBRANCH  20  22
ENDBRANCH   1  20
TORSDOF 12
ENDMDL
MODEL 2
REMARK VINA RESULT:      -6.8      2.616      5.292
REMARK  Name = 
REMARK  14 active torsions:
REMARK  status: ('A' for Active; 'I' for Inactive)
REMARK    1  A    between atoms: C_1  and  C_2
REMARK    2  A    between atoms: C_2  and  N_3
REMARK    3  A    between atoms: N_3  and  C_4
REMARK    4  A    between atoms: N_3  and  C_6
REMARK    5  A    between atoms: C_4  and  C_5
REMARK    6  A    between atoms: C_6  and  C_7
REMARK    7  A    between atoms: C_7  and  C_8
REMARK    8  A    between atoms: C_8  and  N_9
REMARK    9  A    between atoms: N_9  and  C_10
REMARK   10  A    between atoms: C_15  and  S_16
REMARK   11  A    between atoms: S_16  and  N_19
REMARK   12  A    between atoms: N_19  and  C_20
REMARK   13  A    between atoms: C_25  and  C_26
REMARK   14  A    between atoms: C_26  and  O_28
REMARK                            x       y       z     vdW  Elec       q    Type
REMARK                         _______ _______ _______ _____ _____    ______ ____
ROOT
ATOM      1  S   UNL     1       2.763   6.134  19.091  0.00  0.00    +0.000 S 
ATOM      2  O   UNL     1       4.066   6.678  18.820  0.00  0.00    +0.000 OA
ATOM      3  O   UNL     1       1.840   5.863  18.009  0.00  0.00    +0.000 OA
ENDROOT
BRANCH   1   9
ATOM      4  C   UNL     1       3.833   3.550  19.615  0.00  0.00    +0.000 A 
ATOM      5  C   UNL     1       3.767   2.362  20.380  0.00  0.00    +0.000 A 
ATOM      6  C   UNL     1       2.866   2.201  21.436  0.00  0.00    +0.000 A 
ATOM      7  C   UNL     1       2.019   3.236  21.788  0.00  0.00    +0.000 A 
ATOM      8  C   UNL     1       2.069   4.433  21.079  0.00  0.00    +0.000 A 
ATOM      9  C   UNL     1       2.974   4.609  20.012  0.00  0.00    +0.000 A 
BRANCH   4  10
ATOM     10  N   UNL     1       4.774   3.661  18.572  0.00  0.00    +0.000 N 
ATOM     11  H   UNL     1       5.287   4.547  18.652  0.00  0.00    +0.000 HD
BRANCH  10  12
ATOM     12  C   UNL     1       4.393   3.339  17.187  0.00  0.00    +0.000 C 
BRANCH  12  13
ATOM     13  C   UNL     1       4.938   4.399  16.227  0.00  0.00    +0.000 C 
BRANCH  13  14
ATOM     14  C   UNL     1       6.430   4.739  16.434  0.00  0.00    +0.000 C 
BRANCH  14  15
ATOM     15  N   UNL     1       6.729   5.760  17.459  0.00  0.00    +0.000 NA
BRANCH  15  17
ATOM     16  C   UNL     1       7.579   5.500  19.831  0.00  0.00    +0.000 C 
ATOM     17  C   UNL     1       7.835   5.345  18.335  0.00  0.00    +0.000 C 
ENDBRANCH  15  17
BRANCH  15  18
ATOM     18  C   UNL     1       6.916   7.097  16.853  0.00  0.00    +0.000 C 
ATOM     19  C   UNL     1       7.824   8.071  17.605  0.00  0.00    +0.000 C 
ENDBRANCH  15  18
ENDBRANCH  14  15
ENDBRANCH  13  14
ENDBRANCH  12  13
ENDBRANCH  10  12
ENDBRANCH   4  10
ENDBRANCH   1   9
BRANCH   1  20
ATOM     20  N   UNL     1       2.001   7.255  20.125  0.00  0.00    +0.000 N 
ATOM     21  H   UNL     1       1.304   6.772  20.710  0.00  0.00    +0.000 HD
BRANCH  20  22
ATOM     22  C   UNL     1       1.591   8.571  19.697  0.00  0.00    +0.000 A 
ATOM     23  C   UNL     1       1.842   9.014  18.398  0.00  0.00    +0.000 A 
ATOM     24  C   UNL     1       1.530  10.346  18.005  0.00  0.00    +0.000 A 
ATOM     25  C   UNL     1       0.913  11.259  18.899  0.00  0.00    +0.000 A 
ATOM     26  C   UNL     1       0.679  10.804  20.197  0.00  0.00    +0.000 A 
ATOM     27  C   UNL     1       1.023   9.479  20.597  0.00  0.00    +0.000 A 
ATOM     28  C   UNL     1       0.200  11.749  21.252  0.00  0.00    +0.000 C 
ATOM     29  C   UNL     1      -0.402  13.074  20.889  0.00  0.00    +0.000 C 
ATOM     30  C   UNL     1      -0.182  13.574  19.479  0.00  0.00    +0.000 C 
ATOM     31  C   UNL     1       0.585  12.678  18.491  0.00  0.00    +0.000 C 
BRANCH  27  32
ATOM     32  C   UNL     1       0.845   9.092  22.028  0.00  0.00    +0.000 C 
ATOM     33  O   UNL     1      -0.191   8.841  22.605  0.00  0.00    +0.000 OA
BRANCH  32  34
ATOM     34  O   UNL     1       1.995   9.151  22.719  0.00  0.00    +0.000 OA
ATOM     35  H   UNL     1       1.872   8.414  23.359  0.00  0.00    +0.000 HD
ENDBRANCH  32  34
ENDBRANCH  27  32
ENDBRANCH  20  22
ENDBRANCH   1  20
TORSDOF 12
ENDMDL
MODEL 3
REMARK VINA RESULT:      -6.8      4.761      7.952
REMARK  Name = 
REMARK  14 active torsions:
REMARK  status: ('A' for Active; 'I' for Inactive)
REMARK    1  A    between atoms: C_1  and  C_2
REMARK    2  A    between atoms: C_2  and  N_3
REMARK    3  A    between atoms: N_3  and  C_4
REMARK    4  A    between atoms: N_3  and  C_6
REMARK    5  A    between atoms: C_4  and  C_5
REMARK    6  A    between atoms: C_6  and  C_7
REMARK    7  A    between atoms: C_7  and  C_8
REMARK    8  A    between atoms: C_8  and  N_9
REMARK    9  A    between atoms: N_9  and  C_10
REMARK   10  A    between atoms: C_15  and  S_16
REMARK   11  A    between atoms: S_16  and  N_19
REMARK   12  A    between atoms: N_19  and  C_20
REMARK   13  A    between atoms: C_25  and  C_26
REMARK   14  A    between atoms: C_26  and  O_28
REMARK                            x       y       z     vdW  Elec       q    Type
REMARK                         _______ _______ _______ _____ _____    ______ ____
ROOT
ATOM      1  S   UNL     1       5.116   4.439  18.744  0.00  0.00    +0.000 S 
ATOM      2  O   UNL     1       5.167   3.057  19.133  0.00  0.00    +0.000 OA
ATOM      3  O   UNL     1       5.584   5.474  19.642  0.00  0.00    +0.000 OA
ENDROOT
BRANCH   1   9
ATOM      4  C   UNL     1       6.899   5.693  16.915  0.00  0.00    +0.000 A 
ATOM      5  C   UNL     1       7.408   5.758  15.597  0.00  0.00    +0.000 A 
ATOM      6  C   UNL     1       7.024   4.856  14.601  0.00  0.00    +0.000 A 
ATOM      7  C   UNL     1       6.139   3.835  14.896  0.00  0.00    +0.000 A 
ATOM      8  C   UNL     1       5.633   3.718  16.187  0.00  0.00    +0.000 A 
ATOM      9  C   UNL     1       6.014   4.620  17.202  0.00  0.00    +0.000 A 
BRANCH   4  10
ATOM     10  N   UNL     1       7.336   6.620  17.882  0.00  0.00    +0.000 N 
ATOM     11  H   UNL     1       7.000   6.344  18.813  0.00  0.00    +0.000 HD
BRANCH  10  12
ATOM     12  C   UNL     1       7.222   8.066  17.634  0.00  0.00    +0.000 C 
BRANCH  12  13
ATOM     13  C   UNL     1       8.580   8.747  17.826  0.00  0.00    +0.000 C 
BRANCH  13  14
ATOM     14  C   UNL     1       8.768   9.411  19.207  0.00  0.00    +0.000 C 
BRANCH  14  15
ATOM     15  N   UNL     1       9.573  10.651  19.229  0.00  0.00    +0.000 NA
BRANCH  15  17
ATOM     16  C   UNL     1      10.927  11.977  17.548  0.00  0.00    +0.000 C 
ATOM     17  C   UNL     1       9.607  11.302  17.911  0.00  0.00    +0.000 C 
ENDBRANCH  15  17
BRANCH  15  18
ATOM     18  C   UNL     1       9.154  11.548  20.329  0.00  0.00    +0.000 C 
ATOM     19  C   UNL     1      10.268  12.165  21.175  0.00  0.00    +0.000 C 
ENDBRANCH  15  18
ENDBRANCH  14  15
ENDBRANCH  13  14
ENDBRANCH  12  13
ENDBRANCH  10  12
ENDBRANCH   4  10
ENDBRANCH   1   9
BRANCH   1  20
ATOM     20  N   UNL     1       3.474   4.768  18.421  0.00  0.00    +0.000 N 
ATOM     21  H   UNL     1       3.195   4.315  17.539  0.00  0.00    +0.000 HD
BRANCH  20  22
ATOM     22  C   UNL     1       2.873   6.064  18.627  0.00  0.00    +0.000 A 
ATOM     23  C   UNL     1       3.152   7.128  17.768  0.00  0.00    +0.000 A 
ATOM     24  C   UNL     1       2.641   8.431  18.027  0.00  0.00    +0.000 A 
ATOM     25  C   UNL     1       1.797   8.691  19.139  0.00  0.00    +0.000 A 
ATOM     26  C   UNL     1       1.537   7.618  19.993  0.00  0.00    +0.000 A 
ATOM     27  C   UNL     1       2.077   6.321  19.748  0.00  0.00    +0.000 A 
ATOM     28  C   UNL     1       0.809   7.840  21.279  0.00  0.00    +0.000 C 
ATOM     29  C   UNL     1       0.013   9.090  21.514  0.00  0.00    +0.000 C 
ATOM     30  C   UNL     1       0.259  10.255  20.582  0.00  0.00    +0.000 C 
ATOM     31  C   UNL     1       1.256  10.074  19.424  0.00  0.00    +0.000 C 
BRANCH  27  32
ATOM     32  C   UNL     1       1.849   5.247  20.759  0.00  0.00    +0.000 C 
ATOM     33  O   UNL     1       2.568   4.933  21.682  0.00  0.00    +0.000 OA
BRANCH  32  34
ATOM     34  O   UNL     1       0.752   4.520  20.491  0.00  0.00    +0.000 OA
ATOM     35  H   UNL     1       0.722   3.923  21.272  0.00  0.00    +0.000 HD
ENDBRANCH  32  34
ENDBRANCH  27  32
ENDBRANCH  20  22
ENDBRANCH   1  20
TORSDOF 12
ENDMDL
MODEL 4
REMARK VINA RESULT:      -6.7      3.327      5.724
REMARK  Name = 
REMARK  14 active torsions:
REMARK  status: ('A' for Active; 'I' for Inactive)
REMARK    1  A    between atoms: C_1  and  C_2
REMARK    2  A    between atoms: C_2  and  N_3
REMARK    3  A    between atoms: N_3  and  C_4
REMARK    4  A    between atoms: N_3  and  C_6
REMARK    5  A    between atoms: C_4  and  C_5
REMARK    6  A    between atoms: C_6  and  C_7
REMARK    7  A    between atoms: C_7  and  C_8
REMARK    8  A    between atoms: C_8  and  N_9
REMARK    9  A    between atoms: N_9  and  C_10
REMARK   10  A    between atoms: C_15  and  S_16
REMARK   11  A    between atoms: S_16  and  N_19
REMARK   12  A    between atoms: N_19  and  C_20
REMARK   13  A    between atoms: C_25  and  C_26
REMARK   14  A    between atoms: C_26  and  O_28
REMARK                            x       y       z     vdW  Elec       q    Type
REMARK                         _______ _______ _______ _____ _____    ______ ____
ROOT
ATOM      1  S   UNL     1       2.899   6.219  18.969  0.00  0.00    +0.000 S 
ATOM      2  O   UNL     1       4.202   6.694  18.591  0.00  0.00    +0.000 OA
ATOM      3  O   UNL     1       1.877   5.998  17.967  0.00  0.00    +0.000 OA
ENDROOT
BRANCH   1   9
ATOM      4  C   UNL     1       3.960   3.627  19.467  0.00  0.00    +0.000 A 
ATOM      5  C   UNL     1       3.889   2.430  20.219  0.00  0.00    +0.000 A 
ATOM      6  C   UNL     1       2.987   2.261  21.271  0.00  0.00    +0.000 A 
ATOM      7  C   UNL     1       2.142   3.295  21.633  0.00  0.00    +0.000 A 
ATOM      8  C   UNL     1       2.196   4.498  20.937  0.00  0.00    +0.000 A 
ATOM      9  C   UNL     1       3.104   4.684  19.874  0.00  0.00    +0.000 A 
BRANCH   4  10
ATOM     10  N   UNL     1       4.903   3.746  18.427  0.00  0.00    +0.000 N 
ATOM     11  H   UNL     1       5.481   4.583  18.568  0.00  0.00    +0.000 HD
BRANCH  10  12
ATOM     12  C   UNL     1       4.496   3.558  17.025  0.00  0.00    +0.000 C 
BRANCH  12  13
ATOM     13  C   UNL     1       5.380   4.396  16.098  0.00  0.00    +0.000 C 
BRANCH  13  14
ATOM     14  C   UNL     1       5.225   4.062  14.598  0.00  0.00    +0.000 C 
BRANCH  14  15
ATOM     15  N   UNL     1       6.479   3.879  13.838  0.00  0.00    +0.000 NA
BRANCH  15  17
ATOM     16  C   UNL     1       4.751   3.317  12.073  0.00  0.00    +0.000 C 
ATOM     17  C   UNL     1       6.218   3.532  12.433  0.00  0.00    +0.000 C 
ENDBRANCH  15  17
BRANCH  15  18
ATOM     18  C   UNL     1       7.390   5.033  14.010  0.00  0.00    +0.000 C 
ATOM     19  C   UNL     1       8.112   5.530  12.758  0.00  0.00    +0.000 C 
ENDBRANCH  15  18
ENDBRANCH  14  15
ENDBRANCH  13  14
ENDBRANCH  12  13
ENDBRANCH  10  12
ENDBRANCH   4  10
ENDBRANCH   1   9
BRANCH   1  20
ATOM     20  N   UNL     1       2.283   7.377  20.058  0.00  0.00    +0.000 N 
ATOM     21  H   UNL     1       1.814   6.903  20.843  0.00  0.00    +0.000 HD
BRANCH  20  22
ATOM     22  C   UNL     1       1.625   8.589  19.633  0.00  0.00    +0.000 A 
ATOM     23  C   UNL     1       1.798   9.084  18.340  0.00  0.00    +0.000 A 
ATOM     24  C   UNL     1       1.233  10.331  17.951  0.00  0.00    +0.000 A 
ATOM     25  C   UNL     1       0.437  11.097  18.844  0.00  0.00    +0.000 A 
ATOM     26  C   UNL     1       0.283  10.592  20.136  0.00  0.00    +0.000 A 
ATOM     27  C   UNL     1       0.879   9.359  20.532  0.00  0.00    +0.000 A 
ATOM     28  C   UNL     1      -0.385  11.416  21.190  0.00  0.00    +0.000 C 
ATOM     29  C   UNL     1      -1.234  12.598  20.828  0.00  0.00    +0.000 C 
ATOM     30  C   UNL     1      -1.101  13.143  19.423  0.00  0.00    +0.000 C 
ATOM     31  C   UNL     1      -0.161  12.425  18.440  0.00  0.00    +0.000 C 
BRANCH  27  32
ATOM     32  C   UNL     1       0.765   8.933  21.958  0.00  0.00    +0.000 C 
ATOM     33  O   UNL     1      -0.227   8.552  22.541  0.00  0.00    +0.000 OA
BRANCH  32  34
ATOM     34  O   UNL     1       1.908   9.115  22.637  0.00  0.00    +0.000 OA
ATOM     35  H   UNL     1       1.937  10.096  22.706  0.00  0.00    +0.000 HD
ENDBRANCH  32  34
ENDBRANCH  27  32
ENDBRANCH  20  22
ENDBRANCH   1  20
TORSDOF 12
ENDMDL
MODEL 5
REMARK VINA RESULT:      -6.7      1.346      2.290
REMARK  Name = 
REMARK  14 active torsions:
REMARK  status: ('A' for Active; 'I' for Inactive)
REMARK    1  A    between atoms: C_1  and  C_2
REMARK    2  A    between atoms: C_2  and  N_3
REMARK    3  A    between atoms: N_3  and  C_4
REMARK    4  A    between atoms: N_3  and  C_6
REMARK    5  A    between atoms: C_4  and  C_5
REMARK    6  A    between atoms: C_6  and  C_7
REMARK    7  A    between atoms: C_7  and  C_8
REMARK    8  A    between atoms: C_8  and  N_9
REMARK    9  A    between atoms: N_9  and  C_10
REMARK   10  A    between atoms: C_15  and  S_16
REMARK   11  A    between atoms: S_16  and  N_19
REMARK   12  A    between atoms: N_19  and  C_20
REMARK   13  A    between atoms: C_25  and  C_26
REMARK   14  A    between atoms: C_26  and  O_28
REMARK                            x       y       z     vdW  Elec       q    Type
REMARK                         _______ _______ _______ _____ _____    ______ ____
ROOT
ATOM      1  S   UNL     1       0.405   9.363  21.287  0.00  0.00    +0.000 S 
ATOM      2  O   UNL     1      -0.561   8.411  21.763  0.00  0.00    +0.000 OA
ATOM      3  O   UNL     1       1.406   9.905  22.181  0.00  0.00    +0.000 OA
ENDROOT
BRANCH   1   9
ATOM      4  C   UNL     1       1.944   7.390  19.936  0.00  0.00    +0.000 A 
ATOM      5  C   UNL     1       2.695   7.036  18.789  0.00  0.00    +0.000 A 
ATOM      6  C   UNL     1       2.820   7.886  17.687  0.00  0.00    +0.000 A 
ATOM      7  C   UNL     1       2.174   9.109  17.678  0.00  0.00    +0.000 A 
ATOM      8  C   UNL     1       1.404   9.485  18.774  0.00  0.00    +0.000 A 
ATOM      9  C   UNL     1       1.266   8.636  19.892  0.00  0.00    +0.000 A 
BRANCH   4  10
ATOM     10  N   UNL     1       1.840   6.484  21.011  0.00  0.00    +0.000 N 
ATOM     11  H   UNL     1       2.196   6.916  21.872  0.00  0.00    +0.000 HD
BRANCH  10  12
ATOM     12  C   UNL     1       2.264   5.084  20.851  0.00  0.00    +0.000 C 
BRANCH  12  13
ATOM     13  C   UNL     1       1.136   4.255  20.230  0.00  0.00    +0.000 C 
BRANCH  13  14
ATOM     14  C   UNL     1       1.619   3.118  19.303  0.00  0.00    +0.000 C 
BRANCH  14  15
ATOM     15  N   UNL     1       2.977   3.267  18.742  0.00  0.00    +0.000 NA
BRANCH  15  17
ATOM     16  C   UNL     1       4.438   2.028  20.401  0.00  0.00    +0.000 C 
ATOM     17  C   UNL     1       3.810   2.085  19.011  0.00  0.00    +0.000 C 
ENDBRANCH  15  17
BRANCH  15  18
ATOM     18  C   UNL     1       2.934   3.656  17.314  0.00  0.00    +0.000 C 
ATOM     19  C   UNL     1       4.213   4.250  16.725  0.00  0.00    +0.000 C 
ENDBRANCH  15  18
ENDBRANCH  14  15
ENDBRANCH  13  14
ENDBRANCH  12  13
ENDBRANCH  10  12
ENDBRANCH   4  10
ENDBRANCH   1   9
BRANCH   1  20
ATOM     20  N   UNL     1      -0.500  10.683  20.697  0.00  0.00    +0.000 N 
ATOM     21  H   UNL     1      -0.657  10.574  19.685  0.00  0.00    +0.000 HD
BRANCH  20  22
ATOM     22  C   UNL     1      -0.266  12.047  21.107  0.00  0.00    +0.000 A 
ATOM     23  C   UNL     1       0.701  12.830  20.475  0.00  0.00    +0.000 A 
ATOM     24  C   UNL     1       1.004  14.140  20.943  0.00  0.00    +0.000 A 
ATOM     25  C   UNL     1       0.309  14.716  22.039  0.00  0.00    +0.000 A 
ATOM     26  C   UNL     1      -0.647  13.915  22.666  0.00  0.00    +0.000 A 
ATOM     27  C   UNL     1      -0.925  12.592  22.215  0.00  0.00    +0.000 A 
ATOM     28  C   UNL     1      -1.297  14.372  23.933  0.00  0.00    +0.000 C 
ATOM     29  C   UNL     1      -1.250  15.812  24.352  0.00  0.00    +0.000 C 
ATOM     30  C   UNL     1      -0.240  16.703  23.665  0.00  0.00    +0.000 C 
ATOM     31  C   UNL     1       0.630  16.104  22.546  0.00  0.00    +0.000 C 
BRANCH  27  32
ATOM     32  C   UNL     1      -1.880  11.753  22.997  0.00  0.00    +0.000 C 
ATOM     33  O   UNL     1      -3.068  11.930  23.150  0.00  0.00    +0.000 OA
BRANCH  32  34
ATOM     34  O   UNL     1      -1.261  10.765  23.664  0.00  0.00    +0.000 OA
ATOM     35  H   UNL     1      -1.863  10.646  24.433  0.00  0.00    +0.000 HD
ENDBRANCH  32  34
ENDBRANCH  27  32
ENDBRANCH  20  22
ENDBRANCH   1  20
TORSDOF 12
ENDMDL
MODEL 6
REMARK VINA RESULT:      -6.7      2.604      5.097
REMARK  Name = 
REMARK  14 active torsions:
REMARK  status: ('A' for Active; 'I' for Inactive)
REMARK    1  A    between atoms: C_1  and  C_2
REMARK    2  A    between atoms: C_2  and  N_3
REMARK    3  A    between atoms: N_3  and  C_4
REMARK    4  A    between atoms: N_3  and  C_6
REMARK    5  A    between atoms: C_4  and  C_5
REMARK    6  A    between atoms: C_6  and  C_7
REMARK    7  A    between atoms: C_7  and  C_8
REMARK    8  A    between atoms: C_8  and  N_9
REMARK    9  A    between atoms: N_9  and  C_10
REMARK   10  A    between atoms: C_15  and  S_16
REMARK   11  A    between atoms: S_16  and  N_19
REMARK   12  A    between atoms: N_19  and  C_20
REMARK   13  A    between atoms: C_25  and  C_26
REMARK   14  A    between atoms: C_26  and  O_28
REMARK                            x       y       z     vdW  Elec       q    Type
REMARK                         _______ _______ _______ _____ _____    ______ ____
ROOT
ATOM      1  S   UNL     1       2.688   6.366  19.205  0.00  0.00    +0.000 S 
ATOM      2  O   UNL     1       4.100   6.602  19.326  0.00  0.00    +0.000 OA
ATOM      3  O   UNL     1       2.030   6.487  17.921  0.00  0.00    +0.000 OA
ENDROOT
BRANCH   1   9
ATOM      4  C   UNL     1       1.927   3.631  19.028  0.00  0.00    +0.000 A 
ATOM      5  C   UNL     1       1.552   2.448  19.708  0.00  0.00    +0.000 A 
ATOM      6  C   UNL     1       1.526   2.363  21.103  0.00  0.00    +0.000 A 
ATOM      7  C   UNL     1       1.904   3.450  21.870  0.00  0.00    +0.000 A 
ATOM      8  C   UNL     1       2.304   4.625  21.242  0.00  0.00    +0.000 A 
ATOM      9  C   UNL     1       2.339   4.724  19.835  0.00  0.00    +0.000 A 
BRANCH   4  10
ATOM     10  N   UNL     1       1.952   3.651  17.620  0.00  0.00    +0.000 N 
ATOM     11  H   UNL     1       1.034   3.379  17.247  0.00  0.00    +0.000 HD
BRANCH  10  12
ATOM     12  C   UNL     1       3.074   3.047  16.884  0.00  0.00    +0.000 C 
BRANCH  12  13
ATOM     13  C   UNL     1       4.117   4.113  16.537  0.00  0.00    +0.000 C 
BRANCH  13  14
ATOM     14  C   UNL     1       5.357   4.112  17.458  0.00  0.00    +0.000 C 
BRANCH  14  15
ATOM     15  N   UNL     1       6.661   4.322  16.796  0.00  0.00    +0.000 NA
BRANCH  15  17
ATOM     16  C   UNL     1       6.954   4.743  14.315  0.00  0.00    +0.000 C 
ATOM     17  C   UNL     1       6.560   5.283  15.687  0.00  0.00    +0.000 C 
ENDBRANCH  15  17
BRANCH  15  18
ATOM     18  C   UNL     1       7.719   4.650  17.777  0.00  0.00    +0.000 C 
ATOM     19  C   UNL     1       7.582   5.980  18.518  0.00  0.00    +0.000 C 
ENDBRANCH  15  18
ENDBRANCH  14  15
ENDBRANCH  13  14
ENDBRANCH  12  13
ENDBRANCH  10  12
ENDBRANCH   4  10
ENDBRANCH   1   9
BRANCH   1  20
ATOM     20  N   UNL     1       1.941   7.486  20.252  0.00  0.00    +0.000 N 
ATOM     21  H   UNL     1       1.303   6.993  20.892  0.00  0.00    +0.000 HD
BRANCH  20  22
ATOM     22  C   UNL     1       1.449   8.769  19.814  0.00  0.00    +0.000 A 
ATOM     23  C   UNL     1       1.833   9.303  18.582  0.00  0.00    +0.000 A 
ATOM     24  C   UNL     1       1.430  10.612  18.194  0.00  0.00    +0.000 A 
ATOM     25  C   UNL     1       0.589  11.406  19.018  0.00  0.00    +0.000 A 
ATOM     26  C   UNL     1       0.224  10.862  20.249  0.00  0.00    +0.000 A 
ATOM     27  C   UNL     1       0.657   9.563  20.650  0.00  0.00    +0.000 A 
ATOM     28  C   UNL     1      -0.507  11.694  21.253  0.00  0.00    +0.000 C 
ATOM     29  C   UNL     1      -1.199  12.964  20.851  0.00  0.00    +0.000 C 
ATOM     30  C   UNL     1      -0.836  13.555  19.507  0.00  0.00    +0.000 C 
ATOM     31  C   UNL     1       0.163  12.799  18.614  0.00  0.00    +0.000 C 
BRANCH  27  32
ATOM     32  C   UNL     1       0.319   9.087  22.024  0.00  0.00    +0.000 C 
ATOM     33  O   UNL     1       0.881   9.361  23.062  0.00  0.00    +0.000 OA
BRANCH  32  34
ATOM     34  O   UNL     1      -0.665   8.173  22.019  0.00  0.00    +0.000 OA
ATOM     35  H   UNL     1      -0.299   7.500  21.402  0.00  0.00    +0.000 HD
ENDBRANCH  32  34
ENDBRANCH  27  32
ENDBRANCH  20  22
ENDBRANCH   1  20
TORSDOF 12
ENDMDL
MODEL 7
REMARK VINA RESULT:      -6.7      4.779      7.959
REMARK  Name = 
REMARK  14 active torsions:
REMARK  status: ('A' for Active; 'I' for Inactive)
REMARK    1  A    between atoms: C_1  and  C_2
REMARK    2  A    between atoms: C_2  and  N_3
REMARK    3  A    between atoms: N_3  and  C_4
REMARK    4  A    between atoms: N_3  and  C_6
REMARK    5  A    between atoms: C_4  and  C_5
REMARK    6  A    between atoms: C_6  and  C_7
REMARK    7  A    between atoms: C_7  and  C_8
REMARK    8  A    between atoms: C_8  and  N_9
REMARK    9  A    between atoms: N_9  and  C_10
REMARK   10  A    between atoms: C_15  and  S_16
REMARK   11  A    between atoms: S_16  and  N_19
REMARK   12  A    between atoms: N_19  and  C_20
REMARK   13  A    between atoms: C_25  and  C_26
REMARK   14  A    between atoms: C_26  and  O_28
REMARK                            x       y       z     vdW  Elec       q    Type
REMARK                         _______ _______ _______ _____ _____    ______ ____
ROOT
ATOM      1  S   UNL     1       5.066   4.539  18.605  0.00  0.00    +0.000 S 
ATOM      2  O   UNL     1       5.128   3.179  19.066  0.00  0.00    +0.000 OA
ATOM      3  O   UNL     1       5.540   5.621  19.442  0.00  0.00    +0.000 OA
ENDROOT
BRANCH   1   9
ATOM      4  C   UNL     1       6.836   5.691  16.699  0.00  0.00    +0.000 A 
ATOM      5  C   UNL     1       7.328   5.692  15.372  0.00  0.00    +0.000 A 
ATOM      6  C   UNL     1       6.923   4.750  14.424  0.00  0.00    +0.000 A 
ATOM      7  C   UNL     1       6.032   3.751  14.775  0.00  0.00    +0.000 A 
ATOM      8  C   UNL     1       5.542   3.698  16.077  0.00  0.00    +0.000 A 
ATOM      9  C   UNL     1       5.945   4.641  17.045  0.00  0.00    +0.000 A 
BRANCH   4  10
ATOM     10  N   UNL     1       7.294   6.657  17.617  0.00  0.00    +0.000 N 
ATOM     11  H   UNL     1       6.545   6.902  18.275  0.00  0.00    +0.000 HD
BRANCH  10  12
ATOM     12  C   UNL     1       8.056   7.827  17.151  0.00  0.00    +0.000 C 
BRANCH  12  13
ATOM     13  C   UNL     1       7.805   9.025  18.071  0.00  0.00    +0.000 C 
BRANCH  13  14
ATOM     14  C   UNL     1       9.085   9.640  18.677  0.00  0.00    +0.000 C 
BRANCH  14  15
ATOM     15  N   UNL     1       8.943  10.987  19.267  0.00  0.00    +0.000 NA
BRANCH  15  17
ATOM     16  C   UNL     1       9.987  12.364  21.120  0.00  0.00    +0.000 C 
ATOM     17  C   UNL     1       9.419  11.025  20.658  0.00  0.00    +0.000 C 
ENDBRANCH  15  17
BRANCH  15  18
ATOM     18  C   UNL     1       9.547  12.025  18.400  0.00  0.00    +0.000 C 
ATOM     19  C   UNL     1      10.863  11.664  17.712  0.00  0.00    +0.000 C 
ENDBRANCH  15  18
ENDBRANCH  14  15
ENDBRANCH  13  14
ENDBRANCH  12  13
ENDBRANCH  10  12
ENDBRANCH   4  10
ENDBRANCH   1   9
BRANCH   1  20
ATOM     20  N   UNL     1       3.419   4.843  18.285  0.00  0.00    +0.000 N 
ATOM     21  H   UNL     1       3.165   4.456  17.366  0.00  0.00    +0.000 HD
BRANCH  20  22
ATOM     22  C   UNL     1       2.777   6.101  18.585  0.00  0.00    +0.000 A 
ATOM     23  C   UNL     1       2.998   7.227  17.791  0.00  0.00    +0.000 A 
ATOM     24  C   UNL     1       2.446   8.491  18.143  0.00  0.00    +0.000 A 
ATOM     25  C   UNL     1       1.617   8.648  19.285  0.00  0.00    +0.000 A 
ATOM     26  C   UNL     1       1.415   7.514  20.073  0.00  0.00    +0.000 A 
ATOM     27  C   UNL     1       1.996   6.257  19.736  0.00  0.00    +0.000 A 
ATOM     28  C   UNL     1       0.707   7.627  21.385  0.00  0.00    +0.000 C 
ATOM     29  C   UNL     1      -0.128   8.828  21.714  0.00  0.00    +0.000 C 
ATOM     30  C   UNL     1       0.056  10.059  20.854  0.00  0.00    +0.000 C 
ATOM     31  C   UNL     1       1.033   9.989  19.668  0.00  0.00    +0.000 C 
BRANCH  27  32
ATOM     32  C   UNL     1       1.829   5.113  20.680  0.00  0.00    +0.000 C 
ATOM     33  O   UNL     1       2.567   4.782  21.582  0.00  0.00    +0.000 OA
BRANCH  32  34
ATOM     34  O   UNL     1       0.771   4.347  20.369  0.00  0.00    +0.000 OA
ATOM     35  H   UNL     1       0.339   4.889  19.671  0.00  0.00    +0.000 HD
ENDBRANCH  32  34
ENDBRANCH  27  32
ENDBRANCH  20  22
ENDBRANCH   1  20
TORSDOF 12
ENDMDL
MODEL 8
REMARK VINA RESULT:      -6.7      4.630      7.672
REMARK  Name = 
REMARK  14 active torsions:
REMARK  status: ('A' for Active; 'I' for Inactive)
REMARK    1  A    between atoms: C_1  and  C_2
REMARK    2  A    between atoms: C_2  and  N_3
REMARK    3  A    between atoms: N_3  and  C_4
REMARK    4  A    between atoms: N_3  and  C_6
REMARK    5  A    between atoms: C_4  and  C_5
REMARK    6  A    between atoms: C_6  and  C_7
REMARK    7  A    between atoms: C_7  and  C_8
REMARK    8  A    between atoms: C_8  and  N_9
REMARK    9  A    between atoms: N_9  and  C_10
REMARK   10  A    between atoms: C_15  and  S_16
REMARK   11  A    between atoms: S_16  and  N_19
REMARK   12  A    between atoms: N_19  and  C_20
REMARK   13  A    between atoms: C_25  and  C_26
REMARK   14  A    between atoms: C_26  and  O_28
REMARK                            x       y       z     vdW  Elec       q    Type
REMARK                         _______ _______ _______ _____ _____    ______ ____
ROOT
ATOM      1  S   UNL     1       4.422   3.788  18.192  0.00  0.00    +0.000 S 
ATOM      2  O   UNL     1       4.665   2.823  17.154  0.00  0.00    +0.000 OA
ATOM      3  O   UNL     1       4.359   3.377  19.578  0.00  0.00    +0.000 OA
ENDROOT
BRANCH   1   9
ATOM      4  C   UNL     1       6.131   5.616  16.840  0.00  0.00    +0.000 A 
ATOM      5  C   UNL     1       7.223   6.513  16.918  0.00  0.00    +0.000 A 
ATOM      6  C   UNL     1       7.862   6.810  18.124  0.00  0.00    +0.000 A 
ATOM      7  C   UNL     1       7.414   6.244  19.304  0.00  0.00    +0.000 A 
ATOM      8  C   UNL     1       6.326   5.376  19.276  0.00  0.00    +0.000 A 
ATOM      9  C   UNL     1       5.669   5.070  18.067  0.00  0.00    +0.000 A 
BRANCH   4  10
ATOM     10  N   UNL     1       5.515   5.369  15.597  0.00  0.00    +0.000 N 
ATOM     11  H   UNL     1       4.713   4.739  15.720  0.00  0.00    +0.000 HD
BRANCH  10  12
ATOM     12  C   UNL     1       6.326   5.044  14.413  0.00  0.00    +0.000 C 
BRANCH  12  13
ATOM     13  C   UNL     1       5.971   3.648  13.894  0.00  0.00    +0.000 C 
BRANCH  13  14
ATOM     14  C   UNL     1       5.760   3.573  12.366  0.00  0.00    +0.000 C 
BRANCH  14  15
ATOM     15  N   UNL     1       5.085   2.360  11.860  0.00  0.00    +0.000 NA
BRANCH  15  17
ATOM     16  C   UNL     1       3.812   4.103  10.533  0.00  0.00    +0.000 C 
ATOM     17  C   UNL     1       3.866   2.690  11.106  0.00  0.00    +0.000 C 
ENDBRANCH  15  17
BRANCH  15  18
ATOM     18  C   UNL     1       6.024   1.484  11.125  0.00  0.00    +0.000 C 
ATOM     19  C   UNL     1       7.463   1.980  10.989  0.00  0.00    +0.000 C 
ENDBRANCH  15  18
ENDBRANCH  14  15
ENDBRANCH  13  14
ENDBRANCH  12  13
ENDBRANCH  10  12
ENDBRANCH   4  10
ENDBRANCH   1   9
BRANCH   1  20
ATOM     20  N   UNL     1       2.918   4.500  17.817  0.00  0.00    +0.000 N 
ATOM     21  H   UNL     1       2.661   4.280  16.844  0.00  0.00    +0.000 HD
BRANCH  20  22
ATOM     22  C   UNL     1       2.552   5.833  18.229  0.00  0.00    +0.000 A 
ATOM     23  C   UNL     1       2.886   6.942  17.450  0.00  0.00    +0.000 A 
ATOM     24  C   UNL     1       2.616   8.264  17.904  0.00  0.00    +0.000 A 
ATOM     25  C   UNL     1       1.959   8.506  19.139  0.00  0.00    +0.000 A 
ATOM     26  C   UNL     1       1.641   7.387  19.910  0.00  0.00    +0.000 A 
ATOM     27  C   UNL     1       1.943   6.066  19.467  0.00  0.00    +0.000 A 
ATOM     28  C   UNL     1       1.114   7.555  21.298  0.00  0.00    +0.000 C 
ATOM     29  C   UNL     1       0.552   8.867  21.761  0.00  0.00    +0.000 C 
ATOM     30  C   UNL     1       0.862  10.088  20.924  0.00  0.00    +0.000 C 
ATOM     31  C   UNL     1       1.675   9.908  19.630  0.00  0.00    +0.000 C 
BRANCH  27  32
ATOM     32  C   UNL     1       1.675   4.922  20.388  0.00  0.00    +0.000 C 
ATOM     33  O   UNL     1       0.738   4.154  20.363  0.00  0.00    +0.000 OA
BRANCH  32  34
ATOM     34  O   UNL     1       2.560   4.861  21.396  0.00  0.00    +0.000 OA
ATOM     35  H   UNL     1       3.291   4.350  20.980  0.00  0.00    +0.000 HD
ENDBRANCH  32  34
ENDBRANCH  27  32
ENDBRANCH  20  22
ENDBRANCH   1  20
TORSDOF 12
ENDMDL
MODEL 9
REMARK VINA RESULT:      -6.6      3.296      4.933
REMARK  Name = 
REMARK  14 active torsions:
REMARK  status: ('A' for Active; 'I' for Inactive)
REMARK    1  A    between atoms: C_1  and  C_2
REMARK    2  A    between atoms: C_2  and  N_3
REMARK    3  A    between atoms: N_3  and  C_4
REMARK    4  A    between atoms: N_3  and  C_6
REMARK    5  A    between atoms: C_4  and  C_5
REMARK    6  A    between atoms: C_6  and  C_7
REMARK    7  A    between atoms: C_7  and  C_8
REMARK    8  A    between atoms: C_8  and  N_9
REMARK    9  A    between atoms: N_9  and  C_10
REMARK   10  A    between atoms: C_15  and  S_16
REMARK   11  A    between atoms: S_16  and  N_19
REMARK   12  A    between atoms: N_19  and  C_20
REMARK   13  A    between atoms: C_25  and  C_26
REMARK   14  A    between atoms: C_26  and  O_28
REMARK                            x       y       z     vdW  Elec       q    Type
REMARK                         _______ _______ _______ _____ _____    ______ ____
ROOT
ATOM      1  S   UNL     1       1.250  12.303  19.107  0.00  0.00    +0.000 S 
ATOM      2  O   UNL     1       1.425  13.464  19.937  0.00  0.00    +0.000 OA
ATOM      3  O   UNL     1       2.295  11.886  18.196  0.00  0.00    +0.000 OA
ENDROOT
BRANCH   1   9
ATOM      4  C   UNL     1       0.771   9.566  19.715  0.00  0.00    +0.000 A 
ATOM      5  C   UNL     1       0.322   8.612  20.659  0.00  0.00    +0.000 A 
ATOM      6  C   UNL     1      -0.063   8.965  21.954  0.00  0.00    +0.000 A 
ATOM      7  C   UNL     1       0.017  10.283  22.366  0.00  0.00    +0.000 A 
ATOM      8  C   UNL     1       0.478  11.251  21.479  0.00  0.00    +0.000 A 
ATOM      9  C   UNL     1       0.872  10.908  20.169  0.00  0.00    +0.000 A 
BRANCH   4  10
ATOM     10  N   UNL     1       1.162   9.148  18.428  0.00  0.00    +0.000 N 
ATOM     11  H   UNL     1       0.432   8.558  18.012  0.00  0.00    +0.000 HD
BRANCH  10  12
ATOM     12  C   UNL     1       2.521   8.636  18.191  0.00  0.00    +0.000 C 
BRANCH  12  13
ATOM     13  C   UNL     1       2.496   7.112  18.043  0.00  0.00    +0.000 C 
BRANCH  13  14
ATOM     14  C   UNL     1       3.857   6.487  17.669  0.00  0.00    +0.000 C 
BRANCH  14  15
ATOM     15  N   UNL     1       3.892   5.013  17.570  0.00  0.00    +0.000 NA
BRANCH  15  17
ATOM     16  C   UNL     1       2.499   2.901  17.684  0.00  0.00    +0.000 C 
ATOM     17  C   UNL     1       2.551   4.425  17.704  0.00  0.00    +0.000 C 
ENDBRANCH  15  17
BRANCH  15  18
ATOM     18  C   UNL     1       4.621   4.569  16.360  0.00  0.00    +0.000 C 
ATOM     19  C   UNL     1       6.128   4.354  16.506  0.00  0.00    +0.000 C 
ENDBRANCH  15  18
ENDBRANCH  14  15
ENDBRANCH  13  14
ENDBRANCH  12  13
ENDBRANCH  10  12
ENDBRANCH   4  10
ENDBRANCH   1   9
BRANCH   1  20
ATOM     20  N   UNL     1      -0.135  12.617  18.163  0.00  0.00    +0.000 N 
ATOM     21  H   UNL     1       0.051  13.398  17.518  0.00  0.00    +0.000 HD
BRANCH  20  22
ATOM     22  C   UNL     1      -1.475  12.613  18.701  0.00  0.00    +0.000 A 
ATOM     23  C   UNL     1      -1.791  13.348  19.844  0.00  0.00    +0.000 A 
ATOM     24  C   UNL     1      -3.084  13.265  20.434  0.00  0.00    +0.000 A 
ATOM     25  C   UNL     1      -4.112  12.470  19.861  0.00  0.00    +0.000 A 
ATOM     26  C   UNL     1      -3.776  11.734  18.725  0.00  0.00    +0.000 A 
ATOM     27  C   UNL     1      -2.470  11.794  18.156  0.00  0.00    +0.000 A 
ATOM     28  C   UNL     1      -4.737  10.737  18.162  0.00  0.00    +0.000 C 
ATOM     29  C   UNL     1      -6.190  10.766  18.535  0.00  0.00    +0.000 C 
ATOM     30  C   UNL     1      -6.579  11.581  19.749  0.00  0.00    +0.000 C 
ATOM     31  C   UNL     1      -5.486  12.372  20.486  0.00  0.00    +0.000 C 
BRANCH  27  32
ATOM     32  C   UNL     1      -2.147  10.899  17.005  0.00  0.00    +0.000 C 
ATOM     33  O   UNL     1      -1.633   9.802  17.041  0.00  0.00    +0.000 OA
BRANCH  32  34
ATOM     34  O   UNL     1      -2.386  11.485  15.821  0.00  0.00    +0.000 OA
ATOM     35  H   UNL     1      -1.804  10.961  15.226  0.00  0.00    +0.000 HD
ENDBRANCH  32  34
ENDBRANCH  27  32
ENDBRANCH  20  22
ENDBRANCH   1  20
TORSDOF 12
ENDMDL
