MODEL 1
REMARK VINA RESULT:      -8.3      0.000      0.000
REMARK  Name = 
REMARK  4 active torsions:
REMARK  status: ('A' for Active; 'I' for Inactive)
REMARK    1  A    between atoms: C_2  and  C_7
REMARK    2  A    between atoms: N_3  and  C_4
REMARK    3  A    between atoms: N_13  and  C_14
REMARK    4  A    between atoms: C_14  and  C_15
REMARK                            x       y       z     vdW  Elec       q    Type
REMARK                         _______ _______ _______ _____ _____    ______ ____
ROOT
ATOM      1  C   UNL     1       6.100   4.130  14.023  0.00  0.00    +0.000 A 
ATOM      2  C   UNL     1       7.357   4.688  14.258  0.00  0.00    +0.000 A 
ATOM      3  C   UNL     1       7.690   5.140  15.533  0.00  0.00    +0.000 A 
ATOM      4  C   UNL     1       6.784   5.013  16.597  0.00  0.00    +0.000 A 
ATOM      5  C   UNL     1       5.510   4.438  16.386  0.00  0.00    +0.000 A 
ATOM      6  C   UNL     1       5.183   4.024  15.077  0.00  0.00    +0.000 A 
ATOM      7  N   UNL     1       4.599   4.184  17.422  0.00  0.00    +0.000 N 
ATOM      8  C   UNL     1       5.153   4.073  18.777  0.00  0.00    +0.000 C 
ATOM      9  C   UNL     1       5.892   5.332  19.204  0.00  0.00    +0.000 C 
ATOM     10  S   UNL     1       7.370   5.610  18.186  0.00  0.00    +0.000 S 
ENDROOT
BRANCH   1  12
ATOM     11  O   UNL     1       6.749   3.170  11.980  0.00  0.00    +0.000 OA
ATOM     12  C   UNL     1       5.822   3.588  12.668  0.00  0.00    +0.000 C 
ATOM     13  N   UNL     1       4.508   3.617  12.245  0.00  0.00    +0.000 N 
ATOM     14  H   UNL     1       3.818   4.117  12.792  0.00  0.00    +0.000 HD
BRANCH  13  15
ATOM     15  C   UNL     1       4.139   3.169  10.938  0.00  0.00    +0.000 C 
ATOM     16  C   UNL     1       2.717   2.781  10.641  0.00  0.00    +0.000 C 
ATOM     17  C   UNL     1       3.299   4.023  10.033  0.00  0.00    +0.000 C 
ENDBRANCH  13  15
ENDBRANCH   1  12
BRANCH   7  18
ATOM     18  C   UNL     1       3.231   4.703  17.290  0.00  0.00    +0.000 C 
BRANCH  18  19
ATOM     19  C   UNL     1       2.300   4.168  18.363  0.00  0.00    +0.000 A 
ATOM     20  C   UNL     1       1.797   2.861  18.252  0.00  0.00    +0.000 A 
ATOM     21  C   UNL     1       1.005   2.311  19.263  0.00  0.00    +0.000 A 
ATOM     22  C   UNL     1       0.713   3.055  20.403  0.00  0.00    +0.000 A 
ATOM     23  C   UNL     1       1.204   4.351  20.531  0.00  0.00    +0.000 A 
ATOM     24  C   UNL     1       1.991   4.903  19.518  0.00  0.00    +0.000 A 
ENDBRANCH  18  19
ENDBRANCH   7  18
TORSDOF 4
ENDMDL
MODEL 2
REMARK VINA RESULT:      -8.3      0.089      1.009
REMARK  Name = 
REMARK  4 active torsions:
REMARK  status: ('A' for Active; 'I' for Inactive)
REMARK    1  A    between atoms: C_2  and  C_7
REMARK    2  A    between atoms: N_3  and  C_4
REMARK    3  A    between atoms: N_13  and  C_14
REMARK    4  A    between atoms: C_14  and  C_15
REMARK                            x       y       z     vdW  Elec       q    Type
REMARK                         _______ _______ _______ _____ _____    ______ ____
ROOT
ATOM      1  C   UNL     1       6.126   4.158  14.028  0.00  0.00    +0.000 A 
ATOM      2  C   UNL     1       7.368   4.754  14.248  0.00  0.00    +0.000 A 
ATOM      3  C   UNL     1       7.702   5.213  15.520  0.00  0.00    +0.000 A 
ATOM      4  C   UNL     1       6.815   5.054  16.596  0.00  0.00    +0.000 A 
ATOM      5  C   UNL     1       5.557   4.440  16.400  0.00  0.00    +0.000 A 
ATOM      6  C   UNL     1       5.226   4.020  15.094  0.00  0.00    +0.000 A 
ATOM      7  N   UNL     1       4.668   4.155  17.446  0.00  0.00    +0.000 N 
ATOM      8  C   UNL     1       5.243   4.057  18.794  0.00  0.00    +0.000 C 
ATOM      9  C   UNL     1       5.947   5.338  19.215  0.00  0.00    +0.000 C 
ATOM     10  S   UNL     1       7.402   5.666  18.179  0.00  0.00    +0.000 S 
ENDROOT
BRANCH   1  12
ATOM     11  O   UNL     1       6.781   3.271  11.954  0.00  0.00    +0.000 OA
ATOM     12  C   UNL     1       5.847   3.610  12.675  0.00  0.00    +0.000 C 
ATOM     13  N   UNL     1       4.522   3.546  12.292  0.00  0.00    +0.000 N 
ATOM     14  H   UNL     1       3.814   3.987  12.866  0.00  0.00    +0.000 HD
BRANCH  13  15
ATOM     15  C   UNL     1       4.148   3.086  10.991  0.00  0.00    +0.000 C 
ATOM     16  C   UNL     1       2.703   2.832  10.662  0.00  0.00    +0.000 C 
ATOM     17  C   UNL     1       3.426   3.984  10.028  0.00  0.00    +0.000 C 
ENDBRANCH  13  15
ENDBRANCH   1  12
BRANCH   7  18
ATOM     18  C   UNL     1       3.283   4.631  17.334  0.00  0.00    +0.000 C 
BRANCH  18  19
ATOM     19  C   UNL     1       2.380   4.052  18.407  0.00  0.00    +0.000 A 
ATOM     20  C   UNL     1       2.035   4.838  19.519  0.00  0.00    +0.000 A 
ATOM     21  C   UNL     1       1.140   4.362  20.482  0.00  0.00    +0.000 A 
ATOM     22  C   UNL     1       0.570   3.100  20.341  0.00  0.00    +0.000 A 
ATOM     23  C   UNL     1       0.899   2.308  19.244  0.00  0.00    +0.000 A 
ATOM     24  C   UNL     1       1.797   2.780  18.285  0.00  0.00    +0.000 A 
ENDBRANCH  18  19
ENDBRANCH   7  18
TORSDOF 4
ENDMDL
MODEL 3
REMARK VINA RESULT:      -7.8      1.373      1.637
REMARK  Name = 
REMARK  4 active torsions:
REMARK  status: ('A' for Active; 'I' for Inactive)
REMARK    1  A    between atoms: C_2  and  C_7
REMARK    2  A    between atoms: N_3  and  C_4
REMARK    3  A    between atoms: N_13  and  C_14
REMARK    4  A    between atoms: C_14  and  C_15
REMARK                            x       y       z     vdW  Elec       q    Type
REMARK                         _______ _______ _______ _____ _____    ______ ____
ROOT
ATOM      1  C   UNL     1       5.904   4.206  14.278  0.00  0.00    +0.000 A 
ATOM      2  C   UNL     1       7.202   4.704  14.396  0.00  0.00    +0.000 A 
ATOM      3  C   UNL     1       7.644   5.211  15.615  0.00  0.00    +0.000 A 
ATOM      4  C   UNL     1       6.807   5.198  16.742  0.00  0.00    +0.000 A 
ATOM      5  C   UNL     1       5.493   4.685  16.650  0.00  0.00    +0.000 A 
ATOM      6  C   UNL     1       5.056   4.214  15.394  0.00  0.00    +0.000 A 
ATOM      7  N   UNL     1       4.642   4.545  17.757  0.00  0.00    +0.000 N 
ATOM      8  C   UNL     1       5.281   4.483  19.078  0.00  0.00    +0.000 C 
ATOM      9  C   UNL     1       6.113   5.721  19.376  0.00  0.00    +0.000 C 
ATOM     10  S   UNL     1       7.531   5.854  18.250  0.00  0.00    +0.000 S 
ENDROOT
BRANCH   1  12
ATOM     11  O   UNL     1       4.467   3.964  12.437  0.00  0.00    +0.000 OA
ATOM     12  C   UNL     1       5.505   3.601  12.980  0.00  0.00    +0.000 C 
ATOM     13  N   UNL     1       6.335   2.622  12.471  0.00  0.00    +0.000 N 
ATOM     14  H   UNL     1       7.087   2.257  13.042  0.00  0.00    +0.000 HD
BRANCH  13  15
ATOM     15  C   UNL     1       6.015   1.938  11.257  0.00  0.00    +0.000 C 
ATOM     16  C   UNL     1       7.103   1.309  10.430  0.00  0.00    +0.000 C 
ATOM     17  C   UNL     1       6.117   0.443  11.157  0.00  0.00    +0.000 C 
ENDBRANCH  13  15
ENDBRANCH   1  12
BRANCH   7  18
ATOM     18  C   UNL     1       3.298   5.133  17.682  0.00  0.00    +0.000 C 
BRANCH  18  19
ATOM     19  C   UNL     1       2.288   4.385  18.532  0.00  0.00    +0.000 A 
ATOM     20  C   UNL     1       1.771   3.161  18.075  0.00  0.00    +0.000 A 
ATOM     21  C   UNL     1       0.903   2.409  18.871  0.00  0.00    +0.000 A 
ATOM     22  C   UNL     1       0.548   2.864  20.139  0.00  0.00    +0.000 A 
ATOM     23  C   UNL     1       1.052   4.074  20.608  0.00  0.00    +0.000 A 
ATOM     24  C   UNL     1       1.915   4.828  19.811  0.00  0.00    +0.000 A 
ENDBRANCH  18  19
ENDBRANCH   7  18
TORSDOF 4
ENDMDL
MODEL 4
REMARK VINA RESULT:      -7.7      1.011      1.669
REMARK  Name = 
REMARK  4 active torsions:
REMARK  status: ('A' for Active; 'I' for Inactive)
REMARK    1  A    between atoms: C_2  and  C_7
REMARK    2  A    between atoms: N_3  and  C_4
REMARK    3  A    between atoms: N_13  and  C_14
REMARK    4  A    between atoms: C_14  and  C_15
REMARK                            x       y       z     vdW  Elec       q    Type
REMARK                         _______ _______ _______ _____ _____    ______ ____
ROOT
ATOM      1  C   UNL     1       5.978   4.172  14.223  0.00  0.00    +0.000 A 
ATOM      2  C   UNL     1       7.126   4.903  14.528  0.00  0.00    +0.000 A 
ATOM      3  C   UNL     1       7.364   5.306  15.840  0.00  0.00    +0.000 A 
ATOM      4  C   UNL     1       6.477   4.957  16.870  0.00  0.00    +0.000 A 
ATOM      5  C   UNL     1       5.314   4.203  16.586  0.00  0.00    +0.000 A 
ATOM      6  C   UNL     1       5.075   3.842  15.243  0.00  0.00    +0.000 A 
ATOM      7  N   UNL     1       4.442   3.731  17.578  0.00  0.00    +0.000 N 
ATOM      8  C   UNL     1       4.989   3.608  18.935  0.00  0.00    +0.000 C 
ATOM      9  C   UNL     1       5.511   4.933  19.470  0.00  0.00    +0.000 C 
ATOM     10  S   UNL     1       6.938   5.519  18.512  0.00  0.00    +0.000 S 
ENDROOT
BRANCH   1  12
ATOM     11  O   UNL     1       6.799   3.501  12.127  0.00  0.00    +0.000 OA
ATOM     12  C   UNL     1       5.808   3.695  12.825  0.00  0.00    +0.000 C 
ATOM     13  N   UNL     1       4.512   3.527  12.380  0.00  0.00    +0.000 N 
ATOM     14  H   UNL     1       3.741   3.855  12.948  0.00  0.00    +0.000 HD
BRANCH  13  15
ATOM     15  C   UNL     1       4.237   3.124  11.036  0.00  0.00    +0.000 C 
ATOM     16  C   UNL     1       2.840   2.745  10.628  0.00  0.00    +0.000 C 
ATOM     17  C   UNL     1       3.459   4.008  10.104  0.00  0.00    +0.000 C 
ENDBRANCH  13  15
ENDBRANCH   1  12
BRANCH   7  18
ATOM     18  C   UNL     1       3.011   4.034  17.450  0.00  0.00    +0.000 C 
BRANCH  18  19
ATOM     19  C   UNL     1       2.576   5.176  18.350  0.00  0.00    +0.000 A 
ATOM     20  C   UNL     1       2.021   4.891  19.608  0.00  0.00    +0.000 A 
ATOM     21  C   UNL     1       1.687   5.921  20.493  0.00  0.00    +0.000 A 
ATOM     22  C   UNL     1       1.913   7.247  20.136  0.00  0.00    +0.000 A 
ATOM     23  C   UNL     1       2.464   7.548  18.894  0.00  0.00    +0.000 A 
ATOM     24  C   UNL     1       2.792   6.520  18.008  0.00  0.00    +0.000 A 
ENDBRANCH  18  19
ENDBRANCH   7  18
TORSDOF 4
ENDMDL
MODEL 5
REMARK VINA RESULT:      -7.6      1.027      1.771
REMARK  Name = 
REMARK  4 active torsions:
REMARK  status: ('A' for Active; 'I' for Inactive)
REMARK    1  A    between atoms: C_2  and  C_7
REMARK    2  A    between atoms: N_3  and  C_4
REMARK    3  A    between atoms: N_13  and  C_14
REMARK    4  A    between atoms: C_14  and  C_15
REMARK                            x       y       z     vdW  Elec       q    Type
REMARK                         _______ _______ _______ _____ _____    ______ ____
ROOT
ATOM      1  C   UNL     1       5.993   4.090  14.101  0.00  0.00    +0.000 A 
ATOM      2  C   UNL     1       7.172   4.797  14.333  0.00  0.00    +0.000 A 
ATOM      3  C   UNL     1       7.471   5.249  15.616  0.00  0.00    +0.000 A 
ATOM      4  C   UNL     1       6.612   4.973  16.691  0.00  0.00    +0.000 A 
ATOM      5  C   UNL     1       5.418   4.245  16.483  0.00  0.00    +0.000 A 
ATOM      6  C   UNL     1       5.119   3.833  15.166  0.00  0.00    +0.000 A 
ATOM      7  N   UNL     1       4.569   3.845  17.525  0.00  0.00    +0.000 N 
ATOM      8  C   UNL     1       5.161   3.764  18.866  0.00  0.00    +0.000 C 
ATOM      9  C   UNL     1       5.742   5.095  19.322  0.00  0.00    +0.000 C 
ATOM     10  S   UNL     1       7.150   5.592  18.289  0.00  0.00    +0.000 S 
ENDROOT
BRANCH   1  12
ATOM     11  O   UNL     1       6.703   3.123  12.082  0.00  0.00    +0.000 OA
ATOM     12  C   UNL     1       5.758   3.557  12.733  0.00  0.00    +0.000 C 
ATOM     13  N   UNL     1       4.462   3.616  12.259  0.00  0.00    +0.000 N 
ATOM     14  H   UNL     1       3.762   4.128  12.780  0.00  0.00    +0.000 HD
BRANCH  13  15
ATOM     15  C   UNL     1       4.137   3.180  10.936  0.00  0.00    +0.000 C 
ATOM     16  C   UNL     1       2.734   2.759  10.599  0.00  0.00    +0.000 C 
ATOM     17  C   UNL     1       3.296   4.026  10.025  0.00  0.00    +0.000 C 
ENDBRANCH  13  15
ENDBRANCH   1  12
BRANCH   7  18
ATOM     18  C   UNL     1       3.144   4.187  17.434  0.00  0.00    +0.000 C 
BRANCH  18  19
ATOM     19  C   UNL     1       2.748   5.289  18.400  0.00  0.00    +0.000 A 
ATOM     20  C   UNL     1       2.875   6.632  18.007  0.00  0.00    +0.000 A 
ATOM     21  C   UNL     1       2.442   7.666  18.842  0.00  0.00    +0.000 A 
ATOM     22  C   UNL     1       1.867   7.372  20.075  0.00  0.00    +0.000 A 
ATOM     23  C   UNL     1       1.732   6.048  20.480  0.00  0.00    +0.000 A 
ATOM     24  C   UNL     1       2.169   5.014  19.649  0.00  0.00    +0.000 A 
ENDBRANCH  18  19
ENDBRANCH   7  18
TORSDOF 4
ENDMDL
MODEL 6
REMARK VINA RESULT:      -7.5      1.355      1.909
REMARK  Name = 
REMARK  4 active torsions:
REMARK  status: ('A' for Active; 'I' for Inactive)
REMARK    1  A    between atoms: C_2  and  C_7
REMARK    2  A    between atoms: N_3  and  C_4
REMARK    3  A    between atoms: N_13  and  C_14
REMARK    4  A    between atoms: C_14  and  C_15
REMARK                            x       y       z     vdW  Elec       q    Type
REMARK                         _______ _______ _______ _____ _____    ______ ____
ROOT
ATOM      1  C   UNL     1       5.914   4.288  14.192  0.00  0.00    +0.000 A 
ATOM      2  C   UNL     1       7.174   4.878  14.287  0.00  0.00    +0.000 A 
ATOM      3  C   UNL     1       7.604   5.407  15.502  0.00  0.00    +0.000 A 
ATOM      4  C   UNL     1       6.795   5.324  16.646  0.00  0.00    +0.000 A 
ATOM      5  C   UNL     1       5.520   4.716  16.577  0.00  0.00    +0.000 A 
ATOM      6  C   UNL     1       5.091   4.225  15.325  0.00  0.00    +0.000 A 
ATOM      7  N   UNL     1       4.705   4.506  17.700  0.00  0.00    +0.000 N 
ATOM      8  C   UNL     1       5.375   4.480  19.006  0.00  0.00    +0.000 C 
ATOM      9  C   UNL     1       6.121   5.773  19.299  0.00  0.00    +0.000 C 
ATOM     10  S   UNL     1       7.500   6.019  18.144  0.00  0.00    +0.000 S 
ENDROOT
BRANCH   1  12
ATOM     11  O   UNL     1       4.586   4.120  12.262  0.00  0.00    +0.000 OA
ATOM     12  C   UNL     1       5.533   3.665  12.897  0.00  0.00    +0.000 C 
ATOM     13  N   UNL     1       6.268   2.568  12.495  0.00  0.00    +0.000 N 
ATOM     14  H   UNL     1       6.930   2.147  13.136  0.00  0.00    +0.000 HD
BRANCH  13  15
ATOM     15  C   UNL     1       5.950   1.863  11.293  0.00  0.00    +0.000 C 
ATOM     16  C   UNL     1       7.044   1.278  10.443  0.00  0.00    +0.000 C 
ATOM     17  C   UNL     1       6.116   0.373  11.199  0.00  0.00    +0.000 C 
ENDBRANCH  13  15
ENDBRANCH   1  12
BRANCH   7  18
ATOM     18  C   UNL     1       3.321   4.994  17.658  0.00  0.00    +0.000 C 
BRANCH  18  19
ATOM     19  C   UNL     1       2.399   4.208  18.573  0.00  0.00    +0.000 A 
ATOM     20  C   UNL     1       1.897   4.815  19.735  0.00  0.00    +0.000 A 
ATOM     21  C   UNL     1       0.982   4.147  20.554  0.00  0.00    +0.000 A 
ATOM     22  C   UNL     1       0.549   2.868  20.216  0.00  0.00    +0.000 A 
ATOM     23  C   UNL     1       1.035   2.251  19.066  0.00  0.00    +0.000 A 
ATOM     24  C   UNL     1       1.953   2.917  18.252  0.00  0.00    +0.000 A 
ENDBRANCH  18  19
ENDBRANCH   7  18
TORSDOF 4
ENDMDL
MODEL 7
REMARK VINA RESULT:      -7.4      3.705      5.992
REMARK  Name = 
REMARK  4 active torsions:
REMARK  status: ('A' for Active; 'I' for Inactive)
REMARK    1  A    between atoms: C_2  and  C_7
REMARK    2  A    between atoms: N_3  and  C_4
REMARK    3  A    between atoms: N_13  and  C_14
REMARK    4  A    between atoms: C_14  and  C_15
REMARK                            x       y       z     vdW  Elec       q    Type
REMARK                         _______ _______ _______ _____ _____    ______ ____
ROOT
ATOM      1  C   UNL     1       6.034   5.678  17.224  0.00  0.00    +0.000 A 
ATOM      2  C   UNL     1       6.221   4.361  16.805  0.00  0.00    +0.000 A 
ATOM      3  C   UNL     1       5.198   3.430  16.963  0.00  0.00    +0.000 A 
ATOM      4  C   UNL     1       3.962   3.808  17.511  0.00  0.00    +0.000 A 
ATOM      5  C   UNL     1       3.744   5.141  17.929  0.00  0.00    +0.000 A 
ATOM      6  C   UNL     1       4.811   6.056  17.795  0.00  0.00    +0.000 A 
ATOM      7  N   UNL     1       2.505   5.611  18.386  0.00  0.00    +0.000 N 
ATOM      8  C   UNL     1       1.318   4.849  17.980  0.00  0.00    +0.000 C 
ATOM      9  C   UNL     1       1.379   3.398  18.435  0.00  0.00    +0.000 C 
ATOM     10  S   UNL     1       2.732   2.504  17.618  0.00  0.00    +0.000 S 
ENDROOT
BRANCH   1  12
ATOM     11  O   UNL     1       7.867   6.487  15.998  0.00  0.00    +0.000 OA
ATOM     12  C   UNL     1       7.124   6.654  16.960  0.00  0.00    +0.000 C 
ATOM     13  N   UNL     1       7.254   7.697  17.856  0.00  0.00    +0.000 N 
ATOM     14  H   UNL     1       6.714   7.690  18.713  0.00  0.00    +0.000 HD
BRANCH  13  15
ATOM     15  C   UNL     1       8.302   8.660  17.726  0.00  0.00    +0.000 C 
ATOM     16  C   UNL     1       8.016  10.124  17.914  0.00  0.00    +0.000 C 
ATOM     17  C   UNL     1       8.845   9.384  18.924  0.00  0.00    +0.000 C 
ENDBRANCH  13  15
ENDBRANCH   1  12
BRANCH   7  18
ATOM     18  C   UNL     1       2.455   6.301  19.682  0.00  0.00    +0.000 C 
BRANCH  18  19
ATOM     19  C   UNL     1       1.962   7.731  19.562  0.00  0.00    +0.000 A 
ATOM     20  C   UNL     1       2.072   8.399  18.330  0.00  0.00    +0.000 A 
ATOM     21  C   UNL     1       1.553   9.686  18.166  0.00  0.00    +0.000 A 
ATOM     22  C   UNL     1       0.908  10.319  19.225  0.00  0.00    +0.000 A 
ATOM     23  C   UNL     1       0.789   9.672  20.452  0.00  0.00    +0.000 A 
ATOM     24  C   UNL     1       1.312   8.388  20.618  0.00  0.00    +0.000 A 
ENDBRANCH  18  19
ENDBRANCH   7  18
TORSDOF 4
ENDMDL
MODEL 8
REMARK VINA RESULT:      -7.3      3.722      6.033
REMARK  Name = 
REMARK  4 active torsions:
REMARK  status: ('A' for Active; 'I' for Inactive)
REMARK    1  A    between atoms: C_2  and  C_7
REMARK    2  A    between atoms: N_3  and  C_4
REMARK    3  A    between atoms: N_13  and  C_14
REMARK    4  A    between atoms: C_14  and  C_15
REMARK                            x       y       z     vdW  Elec       q    Type
REMARK                         _______ _______ _______ _____ _____    ______ ____
ROOT
ATOM      1  C   UNL     1       6.006   5.656  17.228  0.00  0.00    +0.000 A 
ATOM      2  C   UNL     1       6.198   4.329  16.843  0.00  0.00    +0.000 A 
ATOM      3  C   UNL     1       5.176   3.399  17.020  0.00  0.00    +0.000 A 
ATOM      4  C   UNL     1       3.938   3.788  17.554  0.00  0.00    +0.000 A 
ATOM      5  C   UNL     1       3.715   5.131  17.938  0.00  0.00    +0.000 A 
ATOM      6  C   UNL     1       4.780   6.044  17.785  0.00  0.00    +0.000 A 
ATOM      7  N   UNL     1       2.473   5.609  18.379  0.00  0.00    +0.000 N 
ATOM      8  C   UNL     1       1.289   4.834  17.987  0.00  0.00    +0.000 C 
ATOM      9  C   UNL     1       1.352   3.396  18.478  0.00  0.00    +0.000 C 
ATOM     10  S   UNL     1       2.710   2.484  17.689  0.00  0.00    +0.000 S 
ENDROOT
BRANCH   1  12
ATOM     11  O   UNL     1       7.851   6.430  15.998  0.00  0.00    +0.000 OA
ATOM     12  C   UNL     1       7.095   6.627  16.944  0.00  0.00    +0.000 C 
ATOM     13  N   UNL     1       7.207   7.702  17.804  0.00  0.00    +0.000 N 
ATOM     14  H   UNL     1       6.656   7.723  18.653  0.00  0.00    +0.000 HD
BRANCH  13  15
ATOM     15  C   UNL     1       8.253   8.665  17.652  0.00  0.00    +0.000 C 
ATOM     16  C   UNL     1       7.998  10.116  17.954  0.00  0.00    +0.000 C 
ATOM     17  C   UNL     1       8.894   9.310  18.848  0.00  0.00    +0.000 C 
ENDBRANCH  13  15
ENDBRANCH   1  12
BRANCH   7  18
ATOM     18  C   UNL     1       2.417   6.331  19.657  0.00  0.00    +0.000 C 
BRANCH  18  19
ATOM     19  C   UNL     1       1.871   7.739  19.507  0.00  0.00    +0.000 A 
ATOM     20  C   UNL     1       1.286   8.375  20.614  0.00  0.00    +0.000 A 
ATOM     21  C   UNL     1       0.848   9.699  20.530  0.00  0.00    +0.000 A 
ATOM     22  C   UNL     1       1.000  10.410  19.342  0.00  0.00    +0.000 A 
ATOM     23  C   UNL     1       1.579   9.796  18.235  0.00  0.00    +0.000 A 
ATOM     24  C   UNL     1       2.011   8.471  18.317  0.00  0.00    +0.000 A 
ENDBRANCH  18  19
ENDBRANCH   7  18
TORSDOF 4
ENDMDL
MODEL 9
REMARK VINA RESULT:      -7.2      4.389      8.175
REMARK  Name = 
REMARK  4 active torsions:
REMARK  status: ('A' for Active; 'I' for Inactive)
REMARK    1  A    between atoms: C_2  and  C_7
REMARK    2  A    between atoms: N_3  and  C_4
REMARK    3  A    between atoms: N_13  and  C_14
REMARK    4  A    between atoms: C_14  and  C_15
REMARK                            x       y       z     vdW  Elec       q    Type
REMARK                         _______ _______ _______ _____ _____    ______ ____
ROOT
ATOM      1  C   UNL     1       1.824   6.255  20.090  0.00  0.00    +0.000 A 
ATOM      2  C   UNL     1       0.791   5.382  20.431  0.00  0.00    +0.000 A 
ATOM      3  C   UNL     1       0.916   4.020  20.165  0.00  0.00    +0.000 A 
ATOM      4  C   UNL     1       2.086   3.507  19.584  0.00  0.00    +0.000 A 
ATOM      5  C   UNL     1       3.153   4.371  19.244  0.00  0.00    +0.000 A 
ATOM      6  C   UNL     1       2.985   5.751  19.487  0.00  0.00    +0.000 A 
ATOM      7  N   UNL     1       4.388   3.916  18.760  0.00  0.00    +0.000 N 
ATOM      8  C   UNL     1       4.742   2.523  19.059  0.00  0.00    +0.000 C 
ATOM      9  C   UNL     1       3.719   1.537  18.514  0.00  0.00    +0.000 C 
ATOM     10  S   UNL     1       2.111   1.729  19.335  0.00  0.00    +0.000 S 
ENDROOT
BRANCH   1  12
ATOM     11  O   UNL     1       2.036   8.558  19.682  0.00  0.00    +0.000 OA
ATOM     12  C   UNL     1       1.680   7.685  20.468  0.00  0.00    +0.000 C 
ATOM     13  N   UNL     1       1.170   7.947  21.724  0.00  0.00    +0.000 N 
ATOM     14  H   UNL     1       1.045   7.187  22.382  0.00  0.00    +0.000 HD
BRANCH  13  15
ATOM     15  C   UNL     1       1.041   9.286  22.207  0.00  0.00    +0.000 C 
ATOM     16  C   UNL     1      -0.219  10.067  21.953  0.00  0.00    +0.000 C 
ATOM     17  C   UNL     1       0.118   9.617  23.344  0.00  0.00    +0.000 C 
ENDBRANCH  13  15
ENDBRANCH   1  12
BRANCH   7  18
ATOM     18  C   UNL     1       4.902   4.492  17.511  0.00  0.00    +0.000 C 
BRANCH  18  19
ATOM     19  C   UNL     1       6.043   5.466  17.746  0.00  0.00    +0.000 A 
ATOM     20  C   UNL     1       6.088   6.666  17.018  0.00  0.00    +0.000 A 
ATOM     21  C   UNL     1       7.079   7.619  17.270  0.00  0.00    +0.000 A 
ATOM     22  C   UNL     1       8.030   7.391  18.260  0.00  0.00    +0.000 A 
ATOM     23  C   UNL     1       8.000   6.208  18.993  0.00  0.00    +0.000 A 
ATOM     24  C   UNL     1       7.014   5.253  18.737  0.00  0.00    +0.000 A 
ENDBRANCH  18  19
ENDBRANCH   7  18
TORSDOF 4
ENDMDL
