MODEL 1
REMARK VINA RESULT:      -7.5      0.000      0.000
REMARK  Name = 
REMARK  2 active torsions:
REMARK  status: ('A' for Active; 'I' for Inactive)
REMARK    1  A    between atoms: C_7  and  C_8
REMARK    2  A    between atoms: C_12  and  N_13
REMARK                            x       y       z     vdW  Elec       q    Type
REMARK                         _______ _______ _______ _____ _____    ______ ____
ROOT
ATOM      1  O   UNL     1       1.597   2.570  22.273  0.00  0.00    +0.000 OA
ATOM      2  C   UNL     1       2.099   3.053  21.276  0.00  0.00    +0.000 A 
ATOM      3  C   UNL     1       1.614   4.271  20.579  0.00  0.00    +0.000 A 
ATOM      4  C   UNL     1       2.432   4.412  19.526  0.00  0.00    +0.000 A 
ATOM      5  N   UNL     1       2.381   5.449  18.628  0.00  0.00    +0.000 NA
ATOM      6  C   UNL     1       3.344   5.400  17.748  0.00  0.00    +0.000 A 
ATOM      7  C   UNL     1       4.431   4.361  17.628  0.00  0.00    +0.000 A 
ATOM      8  C   UNL     1       4.369   3.398  18.566  0.00  0.00    +0.000 A 
ATOM      9  N   UNL     1       3.365   3.388  19.492  0.00  0.00    +0.000 N 
ATOM     10  N   UNL     1       3.200   2.590  20.581  0.00  0.00    +0.000 N 
ATOM     11  H   UNL     1       3.652   1.699  20.706  0.00  0.00    +0.000 HD
ENDROOT
BRANCH   7  12
ATOM     12  C   UNL     1       5.383   4.427  16.571  0.00  0.00    +0.000 A 
ATOM     13  N   UNL     1       5.101   4.053  15.311  0.00  0.00    +0.000 NA
ATOM     14  N   UNL     1       6.226   4.306  14.620  0.00  0.00    +0.000 N 
ATOM     15  C   UNL     1       7.222   4.832  15.385  0.00  0.00    +0.000 A 
ATOM     16  C   UNL     1       6.713   4.911  16.667  0.00  0.00    +0.000 A 
ATOM     17  H   UNL     1       6.238   4.099  13.626  0.00  0.00    +0.000 HD
BRANCH  16  18
ATOM     18  N   UNL     1       7.423   5.405  17.814  0.00  0.00    +0.000 N 
ATOM     19  O   UNL     1       7.929   4.570  18.569  0.00  0.00    +0.000 OA
ATOM     20  O   UNL     1       7.473   6.631  17.953  0.00  0.00    +0.000 OA
ENDBRANCH  16  18
ENDBRANCH   7  12
TORSDOF 2
ENDMDL
MODEL 2
REMARK VINA RESULT:      -7.2      2.221      5.786
REMARK  Name = 
REMARK  2 active torsions:
REMARK  status: ('A' for Active; 'I' for Inactive)
REMARK    1  A    between atoms: C_7  and  C_8
REMARK    2  A    between atoms: C_12  and  N_13
REMARK                            x       y       z     vdW  Elec       q    Type
REMARK                         _______ _______ _______ _____ _____    ______ ____
ROOT
ATOM      1  O   UNL     1       7.709   8.132  16.971  0.00  0.00    +0.000 OA
ATOM      2  C   UNL     1       6.994   7.237  17.379  0.00  0.00    +0.000 A 
ATOM      3  C   UNL     1       7.429   6.137  18.276  0.00  0.00    +0.000 A 
ATOM      4  C   UNL     1       6.340   5.371  18.433  0.00  0.00    +0.000 A 
ATOM      5  N   UNL     1       6.272   4.261  19.237  0.00  0.00    +0.000 NA
ATOM      6  C   UNL     1       5.074   3.746  19.286  0.00  0.00    +0.000 A 
ATOM      7  C   UNL     1       3.836   4.225  18.568  0.00  0.00    +0.000 A 
ATOM      8  C   UNL     1       4.035   5.320  17.811  0.00  0.00    +0.000 A 
ATOM      9  N   UNL     1       5.277   5.879  17.705  0.00  0.00    +0.000 N 
ATOM     10  N   UNL     1       5.654   7.040  17.105  0.00  0.00    +0.000 N 
ATOM     11  H   UNL     1       5.112   7.520  16.404  0.00  0.00    +0.000 HD
ENDROOT
BRANCH   7  12
ATOM     12  C   UNL     1       2.608   3.514  18.689  0.00  0.00    +0.000 A 
ATOM     13  N   UNL     1       2.109   2.746  17.706  0.00  0.00    +0.000 NA
ATOM     14  N   UNL     1       0.983   2.223  18.219  0.00  0.00    +0.000 N 
ATOM     15  C   UNL     1       0.736   2.622  19.498  0.00  0.00    +0.000 A 
ATOM     16  C   UNL     1       1.768   3.477  19.832  0.00  0.00    +0.000 A 
ATOM     17  H   UNL     1       0.435   1.595  17.639  0.00  0.00    +0.000 HD
BRANCH  16  18
ATOM     18  N   UNL     1       1.917   4.146  21.094  0.00  0.00    +0.000 N 
ATOM     19  O   UNL     1       2.152   3.445  22.083  0.00  0.00    +0.000 OA
ATOM     20  O   UNL     1       1.801   5.376  21.090  0.00  0.00    +0.000 OA
ENDBRANCH  16  18
ENDBRANCH   7  12
TORSDOF 2
ENDMDL
MODEL 3
REMARK VINA RESULT:      -7.2      1.803      1.946
REMARK  Name = 
REMARK  2 active torsions:
REMARK  status: ('A' for Active; 'I' for Inactive)
REMARK    1  A    between atoms: C_7  and  C_8
REMARK    2  A    between atoms: C_12  and  N_13
REMARK                            x       y       z     vdW  Elec       q    Type
REMARK                         _______ _______ _______ _____ _____    ______ ____
ROOT
ATOM      1  O   UNL     1       1.020   2.496  22.256  0.00  0.00    +0.000 OA
ATOM      2  C   UNL     1       1.687   2.908  21.326  0.00  0.00    +0.000 A 
ATOM      3  C   UNL     1       1.755   2.285  19.981  0.00  0.00    +0.000 A 
ATOM      4  C   UNL     1       2.628   3.040  19.297  0.00  0.00    +0.000 A 
ATOM      5  N   UNL     1       2.956   2.856  17.977  0.00  0.00    +0.000 NA
ATOM      6  C   UNL     1       3.760   3.779  17.525  0.00  0.00    +0.000 A 
ATOM      7  C   UNL     1       4.337   4.950  18.282  0.00  0.00    +0.000 A 
ATOM      8  C   UNL     1       3.940   5.017  19.566  0.00  0.00    +0.000 A 
ATOM      9  N   UNL     1       3.122   4.059  20.095  0.00  0.00    +0.000 N 
ATOM     10  N   UNL     1       2.515   4.015  21.311  0.00  0.00    +0.000 N 
ATOM     11  H   UNL     1       2.807   4.551  22.112  0.00  0.00    +0.000 HD
ENDROOT
BRANCH   7  12
ATOM     12  C   UNL     1       5.247   5.845  17.650  0.00  0.00    +0.000 A 
ATOM     13  N   UNL     1       4.863   6.747  16.730  0.00  0.00    +0.000 NA
ATOM     14  N   UNL     1       5.986   7.415  16.417  0.00  0.00    +0.000 N 
ATOM     15  C   UNL     1       7.081   6.980  17.102  0.00  0.00    +0.000 A 
ATOM     16  C   UNL     1       6.639   5.947  17.905  0.00  0.00    +0.000 A 
ATOM     17  H   UNL     1       5.929   8.161  15.731  0.00  0.00    +0.000 HD
BRANCH  16  18
ATOM     18  N   UNL     1       7.459   5.182  18.802  0.00  0.00    +0.000 N 
ATOM     19  O   UNL     1       8.191   4.321  18.305  0.00  0.00    +0.000 OA
ATOM     20  O   UNL     1       7.370   5.451  20.004  0.00  0.00    +0.000 OA
ENDBRANCH  16  18
ENDBRANCH   7  12
TORSDOF 2
ENDMDL
MODEL 4
REMARK VINA RESULT:      -7.2      0.972      1.173
REMARK  Name = 
REMARK  2 active torsions:
REMARK  status: ('A' for Active; 'I' for Inactive)
REMARK    1  A    between atoms: C_7  and  C_8
REMARK    2  A    between atoms: C_12  and  N_13
REMARK                            x       y       z     vdW  Elec       q    Type
REMARK                         _______ _______ _______ _____ _____    ______ ____
ROOT
ATOM      1  O   UNL     1       1.446   2.382  22.321  0.00  0.00    +0.000 OA
ATOM      2  C   UNL     1       1.891   2.672  21.227  0.00  0.00    +0.000 A 
ATOM      3  C   UNL     1       1.077   2.920  20.011  0.00  0.00    +0.000 A 
ATOM      4  C   UNL     1       1.973   3.166  19.044  0.00  0.00    +0.000 A 
ATOM      5  N   UNL     1       1.656   3.504  17.751  0.00  0.00    +0.000 NA
ATOM      6  C   UNL     1       2.709   3.779  17.031  0.00  0.00    +0.000 A 
ATOM      7  C   UNL     1       4.155   3.747  17.462  0.00  0.00    +0.000 A 
ATOM      8  C   UNL     1       4.331   3.401  18.750  0.00  0.00    +0.000 A 
ATOM      9  N   UNL     1       3.264   3.075  19.538  0.00  0.00    +0.000 N 
ATOM     10  N   UNL     1       3.219   2.827  20.874  0.00  0.00    +0.000 N 
ATOM     11  H   UNL     1       4.017   2.570  21.432  0.00  0.00    +0.000 HD
ENDROOT
BRANCH   7  12
ATOM     12  C   UNL     1       5.195   4.029  16.530  0.00  0.00    +0.000 A 
ATOM     13  N   UNL     1       5.083   3.779  15.214  0.00  0.00    +0.000 NA
ATOM     14  N   UNL     1       6.237   4.219  14.684  0.00  0.00    +0.000 N 
ATOM     15  C   UNL     1       7.088   4.746  15.607  0.00  0.00    +0.000 A 
ATOM     16  C   UNL     1       6.448   4.625  16.825  0.00  0.00    +0.000 A 
ATOM     17  H   UNL     1       6.371   4.133  13.682  0.00  0.00    +0.000 HD
BRANCH  16  18
ATOM     18  N   UNL     1       6.981   5.047  18.090  0.00  0.00    +0.000 N 
ATOM     19  O   UNL     1       6.428   6.000  18.648  0.00  0.00    +0.000 OA
ATOM     20  O   UNL     1       7.952   4.419  18.524  0.00  0.00    +0.000 OA
ENDBRANCH  16  18
ENDBRANCH   7  12
TORSDOF 2
ENDMDL
MODEL 5
REMARK VINA RESULT:      -7.2      1.942      5.857
REMARK  Name = 
REMARK  2 active torsions:
REMARK  status: ('A' for Active; 'I' for Inactive)
REMARK    1  A    between atoms: C_7  and  C_8
REMARK    2  A    between atoms: C_12  and  N_13
REMARK                            x       y       z     vdW  Elec       q    Type
REMARK                         _______ _______ _______ _____ _____    ______ ____
ROOT
ATOM      1  O   UNL     1       7.852   5.587  14.737  0.00  0.00    +0.000 OA
ATOM      2  C   UNL     1       7.064   5.181  15.569  0.00  0.00    +0.000 A 
ATOM      3  C   UNL     1       7.356   5.019  17.016  0.00  0.00    +0.000 A 
ATOM      4  C   UNL     1       6.229   4.516  17.539  0.00  0.00    +0.000 A 
ATOM      5  N   UNL     1       6.032   4.257  18.873  0.00  0.00    +0.000 NA
ATOM      6  C   UNL     1       4.818   3.856  19.134  0.00  0.00    +0.000 A 
ATOM      7  C   UNL     1       3.686   3.649  18.158  0.00  0.00    +0.000 A 
ATOM      8  C   UNL     1       4.007   3.935  16.882  0.00  0.00    +0.000 A 
ATOM      9  N   UNL     1       5.273   4.331  16.554  0.00  0.00    +0.000 N 
ATOM     10  N   UNL     1       5.756   4.782  15.365  0.00  0.00    +0.000 N 
ATOM     11  H   UNL     1       5.315   4.623  14.474  0.00  0.00    +0.000 HD
ENDROOT
BRANCH   7  12
ATOM     12  C   UNL     1       2.427   3.154  18.603  0.00  0.00    +0.000 A 
ATOM     13  N   UNL     1       1.743   2.203  17.944  0.00  0.00    +0.000 NA
ATOM     14  N   UNL     1       0.650   1.985  18.696  0.00  0.00    +0.000 N 
ATOM     15  C   UNL     1       0.604   2.758  19.817  0.00  0.00    +0.000 A 
ATOM     16  C   UNL     1       1.740   3.544  19.781  0.00  0.00    +0.000 A 
ATOM     17  H   UNL     1      -0.019   1.288  18.384  0.00  0.00    +0.000 HD
BRANCH  16  18
ATOM     18  N   UNL     1       2.105   4.522  20.767  0.00  0.00    +0.000 N 
ATOM     19  O   UNL     1       2.457   4.105  21.875  0.00  0.00    +0.000 OA
ATOM     20  O   UNL     1       2.041   5.708  20.427  0.00  0.00    +0.000 OA
ENDBRANCH  16  18
ENDBRANCH   7  12
TORSDOF 2
ENDMDL
MODEL 6
REMARK VINA RESULT:      -7.1      2.162      6.064
REMARK  Name = 
REMARK  2 active torsions:
REMARK  status: ('A' for Active; 'I' for Inactive)
REMARK    1  A    between atoms: C_7  and  C_8
REMARK    2  A    between atoms: C_12  and  N_13
REMARK                            x       y       z     vdW  Elec       q    Type
REMARK                         _______ _______ _______ _____ _____    ______ ____
ROOT
ATOM      1  O   UNL     1       7.711   5.359  15.130  0.00  0.00    +0.000 OA
ATOM      2  C   UNL     1       6.788   5.293  15.918  0.00  0.00    +0.000 A 
ATOM      3  C   UNL     1       5.727   6.318  16.081  0.00  0.00    +0.000 A 
ATOM      4  C   UNL     1       4.952   5.854  17.073  0.00  0.00    +0.000 A 
ATOM      5  N   UNL     1       3.808   6.465  17.523  0.00  0.00    +0.000 NA
ATOM      6  C   UNL     1       3.189   5.765  18.434  0.00  0.00    +0.000 A 
ATOM      7  C   UNL     1       3.602   4.434  19.012  0.00  0.00    +0.000 A 
ATOM      8  C   UNL     1       4.741   3.943  18.489  0.00  0.00    +0.000 A 
ATOM      9  N   UNL     1       5.441   4.651  17.553  0.00  0.00    +0.000 N 
ATOM     10  N   UNL     1       6.525   4.279  16.821  0.00  0.00    +0.000 N 
ATOM     11  H   UNL     1       7.145   3.524  17.066  0.00  0.00    +0.000 HD
ENDROOT
BRANCH   7  12
ATOM     12  C   UNL     1       2.836   3.823  20.046  0.00  0.00    +0.000 A 
ATOM     13  N   UNL     1       2.961   4.156  21.341  0.00  0.00    +0.000 NA
ATOM     14  N   UNL     1       2.050   3.402  21.978  0.00  0.00    +0.000 N 
ATOM     15  C   UNL     1       1.338   2.596  21.142  0.00  0.00    +0.000 A 
ATOM     16  C   UNL     1       1.834   2.833  19.875  0.00  0.00    +0.000 A 
ATOM     17  H   UNL     1       1.965   3.495  22.986  0.00  0.00    +0.000 HD
BRANCH  16  18
ATOM     18  N   UNL     1       1.380   2.194  18.672  0.00  0.00    +0.000 N 
ATOM     19  O   UNL     1       0.163   2.173  18.467  0.00  0.00    +0.000 OA
ATOM     20  O   UNL     1       2.247   1.718  17.932  0.00  0.00    +0.000 OA
ENDBRANCH  16  18
ENDBRANCH   7  12
TORSDOF 2
ENDMDL
MODEL 7
REMARK VINA RESULT:      -7.0      1.928      5.776
REMARK  Name = 
REMARK  2 active torsions:
REMARK  status: ('A' for Active; 'I' for Inactive)
REMARK    1  A    between atoms: C_7  and  C_8
REMARK    2  A    between atoms: C_12  and  N_13
REMARK                            x       y       z     vdW  Elec       q    Type
REMARK                         _______ _______ _______ _____ _____    ______ ____
ROOT
ATOM      1  O   UNL     1       7.831   5.417  14.345  0.00  0.00    +0.000 OA
ATOM      2  C   UNL     1       6.999   5.211  15.208  0.00  0.00    +0.000 A 
ATOM      3  C   UNL     1       6.936   5.904  16.518  0.00  0.00    +0.000 A 
ATOM      4  C   UNL     1       5.898   5.342  17.155  0.00  0.00    +0.000 A 
ATOM      5  N   UNL     1       5.439   5.720  18.392  0.00  0.00    +0.000 NA
ATOM      6  C   UNL     1       4.361   5.076  18.748  0.00  0.00    +0.000 A 
ATOM      7  C   UNL     1       3.629   4.008  17.975  0.00  0.00    +0.000 A 
ATOM      8  C   UNL     1       4.179   3.727  16.779  0.00  0.00    +0.000 A 
ATOM      9  N   UNL     1       5.324   4.353  16.373  0.00  0.00    +0.000 N 
ATOM     10  N   UNL     1       5.955   4.305  15.169  0.00  0.00    +0.000 N 
ATOM     11  H   UNL     1       5.824   3.575  14.487  0.00  0.00    +0.000 HD
ENDROOT
BRANCH   7  12
ATOM     12  C   UNL     1       2.488   3.363  18.532  0.00  0.00    +0.000 A 
ATOM     13  N   UNL     1       1.289   3.348  17.925  0.00  0.00    +0.000 NA
ATOM     14  N   UNL     1       0.505   2.615  18.735  0.00  0.00    +0.000 N 
ATOM     15  C   UNL     1       1.154   2.154  19.840  0.00  0.00    +0.000 A 
ATOM     16  C   UNL     1       2.445   2.635  19.749  0.00  0.00    +0.000 A 
ATOM     17  H   UNL     1      -0.462   2.466  18.464  0.00  0.00    +0.000 HD
BRANCH  16  18
ATOM     18  N   UNL     1       3.489   2.401  20.708  0.00  0.00    +0.000 N 
ATOM     19  O   UNL     1       3.183   2.456  21.902  0.00  0.00    +0.000 OA
ATOM     20  O   UNL     1       4.614   2.157  20.259  0.00  0.00    +0.000 OA
ENDBRANCH  16  18
ENDBRANCH   7  12
TORSDOF 2
ENDMDL
MODEL 8
REMARK VINA RESULT:      -6.9      2.074      6.164
REMARK  Name = 
REMARK  2 active torsions:
REMARK  status: ('A' for Active; 'I' for Inactive)
REMARK    1  A    between atoms: C_7  and  C_8
REMARK    2  A    between atoms: C_12  and  N_13
REMARK                            x       y       z     vdW  Elec       q    Type
REMARK                         _______ _______ _______ _____ _____    ______ ____
ROOT
ATOM      1  O   UNL     1       7.548   5.349  14.012  0.00  0.00    +0.000 OA
ATOM      2  C   UNL     1       6.933   5.207  15.052  0.00  0.00    +0.000 A 
ATOM      3  C   UNL     1       7.523   4.771  16.342  0.00  0.00    +0.000 A 
ATOM      4  C   UNL     1       6.487   4.716  17.192  0.00  0.00    +0.000 A 
ATOM      5  N   UNL     1       6.584   4.407  18.526  0.00  0.00    +0.000 NA
ATOM      6  C   UNL     1       5.443   4.511  19.151  0.00  0.00    +0.000 A 
ATOM      7  C   UNL     1       4.106   4.902  18.570  0.00  0.00    +0.000 A 
ATOM      8  C   UNL     1       4.145   5.179  17.253  0.00  0.00    +0.000 A 
ATOM      9  N   UNL     1       5.308   5.057  16.548  0.00  0.00    +0.000 N 
ATOM     10  N   UNL     1       5.581   5.406  15.262  0.00  0.00    +0.000 N 
ATOM     11  H   UNL     1       4.882   5.547  14.551  0.00  0.00    +0.000 HD
ENDROOT
BRANCH   7  12
ATOM     12  C   UNL     1       2.939   4.918  19.385  0.00  0.00    +0.000 A 
ATOM     13  N   UNL     1       2.580   5.980  20.126  0.00  0.00    +0.000 NA
ATOM     14  N   UNL     1       1.421   5.620  20.702  0.00  0.00    +0.000 N 
ATOM     15  C   UNL     1       1.014   4.366  20.358  0.00  0.00    +0.000 A 
ATOM     16  C   UNL     1       1.988   3.872  19.512  0.00  0.00    +0.000 A 
ATOM     17  H   UNL     1       0.959   6.285  21.314  0.00  0.00    +0.000 HD
BRANCH  16  18
ATOM     18  N   UNL     1       1.978   2.571  18.904  0.00  0.00    +0.000 N 
ATOM     19  O   UNL     1       1.082   2.334  18.089  0.00  0.00    +0.000 OA
ATOM     20  O   UNL     1       2.874   1.791  19.242  0.00  0.00    +0.000 OA
ENDBRANCH  16  18
ENDBRANCH   7  12
TORSDOF 2
ENDMDL
MODEL 9
REMARK VINA RESULT:      -6.9      2.047      6.040
REMARK  Name = 
REMARK  2 active torsions:
REMARK  status: ('A' for Active; 'I' for Inactive)
REMARK    1  A    between atoms: C_7  and  C_8
REMARK    2  A    between atoms: C_12  and  N_13
REMARK                            x       y       z     vdW  Elec       q    Type
REMARK                         _______ _______ _______ _____ _____    ______ ____
ROOT
ATOM      1  O   UNL     1       7.088   4.699  13.478  0.00  0.00    +0.000 OA
ATOM      2  C   UNL     1       6.635   4.741  14.605  0.00  0.00    +0.000 A 
ATOM      3  C   UNL     1       7.420   4.550  15.850  0.00  0.00    +0.000 A 
ATOM      4  C   UNL     1       6.520   4.641  16.840  0.00  0.00    +0.000 A 
ATOM      5  N   UNL     1       6.819   4.578  18.179  0.00  0.00    +0.000 NA
ATOM      6  C   UNL     1       5.777   4.783  18.937  0.00  0.00    +0.000 A 
ATOM      7  C   UNL     1       4.358   5.051  18.501  0.00  0.00    +0.000 A 
ATOM      8  C   UNL     1       4.196   5.086  17.165  0.00  0.00    +0.000 A 
ATOM      9  N   UNL     1       5.250   4.849  16.328  0.00  0.00    +0.000 N 
ATOM     10  N   UNL     1       5.321   4.963  14.975  0.00  0.00    +0.000 N 
ATOM     11  H   UNL     1       4.523   4.967  14.362  0.00  0.00    +0.000 HD
ENDROOT
BRANCH   7  12
ATOM     12  C   UNL     1       3.320   5.203  19.464  0.00  0.00    +0.000 A 
ATOM     13  N   UNL     1       2.801   6.398  19.796  0.00  0.00    +0.000 NA
ATOM     14  N   UNL     1       1.835   6.116  20.686  0.00  0.00    +0.000 N 
ATOM     15  C   UNL     1       1.707   4.784  20.940  0.00  0.00    +0.000 A 
ATOM     16  C   UNL     1       2.670   4.158  20.171  0.00  0.00    +0.000 A 
ATOM     17  H   UNL     1       1.298   6.884  21.075  0.00  0.00    +0.000 HD
BRANCH  16  18
ATOM     18  N   UNL     1       2.906   2.743  20.125  0.00  0.00    +0.000 N 
ATOM     19  O   UNL     1       3.871   2.309  20.761  0.00  0.00    +0.000 OA
ATOM     20  O   UNL     1       2.120   2.068  19.453  0.00  0.00    +0.000 OA
ENDBRANCH  16  18
ENDBRANCH   7  12
TORSDOF 2
ENDMDL
