MODEL 1
REMARK VINA RESULT:      -8.5      0.000      0.000
REMARK  Name = 
REMARK  6 active torsions:
REMARK  status: ('A' for Active; 'I' for Inactive)
REMARK    1  A    between atoms: N_1  and  C_2
REMARK    2  A    between atoms: C_7  and  C_8
REMARK    3  A    between atoms: N_10  and  N_11
REMARK    4  A    between atoms: N_11  and  C_12
REMARK    5  A    between atoms: C_13  and  C_14
REMARK    6  A    between atoms: C_14  and  C_16
REMARK                            x       y       z     vdW  Elec       q    Type
REMARK                         _______ _______ _______ _____ _____    ______ ____
ROOT
ATOM      1  C   UNL     1       4.285   3.577  18.559  0.00  0.00    +0.000 C 
ATOM      2  O   UNL     1       4.154   3.440  17.347  0.00  0.00    +0.000 OA
ATOM      3  N   UNL     1       5.477   3.928  19.178  0.00  0.00    +0.000 N 
ATOM      4  H   UNL     1       5.665   3.518  20.098  0.00  0.00    +0.000 HD
ENDROOT
BRANCH   1  10
ATOM      5  C   UNL     1       1.814   3.718  19.144  0.00  0.00    +0.000 A 
ATOM      6  C   UNL     1       0.792   3.385  20.044  0.00  0.00    +0.000 A 
ATOM      7  C   UNL     1       1.069   2.779  21.273  0.00  0.00    +0.000 A 
ATOM      8  C   UNL     1       2.381   2.462  21.612  0.00  0.00    +0.000 A 
ATOM      9  C   UNL     1       3.413   2.737  20.714  0.00  0.00    +0.000 A 
ATOM     10  C   UNL     1       3.140   3.354  19.483  0.00  0.00    +0.000 A 
BRANCH   5  11
ATOM     11  N   UNL     1       1.442   4.161  17.865  0.00  0.00    +0.000 N 
ATOM     12  H   UNL     1       2.209   4.524  17.309  0.00  0.00    +0.000 HD
ATOM     13  H   UNL     1       0.843   3.519  17.350  0.00  0.00    +0.000 HD
ENDBRANCH   5  11
ENDBRANCH   1  10
BRANCH   3  14
ATOM     14  N   UNL     1       6.616   4.074  18.363  0.00  0.00    +0.000 N 
ATOM     15  H   UNL     1       6.535   3.469  17.538  0.00  0.00    +0.000 HD
BRANCH  14  16
ATOM     16  C   UNL     1       7.081   5.344  18.100  0.00  0.00    +0.000 C 
ATOM     17  C   UNL     1       6.837   6.165  17.059  0.00  0.00    +0.000 C 
ATOM     18  C   UNL     1       7.605   7.442  17.165  0.00  0.00    +0.000 C 
ATOM     19  C   UNL     1       8.232   7.393  18.554  0.00  0.00    +0.000 C 
ATOM     20  C   UNL     1       8.055   5.969  19.064  0.00  0.00    +0.000 C 
BRANCH  17  21
ATOM     21  C   UNL     1       5.982   5.829  15.875  0.00  0.00    +0.000 C 
ATOM     22  O   UNL     1       4.867   6.360  15.759  0.00  0.00    +0.000 OA
BRANCH  21  23
ATOM     23  C   UNL     1       6.471   4.810  14.842  0.00  0.00    +0.000 C 
ATOM     24  F   UNL     1       7.601   5.161  14.172  0.00  0.00    +0.000 F 
ATOM     25  F   UNL     1       6.756   3.612  15.430  0.00  0.00    +0.000 F 
ATOM     26  F   UNL     1       5.536   4.550  13.885  0.00  0.00    +0.000 F 
ENDBRANCH  21  23
ENDBRANCH  17  21
ENDBRANCH  14  16
ENDBRANCH   3  14
TORSDOF 6
ENDMDL
MODEL 2
REMARK VINA RESULT:      -8.3      0.995      1.092
REMARK  Name = 
REMARK  6 active torsions:
REMARK  status: ('A' for Active; 'I' for Inactive)
REMARK    1  A    between atoms: N_1  and  C_2
REMARK    2  A    between atoms: C_7  and  C_8
REMARK    3  A    between atoms: N_10  and  N_11
REMARK    4  A    between atoms: N_11  and  C_12
REMARK    5  A    between atoms: C_13  and  C_14
REMARK    6  A    between atoms: C_14  and  C_16
REMARK                            x       y       z     vdW  Elec       q    Type
REMARK                         _______ _______ _______ _____ _____    ______ ____
ROOT
ATOM      1  C   UNL     1       4.322   3.797  18.273  0.00  0.00    +0.000 C 
ATOM      2  O   UNL     1       4.254   3.760  17.048  0.00  0.00    +0.000 OA
ATOM      3  N   UNL     1       5.490   4.047  18.981  0.00  0.00    +0.000 N 
ATOM      4  H   UNL     1       5.608   3.560  19.874  0.00  0.00    +0.000 HD
ENDROOT
BRANCH   1  10
ATOM      5  C   UNL     1       2.399   2.336  19.072  0.00  0.00    +0.000 A 
ATOM      6  C   UNL     1       1.333   2.171  19.967  0.00  0.00    +0.000 A 
ATOM      7  C   UNL     1       0.937   3.198  20.829  0.00  0.00    +0.000 A 
ATOM      8  C   UNL     1       1.628   4.407  20.833  0.00  0.00    +0.000 A 
ATOM      9  C   UNL     1       2.724   4.581  19.988  0.00  0.00    +0.000 A 
ATOM     10  C   UNL     1       3.118   3.555  19.114  0.00  0.00    +0.000 A 
BRANCH   5  11
ATOM     11  N   UNL     1       2.844   1.206  18.368  0.00  0.00    +0.000 N 
ATOM     12  H   UNL     1       3.107   1.389  17.405  0.00  0.00    +0.000 HD
ATOM     13  H   UNL     1       3.525   0.635  18.866  0.00  0.00    +0.000 HD
ENDBRANCH   5  11
ENDBRANCH   1  10
BRANCH   3  14
ATOM     14  N   UNL     1       6.679   4.205  18.242  0.00  0.00    +0.000 N 
ATOM     15  H   UNL     1       6.654   3.606  17.408  0.00  0.00    +0.000 HD
BRANCH  14  16
ATOM     16  C   UNL     1       7.154   5.479  18.020  0.00  0.00    +0.000 C 
ATOM     17  C   UNL     1       6.976   6.306  16.971  0.00  0.00    +0.000 C 
ATOM     18  C   UNL     1       7.729   7.586  17.138  0.00  0.00    +0.000 C 
ATOM     19  C   UNL     1       8.260   7.529  18.566  0.00  0.00    +0.000 C 
ATOM     20  C   UNL     1       8.056   6.101  19.053  0.00  0.00    +0.000 C 
BRANCH  17  21
ATOM     21  C   UNL     1       6.207   5.975  15.728  0.00  0.00    +0.000 C 
ATOM     22  O   UNL     1       5.128   6.545  15.511  0.00  0.00    +0.000 OA
BRANCH  21  23
ATOM     23  C   UNL     1       6.735   4.912  14.761  0.00  0.00    +0.000 C 
ATOM     24  F   UNL     1       7.765   5.312  13.967  0.00  0.00    +0.000 F 
ATOM     25  F   UNL     1       7.200   3.820  15.435  0.00  0.00    +0.000 F 
ATOM     26  F   UNL     1       5.770   4.453  13.915  0.00  0.00    +0.000 F 
ENDBRANCH  21  23
ENDBRANCH  17  21
ENDBRANCH  14  16
ENDBRANCH   3  14
TORSDOF 6
ENDMDL
MODEL 3
REMARK VINA RESULT:      -8.2      1.175      1.382
REMARK  Name = 
REMARK  6 active torsions:
REMARK  status: ('A' for Active; 'I' for Inactive)
REMARK    1  A    between atoms: N_1  and  C_2
REMARK    2  A    between atoms: C_7  and  C_8
REMARK    3  A    between atoms: N_10  and  N_11
REMARK    4  A    between atoms: N_11  and  C_12
REMARK    5  A    between atoms: C_13  and  C_14
REMARK    6  A    between atoms: C_14  and  C_16
REMARK                            x       y       z     vdW  Elec       q    Type
REMARK                         _______ _______ _______ _____ _____    ______ ____
ROOT
ATOM      1  C   UNL     1       4.423   3.484  18.620  0.00  0.00    +0.000 C 
ATOM      2  O   UNL     1       4.399   3.093  17.457  0.00  0.00    +0.000 OA
ATOM      3  N   UNL     1       5.524   4.079  19.218  0.00  0.00    +0.000 N 
ATOM      4  H   UNL     1       5.678   3.886  20.213  0.00  0.00    +0.000 HD
ENDROOT
BRANCH   1  10
ATOM      5  C   UNL     1       1.946   3.776  19.122  0.00  0.00    +0.000 A 
ATOM      6  C   UNL     1       0.876   3.504  19.986  0.00  0.00    +0.000 A 
ATOM      7  C   UNL     1       1.073   2.878  21.220  0.00  0.00    +0.000 A 
ATOM      8  C   UNL     1       2.351   2.480  21.601  0.00  0.00    +0.000 A 
ATOM      9  C   UNL     1       3.428   2.693  20.739  0.00  0.00    +0.000 A 
ATOM     10  C   UNL     1       3.235   3.330  19.504  0.00  0.00    +0.000 A 
BRANCH   5  11
ATOM     11  N   UNL     1       1.646   4.245  17.834  0.00  0.00    +0.000 N 
ATOM     12  H   UNL     1       0.656   4.386  17.660  0.00  0.00    +0.000 HD
ATOM     13  H   UNL     1       2.222   5.023  17.519  0.00  0.00    +0.000 HD
ENDBRANCH   5  11
ENDBRANCH   1  10
BRANCH   3  14
ATOM     14  N   UNL     1       6.705   4.180  18.456  0.00  0.00    +0.000 N 
ATOM     15  H   UNL     1       6.640   3.574  17.630  0.00  0.00    +0.000 HD
BRANCH  14  16
ATOM     16  C   UNL     1       7.226   5.431  18.209  0.00  0.00    +0.000 C 
ATOM     17  C   UNL     1       7.236   6.166  17.080  0.00  0.00    +0.000 C 
ATOM     18  C   UNL     1       7.966   7.456  17.261  0.00  0.00    +0.000 C 
ATOM     19  C   UNL     1       8.253   7.523  18.757  0.00  0.00    +0.000 C 
ATOM     20  C   UNL     1       7.953   6.141  19.322  0.00  0.00    +0.000 C 
BRANCH  17  21
ATOM     21  C   UNL     1       6.678   5.729  15.759  0.00  0.00    +0.000 C 
ATOM     22  O   UNL     1       7.445   5.284  14.892  0.00  0.00    +0.000 OA
BRANCH  21  23
ATOM     23  C   UNL     1       5.180   5.872  15.475  0.00  0.00    +0.000 C 
ATOM     24  F   UNL     1       4.613   4.824  14.820  0.00  0.00    +0.000 F 
ATOM     25  F   UNL     1       4.470   6.004  16.632  0.00  0.00    +0.000 F 
ATOM     26  F   UNL     1       4.896   6.976  14.728  0.00  0.00    +0.000 F 
ENDBRANCH  21  23
ENDBRANCH  17  21
ENDBRANCH  14  16
ENDBRANCH   3  14
TORSDOF 6
ENDMDL
MODEL 4
REMARK VINA RESULT:      -8.1      1.276      1.706
REMARK  Name = 
REMARK  6 active torsions:
REMARK  status: ('A' for Active; 'I' for Inactive)
REMARK    1  A    between atoms: N_1  and  C_2
REMARK    2  A    between atoms: C_7  and  C_8
REMARK    3  A    between atoms: N_10  and  N_11
REMARK    4  A    between atoms: N_11  and  C_12
REMARK    5  A    between atoms: C_13  and  C_14
REMARK    6  A    between atoms: C_14  and  C_16
REMARK                            x       y       z     vdW  Elec       q    Type
REMARK                         _______ _______ _______ _____ _____    ______ ____
ROOT
ATOM      1  C   UNL     1       4.503   3.055  19.526  0.00  0.00    +0.000 C 
ATOM      2  O   UNL     1       5.167   2.380  20.306  0.00  0.00    +0.000 OA
ATOM      3  N   UNL     1       5.047   3.907  18.576  0.00  0.00    +0.000 N 
ATOM      4  H   UNL     1       4.531   4.768  18.369  0.00  0.00    +0.000 HD
ENDROOT
BRANCH   1  10
ATOM      5  C   UNL     1       2.248   3.921  20.324  0.00  0.00    +0.000 A 
ATOM      6  C   UNL     1       0.852   3.859  20.214  0.00  0.00    +0.000 A 
ATOM      7  C   UNL     1       0.224   2.890  19.426  0.00  0.00    +0.000 A 
ATOM      8  C   UNL     1       0.988   1.978  18.704  0.00  0.00    +0.000 A 
ATOM      9  C   UNL     1       2.381   2.048  18.756  0.00  0.00    +0.000 A 
ATOM     10  C   UNL     1       3.015   3.014  19.553  0.00  0.00    +0.000 A 
BRANCH   5  11
ATOM     11  N   UNL     1       2.804   5.024  20.990  0.00  0.00    +0.000 N 
ATOM     12  H   UNL     1       3.230   5.712  20.377  0.00  0.00    +0.000 HD
ATOM     13  H   UNL     1       2.205   5.439  21.701  0.00  0.00    +0.000 HD
ENDBRANCH   5  11
ENDBRANCH   1  10
BRANCH   3  14
ATOM     14  N   UNL     1       6.448   4.050  18.554  0.00  0.00    +0.000 N 
ATOM     15  H   UNL     1       6.870   3.267  18.040  0.00  0.00    +0.000 HD
BRANCH  14  16
ATOM     16  C   UNL     1       6.982   5.285  18.259  0.00  0.00    +0.000 C 
ATOM     17  C   UNL     1       6.775   6.095  17.203  0.00  0.00    +0.000 C 
ATOM     18  C   UNL     1       7.615   7.329  17.274  0.00  0.00    +0.000 C 
ATOM     19  C   UNL     1       8.253   7.273  18.658  0.00  0.00    +0.000 C 
ATOM     20  C   UNL     1       7.999   5.873  19.201  0.00  0.00    +0.000 C 
BRANCH  17  21
ATOM     21  C   UNL     1       5.891   5.784  16.033  0.00  0.00    +0.000 C 
ATOM     22  O   UNL     1       4.826   6.404  15.893  0.00  0.00    +0.000 OA
BRANCH  21  23
ATOM     23  C   UNL     1       6.286   4.681  15.047  0.00  0.00    +0.000 C 
ATOM     24  F   UNL     1       6.222   3.415  15.539  0.00  0.00    +0.000 F 
ATOM     25  F   UNL     1       5.474   4.685  13.951  0.00  0.00    +0.000 F 
ATOM     26  F   UNL     1       7.557   4.834  14.579  0.00  0.00    +0.000 F 
ENDBRANCH  21  23
ENDBRANCH  17  21
ENDBRANCH  14  16
ENDBRANCH   3  14
TORSDOF 6
ENDMDL
MODEL 5
REMARK VINA RESULT:      -8.0      2.574      3.618
REMARK  Name = 
REMARK  6 active torsions:
REMARK  status: ('A' for Active; 'I' for Inactive)
REMARK    1  A    between atoms: N_1  and  C_2
REMARK    2  A    between atoms: C_7  and  C_8
REMARK    3  A    between atoms: N_10  and  N_11
REMARK    4  A    between atoms: N_11  and  C_12
REMARK    5  A    between atoms: C_13  and  C_14
REMARK    6  A    between atoms: C_14  and  C_16
REMARK                            x       y       z     vdW  Elec       q    Type
REMARK                         _______ _______ _______ _____ _____    ______ ____
ROOT
ATOM      1  C   UNL     1       4.392   3.970  18.717  0.00  0.00    +0.000 C 
ATOM      2  O   UNL     1       5.354   3.530  19.338  0.00  0.00    +0.000 OA
ATOM      3  N   UNL     1       4.192   3.781  17.356  0.00  0.00    +0.000 N 
ATOM      4  H   UNL     1       3.750   4.546  16.837  0.00  0.00    +0.000 HD
ENDROOT
BRANCH   1  10
ATOM      5  C   UNL     1       2.496   4.229  20.392  0.00  0.00    +0.000 A 
ATOM      6  C   UNL     1       1.601   5.093  21.040  0.00  0.00    +0.000 A 
ATOM      7  C   UNL     1       1.491   6.438  20.676  0.00  0.00    +0.000 A 
ATOM      8  C   UNL     1       2.303   6.955  19.671  0.00  0.00    +0.000 A 
ATOM      9  C   UNL     1       3.238   6.131  19.043  0.00  0.00    +0.000 A 
ATOM     10  C   UNL     1       3.344   4.777  19.399  0.00  0.00    +0.000 A 
BRANCH   5  11
ATOM     11  N   UNL     1       2.672   2.945  20.929  0.00  0.00    +0.000 N 
ATOM     12  H   UNL     1       2.129   2.763  21.767  0.00  0.00    +0.000 HD
ATOM     13  H   UNL     1       2.623   2.188  20.250  0.00  0.00    +0.000 HD
ENDBRANCH   5  11
ENDBRANCH   1  10
BRANCH   3  14
ATOM     14  N   UNL     1       5.191   3.093  16.640  0.00  0.00    +0.000 N 
ATOM     15  H   UNL     1       4.829   2.187  16.318  0.00  0.00    +0.000 HD
BRANCH  14  16
ATOM     16  C   UNL     1       5.924   3.784  15.700  0.00  0.00    +0.000 C 
ATOM     17  C   UNL     1       6.990   4.595  15.850  0.00  0.00    +0.000 C 
ATOM     18  C   UNL     1       7.434   5.175  14.547  0.00  0.00    +0.000 C 
ATOM     19  C   UNL     1       6.601   4.441  13.501  0.00  0.00    +0.000 C 
ATOM     20  C   UNL     1       5.506   3.700  14.256  0.00  0.00    +0.000 C 
BRANCH  17  21
ATOM     21  C   UNL     1       7.615   4.970  17.159  0.00  0.00    +0.000 C 
ATOM     22  O   UNL     1       8.296   4.133  17.770  0.00  0.00    +0.000 OA
BRANCH  21  23
ATOM     23  C   UNL     1       7.378   6.363  17.749  0.00  0.00    +0.000 C 
ATOM     24  F   UNL     1       7.824   6.535  19.023  0.00  0.00    +0.000 F 
ATOM     25  F   UNL     1       8.006   7.324  17.012  0.00  0.00    +0.000 F 
ATOM     26  F   UNL     1       6.058   6.701  17.769  0.00  0.00    +0.000 F 
ENDBRANCH  21  23
ENDBRANCH  17  21
ENDBRANCH  14  16
ENDBRANCH   3  14
TORSDOF 6
ENDMDL
MODEL 6
REMARK VINA RESULT:      -8.0      3.070      6.553
REMARK  Name = 
REMARK  6 active torsions:
REMARK  status: ('A' for Active; 'I' for Inactive)
REMARK    1  A    between atoms: N_1  and  C_2
REMARK    2  A    between atoms: C_7  and  C_8
REMARK    3  A    between atoms: N_10  and  N_11
REMARK    4  A    between atoms: N_11  and  C_12
REMARK    5  A    between atoms: C_13  and  C_14
REMARK    6  A    between atoms: C_14  and  C_16
REMARK                            x       y       z     vdW  Elec       q    Type
REMARK                         _______ _______ _______ _____ _____    ______ ____
ROOT
ATOM      1  C   UNL     1       6.751   4.936  15.532  0.00  0.00    +0.000 C 
ATOM      2  O   UNL     1       7.326   5.958  15.896  0.00  0.00    +0.000 OA
ATOM      3  N   UNL     1       6.115   4.053  16.393  0.00  0.00    +0.000 N 
ATOM      4  H   UNL     1       6.150   3.057  16.152  0.00  0.00    +0.000 HD
ENDROOT
BRANCH   1  10
ATOM      5  C   UNL     1       7.616   5.077  13.145  0.00  0.00    +0.000 A 
ATOM      6  C   UNL     1       7.550   4.586  11.833  0.00  0.00    +0.000 A 
ATOM      7  C   UNL     1       6.575   3.663  11.446  0.00  0.00    +0.000 A 
ATOM      8  C   UNL     1       5.660   3.185  12.381  0.00  0.00    +0.000 A 
ATOM      9  C   UNL     1       5.734   3.618  13.705  0.00  0.00    +0.000 A 
ATOM     10  C   UNL     1       6.706   4.553  14.094  0.00  0.00    +0.000 A 
BRANCH   5  11
ATOM     11  N   UNL     1       8.726   5.863  13.495  0.00  0.00    +0.000 N 
ATOM     12  H   UNL     1       8.556   6.863  13.466  0.00  0.00    +0.000 HD
ATOM     13  H   UNL     1       9.210   5.564  14.339  0.00  0.00    +0.000 HD
ENDBRANCH   5  11
ENDBRANCH   1  10
BRANCH   3  14
ATOM     14  N   UNL     1       6.192   4.319  17.774  0.00  0.00    +0.000 N 
ATOM     15  H   UNL     1       7.044   4.853  17.980  0.00  0.00    +0.000 HD
BRANCH  14  16
ATOM     16  C   UNL     1       5.063   4.769  18.424  0.00  0.00    +0.000 C 
ATOM     17  C   UNL     1       4.169   4.103  19.181  0.00  0.00    +0.000 C 
ATOM     18  C   UNL     1       3.062   4.992  19.646  0.00  0.00    +0.000 C 
ATOM     19  C   UNL     1       3.499   6.392  19.228  0.00  0.00    +0.000 C 
ATOM     20  C   UNL     1       4.678   6.218  18.279  0.00  0.00    +0.000 C 
BRANCH  17  21
ATOM     21  C   UNL     1       4.197   2.631  19.461  0.00  0.00    +0.000 C 
ATOM     22  O   UNL     1       4.954   2.194  20.341  0.00  0.00    +0.000 OA
BRANCH  21  23
ATOM     23  C   UNL     1       3.327   1.678  18.637  0.00  0.00    +0.000 C 
ATOM     24  F   UNL     1       2.105   1.406  19.168  0.00  0.00    +0.000 F 
ATOM     25  F   UNL     1       3.078   2.187  17.396  0.00  0.00    +0.000 F 
ATOM     26  F   UNL     1       3.924   0.469  18.440  0.00  0.00    +0.000 F 
ENDBRANCH  21  23
ENDBRANCH  17  21
ENDBRANCH  14  16
ENDBRANCH   3  14
TORSDOF 6
ENDMDL
MODEL 7
REMARK VINA RESULT:      -7.9      3.383      6.529
REMARK  Name = 
REMARK  6 active torsions:
REMARK  status: ('A' for Active; 'I' for Inactive)
REMARK    1  A    between atoms: N_1  and  C_2
REMARK    2  A    between atoms: C_7  and  C_8
REMARK    3  A    between atoms: N_10  and  N_11
REMARK    4  A    between atoms: N_11  and  C_12
REMARK    5  A    between atoms: C_13  and  C_14
REMARK    6  A    between atoms: C_14  and  C_16
REMARK                            x       y       z     vdW  Elec       q    Type
REMARK                         _______ _______ _______ _____ _____    ______ ____
ROOT
ATOM      1  C   UNL     1       6.790   5.201  15.535  0.00  0.00    +0.000 C 
ATOM      2  O   UNL     1       7.673   4.830  16.303  0.00  0.00    +0.000 OA
ATOM      3  N   UNL     1       5.773   6.078  15.885  0.00  0.00    +0.000 N 
ATOM      4  H   UNL     1       4.856   5.927  15.453  0.00  0.00    +0.000 HD
ENDROOT
BRANCH   1  10
ATOM      5  C   UNL     1       7.666   5.136  13.148  0.00  0.00    +0.000 A 
ATOM      6  C   UNL     1       7.592   4.548  11.878  0.00  0.00    +0.000 A 
ATOM      7  C   UNL     1       6.594   3.622  11.559  0.00  0.00    +0.000 A 
ATOM      8  C   UNL     1       5.666   3.240  12.523  0.00  0.00    +0.000 A 
ATOM      9  C   UNL     1       5.746   3.772  13.810  0.00  0.00    +0.000 A 
ATOM     10  C   UNL     1       6.740   4.710  14.131  0.00  0.00    +0.000 A 
BRANCH   5  11
ATOM     11  N   UNL     1       8.794   5.918  13.443  0.00  0.00    +0.000 N 
ATOM     12  H   UNL     1       9.095   5.871  14.411  0.00  0.00    +0.000 HD
ATOM     13  H   UNL     1       9.562   5.825  12.781  0.00  0.00    +0.000 HD
ENDBRANCH   5  11
ENDBRANCH   1  10
BRANCH   3  14
ATOM     14  N   UNL     1       5.721   6.516  17.223  0.00  0.00    +0.000 N 
ATOM     15  H   UNL     1       6.226   7.404  17.320  0.00  0.00    +0.000 HD
BRANCH  14  16
ATOM     16  C   UNL     1       4.515   6.465  17.888  0.00  0.00    +0.000 C 
ATOM     17  C   UNL     1       4.038   5.558  18.762  0.00  0.00    +0.000 C 
ATOM     18  C   UNL     1       2.645   5.881  19.196  0.00  0.00    +0.000 C 
ATOM     19  C   UNL     1       2.377   7.263  18.610  0.00  0.00    +0.000 C 
ATOM     20  C   UNL     1       3.498   7.542  17.616  0.00  0.00    +0.000 C 
BRANCH  17  21
ATOM     21  C   UNL     1       4.751   4.312  19.192  0.00  0.00    +0.000 C 
ATOM     22  O   UNL     1       5.991   4.293  19.202  0.00  0.00    +0.000 OA
BRANCH  21  23
ATOM     23  C   UNL     1       3.950   3.064  19.576  0.00  0.00    +0.000 C 
ATOM     24  F   UNL     1       3.044   2.651  18.650  0.00  0.00    +0.000 F 
ATOM     25  F   UNL     1       4.772   1.995  19.782  0.00  0.00    +0.000 F 
ATOM     26  F   UNL     1       3.249   3.233  20.732  0.00  0.00    +0.000 F 
ENDBRANCH  21  23
ENDBRANCH  17  21
ENDBRANCH  14  16
ENDBRANCH   3  14
TORSDOF 6
ENDMDL
MODEL 8
REMARK VINA RESULT:      -7.9      2.349      3.387
REMARK  Name = 
REMARK  6 active torsions:
REMARK  status: ('A' for Active; 'I' for Inactive)
REMARK    1  A    between atoms: N_1  and  C_2
REMARK    2  A    between atoms: C_7  and  C_8
REMARK    3  A    between atoms: N_10  and  N_11
REMARK    4  A    between atoms: N_11  and  C_12
REMARK    5  A    between atoms: C_13  and  C_14
REMARK    6  A    between atoms: C_14  and  C_16
REMARK                            x       y       z     vdW  Elec       q    Type
REMARK                         _______ _______ _______ _____ _____    ______ ____
ROOT
ATOM      1  C   UNL     1       3.164   3.358  17.373  0.00  0.00    +0.000 C 
ATOM      2  O   UNL     1       2.555   2.822  16.452  0.00  0.00    +0.000 OA
ATOM      3  N   UNL     1       4.543   3.502  17.414  0.00  0.00    +0.000 N 
ATOM      4  H   UNL     1       4.993   3.437  18.333  0.00  0.00    +0.000 HD
ENDROOT
BRANCH   1  10
ATOM      5  C   UNL     1       1.402   3.182  19.199  0.00  0.00    +0.000 A 
ATOM      6  C   UNL     1       0.844   3.735  20.360  0.00  0.00    +0.000 A 
ATOM      7  C   UNL     1       1.241   4.988  20.836  0.00  0.00    +0.000 A 
ATOM      8  C   UNL     1       2.236   5.701  20.173  0.00  0.00    +0.000 A 
ATOM      9  C   UNL     1       2.844   5.151  19.043  0.00  0.00    +0.000 A 
ATOM     10  C   UNL     1       2.440   3.898  18.556  0.00  0.00    +0.000 A 
BRANCH   5  11
ATOM     11  N   UNL     1       1.079   1.852  18.887  0.00  0.00    +0.000 N 
ATOM     12  H   UNL     1       0.211   1.525  19.298  0.00  0.00    +0.000 HD
ATOM     13  H   UNL     1       1.170   1.612  17.901  0.00  0.00    +0.000 HD
ENDBRANCH   5  11
ENDBRANCH   1  10
BRANCH   3  14
ATOM     14  N   UNL     1       5.289   2.939  16.360  0.00  0.00    +0.000 N 
ATOM     15  H   UNL     1       4.705   2.281  15.831  0.00  0.00    +0.000 HD
BRANCH  14  16
ATOM     16  C   UNL     1       6.064   3.772  15.582  0.00  0.00    +0.000 C 
ATOM     17  C   UNL     1       7.062   4.609  15.927  0.00  0.00    +0.000 C 
ATOM     18  C   UNL     1       7.590   5.361  14.749  0.00  0.00    +0.000 C 
ATOM     19  C   UNL     1       6.901   4.718  13.549  0.00  0.00    +0.000 C 
ATOM     20  C   UNL     1       5.786   3.841  14.103  0.00  0.00    +0.000 C 
BRANCH  17  21
ATOM     21  C   UNL     1       7.541   4.855  17.325  0.00  0.00    +0.000 C 
ATOM     22  O   UNL     1       8.394   4.101  17.818  0.00  0.00    +0.000 OA
BRANCH  21  23
ATOM     23  C   UNL     1       6.950   6.004  18.147  0.00  0.00    +0.000 C 
ATOM     24  F   UNL     1       6.353   5.636  19.312  0.00  0.00    +0.000 F 
ATOM     25  F   UNL     1       7.913   6.903  18.501  0.00  0.00    +0.000 F 
ATOM     26  F   UNL     1       6.010   6.707  17.454  0.00  0.00    +0.000 F 
ENDBRANCH  21  23
ENDBRANCH  17  21
ENDBRANCH  14  16
ENDBRANCH   3  14
TORSDOF 6
ENDMDL
MODEL 9
REMARK VINA RESULT:      -7.8      2.181      3.414
REMARK  Name = 
REMARK  6 active torsions:
REMARK  status: ('A' for Active; 'I' for Inactive)
REMARK    1  A    between atoms: N_1  and  C_2
REMARK    2  A    between atoms: C_7  and  C_8
REMARK    3  A    between atoms: N_10  and  N_11
REMARK    4  A    between atoms: N_11  and  C_12
REMARK    5  A    between atoms: C_13  and  C_14
REMARK    6  A    between atoms: C_14  and  C_16
REMARK                            x       y       z     vdW  Elec       q    Type
REMARK                         _______ _______ _______ _____ _____    ______ ____
ROOT
ATOM      1  C   UNL     1       3.056   4.256  17.833  0.00  0.00    +0.000 C 
ATOM      2  O   UNL     1       2.635   3.742  16.801  0.00  0.00    +0.000 OA
ATOM      3  N   UNL     1       3.837   5.402  17.868  0.00  0.00    +0.000 N 
ATOM      4  H   UNL     1       4.553   5.459  18.600  0.00  0.00    +0.000 HD
ENDROOT
BRANCH   1  10
ATOM      5  C   UNL     1       3.692   2.845  19.851  0.00  0.00    +0.000 A 
ATOM      6  C   UNL     1       3.354   2.402  21.137  0.00  0.00    +0.000 A 
ATOM      7  C   UNL     1       2.108   2.686  21.704  0.00  0.00    +0.000 A 
ATOM      8  C   UNL     1       1.183   3.453  21.001  0.00  0.00    +0.000 A 
ATOM      9  C   UNL     1       1.513   3.949  19.739  0.00  0.00    +0.000 A 
ATOM     10  C   UNL     1       2.759   3.657  19.163  0.00  0.00    +0.000 A 
BRANCH   5  11
ATOM     11  N   UNL     1       5.018   2.669  19.425  0.00  0.00    +0.000 N 
ATOM     12  H   UNL     1       5.526   3.533  19.270  0.00  0.00    +0.000 HD
ATOM     13  H   UNL     1       5.550   1.984  19.960  0.00  0.00    +0.000 HD
ENDBRANCH   5  11
ENDBRANCH   1  10
BRANCH   3  14
ATOM     14  N   UNL     1       4.218   5.970  16.637  0.00  0.00    +0.000 N 
ATOM     15  H   UNL     1       4.218   6.994  16.710  0.00  0.00    +0.000 HD
BRANCH  14  16
ATOM     16  C   UNL     1       5.304   5.442  15.974  0.00  0.00    +0.000 C 
ATOM     17  C   UNL     1       6.624   5.606  16.192  0.00  0.00    +0.000 C 
ATOM     18  C   UNL     1       7.449   4.875  15.184  0.00  0.00    +0.000 C 
ATOM     19  C   UNL     1       6.440   4.046  14.397  0.00  0.00    +0.000 C 
ATOM     20  C   UNL     1       5.058   4.562  14.777  0.00  0.00    +0.000 C 
BRANCH  17  21
ATOM     21  C   UNL     1       7.224   6.485  17.247  0.00  0.00    +0.000 C 
ATOM     22  O   UNL     1       7.406   7.688  17.005  0.00  0.00    +0.000 OA
BRANCH  21  23
ATOM     23  C   UNL     1       7.644   5.888  18.593  0.00  0.00    +0.000 C 
ATOM     24  F   UNL     1       8.226   4.661  18.526  0.00  0.00    +0.000 F 
ATOM     25  F   UNL     1       8.553   6.686  19.224  0.00  0.00    +0.000 F 
ATOM     26  F   UNL     1       6.594   5.756  19.453  0.00  0.00    +0.000 F 
ENDBRANCH  21  23
ENDBRANCH  17  21
ENDBRANCH  14  16
ENDBRANCH   3  14
TORSDOF 6
ENDMDL
