MODEL 1
REMARK VINA RESULT:      -6.7      0.000      0.000
REMARK  Name = 
REMARK  9 active torsions:
REMARK  status: ('A' for Active; 'I' for Inactive)
REMARK    1  A    between atoms: C_1  and  C_2
REMARK    2  A    between atoms: C_2  and  C_3
REMARK    3  A    between atoms: C_3  and  N_4
REMARK    4  A    between atoms: N_7  and  C_8
REMARK    5  A    between atoms: C_8  and  C_9
REMARK    6  A    between atoms: C_9  and  C_10
REMARK    7  A    between atoms: C_10  and  C_11
REMARK    8  A    between atoms: C_11  and  C_12
REMARK    9  A    between atoms: C_12  and  C_13
REMARK                            x       y       z     vdW  Elec       q    Type
REMARK                         _______ _______ _______ _____ _____    ______ ____
ROOT
ATOM      1  N   UNL     1       3.942   4.961  19.037  0.00  0.00    +0.000 N 
ATOM      2  C   UNL     1       4.977   4.446  18.240  0.00  0.00    +0.000 A 
ATOM      3  O   UNL     1       5.470   3.336  18.466  0.00  0.00    +0.000 OA
ATOM      4  N   UNL     1       5.420   5.239  17.155  0.00  0.00    +0.000 N 
ATOM      5  C   UNL     1       4.826   6.438  16.747  0.00  0.00    +0.000 A 
ATOM      6  O   UNL     1       5.114   7.058  15.727  0.00  0.00    +0.000 OA
ATOM      7  C   UNL     1       3.821   6.886  17.634  0.00  0.00    +0.000 A 
ATOM      8  N   UNL     1       3.058   8.017  17.608  0.00  0.00    +0.000 N 
ATOM      9  C   UNL     1       2.221   7.948  18.690  0.00  0.00    +0.000 A 
ATOM     10  N   UNL     1       2.422   6.850  19.392  0.00  0.00    +0.000 NA
ATOM     11  C   UNL     1       3.410   6.192  18.725  0.00  0.00    +0.000 A 
ATOM     12  H   UNL     1       3.101   8.751  16.914  0.00  0.00    +0.000 HD
ENDROOT
BRANCH   1  13
ATOM     13  C   UNL     1       3.450   4.197  20.183  0.00  0.00    +0.000 C 
BRANCH  13  15
ATOM     14  C   UNL     1       1.193   3.280  20.931  0.00  0.00    +0.000 C 
ATOM     15  C   UNL     1       2.276   3.261  19.865  0.00  0.00    +0.000 C 
ENDBRANCH  13  15
ENDBRANCH   1  13
BRANCH   4  16
ATOM     16  C   UNL     1       6.469   4.692  16.296  0.00  0.00    +0.000 C 
BRANCH  16  17
ATOM     17  C   UNL     1       5.984   3.662  15.264  0.00  0.00    +0.000 C 
BRANCH  17  18
ATOM     18  C   UNL     1       5.625   4.266  13.905  0.00  0.00    +0.000 C 
BRANCH  18  19
ATOM     19  C   UNL     1       6.390   3.552  12.788  0.00  0.00    +0.000 C 
BRANCH  19  20
ATOM     20  C   UNL     1       5.490   2.737  11.876  0.00  0.00    +0.000 C 
ATOM     21  C   UNL     1       4.206   3.389  11.435  0.00  0.00    +0.000 C 
ATOM     22  O   UNL     1       5.779   1.602  11.501  0.00  0.00    +0.000 OA
ENDBRANCH  19  20
ENDBRANCH  18  19
ENDBRANCH  17  18
ENDBRANCH  16  17
ENDBRANCH   4  16
TORSDOF 7
ENDMDL
MODEL 2
REMARK VINA RESULT:      -6.6      2.690      6.528
REMARK  Name = 
REMARK  9 active torsions:
REMARK  status: ('A' for Active; 'I' for Inactive)
REMARK    1  A    between atoms: C_1  and  C_2
REMARK    2  A    between atoms: C_2  and  C_3
REMARK    3  A    between atoms: C_3  and  N_4
REMARK    4  A    between atoms: N_7  and  C_8
REMARK    5  A    between atoms: C_8  and  C_9
REMARK    6  A    between atoms: C_9  and  C_10
REMARK    7  A    between atoms: C_10  and  C_11
REMARK    8  A    between atoms: C_11  and  C_12
REMARK    9  A    between atoms: C_12  and  C_13
REMARK                            x       y       z     vdW  Elec       q    Type
REMARK                         _______ _______ _______ _____ _____    ______ ____
ROOT
ATOM      1  N   UNL     1       6.712   5.600  17.670  0.00  0.00    +0.000 N 
ATOM      2  C   UNL     1       5.819   5.146  18.653  0.00  0.00    +0.000 A 
ATOM      3  O   UNL     1       5.884   5.553  19.818  0.00  0.00    +0.000 OA
ATOM      4  N   UNL     1       4.828   4.217  18.253  0.00  0.00    +0.000 N 
ATOM      5  C   UNL     1       4.597   3.814  16.934  0.00  0.00    +0.000 A 
ATOM      6  O   UNL     1       3.655   3.121  16.562  0.00  0.00    +0.000 OA
ATOM      7  C   UNL     1       5.571   4.298  16.031  0.00  0.00    +0.000 A 
ATOM      8  N   UNL     1       5.717   4.087  14.691  0.00  0.00    +0.000 N 
ATOM      9  C   UNL     1       6.811   4.810  14.298  0.00  0.00    +0.000 A 
ATOM     10  N   UNL     1       7.360   5.451  15.312  0.00  0.00    +0.000 NA
ATOM     11  C   UNL     1       6.579   5.135  16.382  0.00  0.00    +0.000 A 
ATOM     12  H   UNL     1       5.121   3.515  14.107  0.00  0.00    +0.000 HD
ENDROOT
BRANCH   1  13
ATOM     13  C   UNL     1       7.769   6.548  18.023  0.00  0.00    +0.000 C 
BRANCH  13  15
ATOM     14  C   UNL     1       8.398   9.012  18.191  0.00  0.00    +0.000 C 
ATOM     15  C   UNL     1       7.559   7.966  17.475  0.00  0.00    +0.000 C 
ENDBRANCH  13  15
ENDBRANCH   1  13
BRANCH   4  16
ATOM     16  C   UNL     1       3.868   3.770  19.262  0.00  0.00    +0.000 C 
BRANCH  16  17
ATOM     17  C   UNL     1       2.490   4.446  19.184  0.00  0.00    +0.000 C 
BRANCH  17  18
ATOM     18  C   UNL     1       2.376   5.724  20.017  0.00  0.00    +0.000 C 
BRANCH  18  19
ATOM     19  C   UNL     1       2.526   6.955  19.121  0.00  0.00    +0.000 C 
BRANCH  19  20
ATOM     20  C   UNL     1       1.770   8.165  19.639  0.00  0.00    +0.000 C 
ATOM     21  C   UNL     1       1.269   8.094  21.058  0.00  0.00    +0.000 C 
ATOM     22  O   UNL     1       1.569   9.166  18.952  0.00  0.00    +0.000 OA
ENDBRANCH  19  20
ENDBRANCH  18  19
ENDBRANCH  17  18
ENDBRANCH  16  17
ENDBRANCH   4  16
TORSDOF 7
ENDMDL
MODEL 3
REMARK VINA RESULT:      -6.5      2.686      6.001
REMARK  Name = 
REMARK  9 active torsions:
REMARK  status: ('A' for Active; 'I' for Inactive)
REMARK    1  A    between atoms: C_1  and  C_2
REMARK    2  A    between atoms: C_2  and  C_3
REMARK    3  A    between atoms: C_3  and  N_4
REMARK    4  A    between atoms: N_7  and  C_8
REMARK    5  A    between atoms: C_8  and  C_9
REMARK    6  A    between atoms: C_9  and  C_10
REMARK    7  A    between atoms: C_10  and  C_11
REMARK    8  A    between atoms: C_11  and  C_12
REMARK    9  A    between atoms: C_12  and  C_13
REMARK                            x       y       z     vdW  Elec       q    Type
REMARK                         _______ _______ _______ _____ _____    ______ ____
ROOT
ATOM      1  N   UNL     1       6.986   5.560  17.740  0.00  0.00    +0.000 N 
ATOM      2  C   UNL     1       6.244   5.014  18.799  0.00  0.00    +0.000 A 
ATOM      3  O   UNL     1       6.407   5.400  19.962  0.00  0.00    +0.000 OA
ATOM      4  N   UNL     1       5.290   4.019  18.482  0.00  0.00    +0.000 N 
ATOM      5  C   UNL     1       4.946   3.627  17.183  0.00  0.00    +0.000 A 
ATOM      6  O   UNL     1       4.024   2.870  16.895  0.00  0.00    +0.000 OA
ATOM      7  C   UNL     1       5.774   4.206  16.195  0.00  0.00    +0.000 A 
ATOM      8  N   UNL     1       5.786   4.037  14.841  0.00  0.00    +0.000 N 
ATOM      9  C   UNL     1       6.772   4.853  14.354  0.00  0.00    +0.000 A 
ATOM     10  N   UNL     1       7.379   5.514  15.321  0.00  0.00    +0.000 NA
ATOM     11  C   UNL     1       6.747   5.114  16.460  0.00  0.00    +0.000 A 
ATOM     12  H   UNL     1       5.175   3.432  14.309  0.00  0.00    +0.000 HD
ENDROOT
BRANCH   1  13
ATOM     13  C   UNL     1       8.000   6.581  18.003  0.00  0.00    +0.000 C 
BRANCH  13  15
ATOM     14  C   UNL     1       8.422   9.083  18.235  0.00  0.00    +0.000 C 
ATOM     15  C   UNL     1       7.608   7.995  17.554  0.00  0.00    +0.000 C 
ENDBRANCH  13  15
ENDBRANCH   1  13
BRANCH   4  16
ATOM     16  C   UNL     1       4.485   3.475  19.575  0.00  0.00    +0.000 C 
BRANCH  16  17
ATOM     17  C   UNL     1       3.064   4.052  19.677  0.00  0.00    +0.000 C 
BRANCH  17  18
ATOM     18  C   UNL     1       3.016   5.580  19.733  0.00  0.00    +0.000 C 
BRANCH  18  19
ATOM     19  C   UNL     1       2.031   6.117  18.691  0.00  0.00    +0.000 C 
BRANCH  19  20
ATOM     20  C   UNL     1       2.518   7.382  18.007  0.00  0.00    +0.000 C 
ATOM     21  C   UNL     1       3.921   7.358  17.460  0.00  0.00    +0.000 C 
ATOM     22  O   UNL     1       1.816   8.385  17.892  0.00  0.00    +0.000 OA
ENDBRANCH  19  20
ENDBRANCH  18  19
ENDBRANCH  17  18
ENDBRANCH  16  17
ENDBRANCH   4  16
TORSDOF 7
ENDMDL
MODEL 4
REMARK VINA RESULT:      -6.4      3.372      5.281
REMARK  Name = 
REMARK  9 active torsions:
REMARK  status: ('A' for Active; 'I' for Inactive)
REMARK    1  A    between atoms: C_1  and  C_2
REMARK    2  A    between atoms: C_2  and  C_3
REMARK    3  A    between atoms: C_3  and  N_4
REMARK    4  A    between atoms: N_7  and  C_8
REMARK    5  A    between atoms: C_8  and  C_9
REMARK    6  A    between atoms: C_9  and  C_10
REMARK    7  A    between atoms: C_10  and  C_11
REMARK    8  A    between atoms: C_11  and  C_12
REMARK    9  A    between atoms: C_12  and  C_13
REMARK                            x       y       z     vdW  Elec       q    Type
REMARK                         _______ _______ _______ _____ _____    ______ ____
ROOT
ATOM      1  N   UNL     1       4.512   5.549  18.545  0.00  0.00    +0.000 N 
ATOM      2  C   UNL     1       4.206   4.635  19.566  0.00  0.00    +0.000 A 
ATOM      3  O   UNL     1       4.939   3.669  19.805  0.00  0.00    +0.000 OA
ATOM      4  N   UNL     1       3.034   4.873  20.323  0.00  0.00    +0.000 N 
ATOM      5  C   UNL     1       2.228   6.011  20.211  0.00  0.00    +0.000 A 
ATOM      6  O   UNL     1       1.295   6.292  20.957  0.00  0.00    +0.000 OA
ATOM      7  C   UNL     1       2.600   6.847  19.134  0.00  0.00    +0.000 A 
ATOM      8  N   UNL     1       2.039   8.004  18.677  0.00  0.00    +0.000 N 
ATOM      9  C   UNL     1       2.808   8.421  17.623  0.00  0.00    +0.000 A 
ATOM     10  N   UNL     1       3.806   7.591  17.390  0.00  0.00    +0.000 NA
ATOM     11  C   UNL     1       3.676   6.622  18.338  0.00  0.00    +0.000 A 
ATOM     12  H   UNL     1       1.222   8.463  19.057  0.00  0.00    +0.000 HD
ENDROOT
BRANCH   1  13
ATOM     13  C   UNL     1       5.701   5.350  17.715  0.00  0.00    +0.000 C 
BRANCH  13  15
ATOM     14  C   UNL     1       7.455   7.177  17.441  0.00  0.00    +0.000 C 
ATOM     15  C   UNL     1       6.977   5.996  18.270  0.00  0.00    +0.000 C 
ENDBRANCH  13  15
ENDBRANCH   1  13
BRANCH   4  16
ATOM     16  C   UNL     1       2.730   3.949  21.414  0.00  0.00    +0.000 C 
BRANCH  16  17
ATOM     17  C   UNL     1       1.941   2.698  20.998  0.00  0.00    +0.000 C 
BRANCH  17  18
ATOM     18  C   UNL     1       0.669   3.001  20.203  0.00  0.00    +0.000 C 
BRANCH  18  19
ATOM     19  C   UNL     1       0.694   2.264  18.862  0.00  0.00    +0.000 C 
BRANCH  19  20
ATOM     20  C   UNL     1       1.651   2.883  17.860  0.00  0.00    +0.000 C 
ATOM     21  C   UNL     1       2.890   2.093  17.528  0.00  0.00    +0.000 C 
ATOM     22  O   UNL     1       1.442   3.973  17.329  0.00  0.00    +0.000 OA
ENDBRANCH  19  20
ENDBRANCH  18  19
ENDBRANCH  17  18
ENDBRANCH  16  17
ENDBRANCH   4  16
TORSDOF 7
ENDMDL
MODEL 5
REMARK VINA RESULT:      -6.4      2.732      5.227
REMARK  Name = 
REMARK  9 active torsions:
REMARK  status: ('A' for Active; 'I' for Inactive)
REMARK    1  A    between atoms: C_1  and  C_2
REMARK    2  A    between atoms: C_2  and  C_3
REMARK    3  A    between atoms: C_3  and  N_4
REMARK    4  A    between atoms: N_7  and  C_8
REMARK    5  A    between atoms: C_8  and  C_9
REMARK    6  A    between atoms: C_9  and  C_10
REMARK    7  A    between atoms: C_10  and  C_11
REMARK    8  A    between atoms: C_11  and  C_12
REMARK    9  A    between atoms: C_12  and  C_13
REMARK                            x       y       z     vdW  Elec       q    Type
REMARK                         _______ _______ _______ _____ _____    ______ ____
ROOT
ATOM      1  N   UNL     1       4.419   5.525  18.498  0.00  0.00    +0.000 N 
ATOM      2  C   UNL     1       4.123   4.622  19.532  0.00  0.00    +0.000 A 
ATOM      3  O   UNL     1       4.837   3.638  19.750  0.00  0.00    +0.000 OA
ATOM      4  N   UNL     1       2.985   4.896  20.328  0.00  0.00    +0.000 N 
ATOM      5  C   UNL     1       2.208   6.055  20.239  0.00  0.00    +0.000 A 
ATOM      6  O   UNL     1       1.308   6.364  21.016  0.00  0.00    +0.000 OA
ATOM      7  C   UNL     1       2.565   6.877  19.147  0.00  0.00    +0.000 A 
ATOM      8  N   UNL     1       2.021   8.047  18.705  0.00  0.00    +0.000 N 
ATOM      9  C   UNL     1       2.763   8.440  17.623  0.00  0.00    +0.000 A 
ATOM     10  N   UNL     1       3.729   7.582  17.359  0.00  0.00    +0.000 NA
ATOM     11  C   UNL     1       3.606   6.620  18.315  0.00  0.00    +0.000 A 
ATOM     12  H   UNL     1       1.230   8.530  19.110  0.00  0.00    +0.000 HD
ENDROOT
BRANCH   1  13
ATOM     13  C   UNL     1       5.572   5.290  17.629  0.00  0.00    +0.000 C 
BRANCH  13  15
ATOM     14  C   UNL     1       5.625   5.331  15.081  0.00  0.00    +0.000 C 
ATOM     15  C   UNL     1       5.245   4.547  16.327  0.00  0.00    +0.000 C 
ENDBRANCH  13  15
ENDBRANCH   1  13
BRANCH   4  16
ATOM     16  C   UNL     1       2.693   3.983  21.433  0.00  0.00    +0.000 C 
BRANCH  16  17
ATOM     17  C   UNL     1       1.412   3.153  21.262  0.00  0.00    +0.000 C 
BRANCH  17  18
ATOM     18  C   UNL     1       1.505   2.082  20.174  0.00  0.00    +0.000 C 
BRANCH  18  19
ATOM     19  C   UNL     1       0.668   2.488  18.958  0.00  0.00    +0.000 C 
BRANCH  19  20
ATOM     20  C   UNL     1       1.501   3.067  17.828  0.00  0.00    +0.000 C 
ATOM     21  C   UNL     1       2.667   2.240  17.354  0.00  0.00    +0.000 C 
ATOM     22  O   UNL     1       1.249   4.154  17.309  0.00  0.00    +0.000 OA
ENDBRANCH  19  20
ENDBRANCH  18  19
ENDBRANCH  17  18
ENDBRANCH  16  17
ENDBRANCH   4  16
TORSDOF 7
ENDMDL
MODEL 6
REMARK VINA RESULT:      -6.4      2.506      6.388
REMARK  Name = 
REMARK  9 active torsions:
REMARK  status: ('A' for Active; 'I' for Inactive)
REMARK    1  A    between atoms: C_1  and  C_2
REMARK    2  A    between atoms: C_2  and  C_3
REMARK    3  A    between atoms: C_3  and  N_4
REMARK    4  A    between atoms: N_7  and  C_8
REMARK    5  A    between atoms: C_8  and  C_9
REMARK    6  A    between atoms: C_9  and  C_10
REMARK    7  A    between atoms: C_10  and  C_11
REMARK    8  A    between atoms: C_11  and  C_12
REMARK    9  A    between atoms: C_12  and  C_13
REMARK                            x       y       z     vdW  Elec       q    Type
REMARK                         _______ _______ _______ _____ _____    ______ ____
ROOT
ATOM      1  N   UNL     1       5.673   5.035  16.047  0.00  0.00    +0.000 N 
ATOM      2  C   UNL     1       4.770   4.054  16.487  0.00  0.00    +0.000 A 
ATOM      3  O   UNL     1       4.076   3.416  15.688  0.00  0.00    +0.000 OA
ATOM      4  N   UNL     1       4.700   3.810  17.879  0.00  0.00    +0.000 N 
ATOM      5  C   UNL     1       5.545   4.385  18.834  0.00  0.00    +0.000 A 
ATOM      6  O   UNL     1       5.584   4.074  20.021  0.00  0.00    +0.000 OA
ATOM      7  C   UNL     1       6.389   5.382  18.296  0.00  0.00    +0.000 A 
ATOM      8  N   UNL     1       7.303   6.191  18.905  0.00  0.00    +0.000 N 
ATOM      9  C   UNL     1       7.864   6.959  17.919  0.00  0.00    +0.000 A 
ATOM     10  N   UNL     1       7.350   6.684  16.736  0.00  0.00    +0.000 NA
ATOM     11  C   UNL     1       6.442   5.698  16.976  0.00  0.00    +0.000 A 
ATOM     12  H   UNL     1       7.525   6.206  19.891  0.00  0.00    +0.000 HD
ENDROOT
BRANCH   1  13
ATOM     13  C   UNL     1       5.782   5.346  14.622  0.00  0.00    +0.000 C 
BRANCH  13  15
ATOM     14  C   UNL     1       6.068   3.596  12.791  0.00  0.00    +0.000 C 
ATOM     15  C   UNL     1       6.755   4.446  13.848  0.00  0.00    +0.000 C 
ENDBRANCH  13  15
ENDBRANCH   1  13
BRANCH   4  16
ATOM     16  C   UNL     1       3.792   2.761  18.341  0.00  0.00    +0.000 C 
BRANCH  16  17
ATOM     17  C   UNL     1       2.299   3.088  18.186  0.00  0.00    +0.000 C 
BRANCH  17  18
ATOM     18  C   UNL     1       1.387   2.289  19.120  0.00  0.00    +0.000 C 
BRANCH  18  19
ATOM     19  C   UNL     1       0.743   3.217  20.153  0.00  0.00    +0.000 C 
BRANCH  19  20
ATOM     20  C   UNL     1       1.746   3.818  21.120  0.00  0.00    +0.000 C 
ATOM     21  C   UNL     1       2.125   5.259  20.895  0.00  0.00    +0.000 C 
ATOM     22  O   UNL     1       2.234   3.179  22.051  0.00  0.00    +0.000 OA
ENDBRANCH  19  20
ENDBRANCH  18  19
ENDBRANCH  17  18
ENDBRANCH  16  17
ENDBRANCH   4  16
TORSDOF 7
ENDMDL
MODEL 7
REMARK VINA RESULT:      -6.4      0.919      1.047
REMARK  Name = 
REMARK  9 active torsions:
REMARK  status: ('A' for Active; 'I' for Inactive)
REMARK    1  A    between atoms: C_1  and  C_2
REMARK    2  A    between atoms: C_2  and  C_3
REMARK    3  A    between atoms: C_3  and  N_4
REMARK    4  A    between atoms: N_7  and  C_8
REMARK    5  A    between atoms: C_8  and  C_9
REMARK    6  A    between atoms: C_9  and  C_10
REMARK    7  A    between atoms: C_10  and  C_11
REMARK    8  A    between atoms: C_11  and  C_12
REMARK    9  A    between atoms: C_12  and  C_13
REMARK                            x       y       z     vdW  Elec       q    Type
REMARK                         _______ _______ _______ _____ _____    ______ ____
ROOT
ATOM      1  N   UNL     1       3.017   4.760  18.521  0.00  0.00    +0.000 N 
ATOM      2  C   UNL     1       4.068   4.111  17.855  0.00  0.00    +0.000 A 
ATOM      3  O   UNL     1       4.195   2.882  17.898  0.00  0.00    +0.000 OA
ATOM      4  N   UNL     1       4.967   4.917  17.116  0.00  0.00    +0.000 N 
ATOM      5  C   UNL     1       4.816   6.291  16.901  0.00  0.00    +0.000 A 
ATOM      6  O   UNL     1       5.510   6.968  16.149  0.00  0.00    +0.000 OA
ATOM      7  C   UNL     1       3.752   6.852  17.643  0.00  0.00    +0.000 A 
ATOM      8  N   UNL     1       3.325   8.144  17.738  0.00  0.00    +0.000 N 
ATOM      9  C   UNL     1       2.238   8.136  18.571  0.00  0.00    +0.000 A 
ATOM     10  N   UNL     1       1.968   6.921  19.007  0.00  0.00    +0.000 NA
ATOM     11  C   UNL     1       2.906   6.128  18.419  0.00  0.00    +0.000 A 
ATOM     12  H   UNL     1       3.731   8.944  17.271  0.00  0.00    +0.000 HD
ENDROOT
BRANCH   1  13
ATOM     13  C   UNL     1       2.063   3.985  19.315  0.00  0.00    +0.000 C 
BRANCH  13  15
ATOM     14  C   UNL     1       1.539   2.886  21.554  0.00  0.00    +0.000 C 
ATOM     15  C   UNL     1       2.423   3.869  20.802  0.00  0.00    +0.000 C 
ENDBRANCH  13  15
ENDBRANCH   1  13
BRANCH   4  16
ATOM     16  C   UNL     1       6.041   4.244  16.386  0.00  0.00    +0.000 C 
BRANCH  16  17
ATOM     17  C   UNL     1       5.640   3.703  15.005  0.00  0.00    +0.000 C 
BRANCH  17  18
ATOM     18  C   UNL     1       6.141   4.552  13.835  0.00  0.00    +0.000 C 
BRANCH  18  19
ATOM     19  C   UNL     1       6.661   3.652  12.712  0.00  0.00    +0.000 C 
BRANCH  19  20
ATOM     20  C   UNL     1       5.552   2.960  11.941  0.00  0.00    +0.000 C 
ATOM     21  C   UNL     1       5.866   1.599  11.376  0.00  0.00    +0.000 C 
ATOM     22  O   UNL     1       4.442   3.466  11.777  0.00  0.00    +0.000 OA
ENDBRANCH  19  20
ENDBRANCH  18  19
ENDBRANCH  17  18
ENDBRANCH  16  17
ENDBRANCH   4  16
TORSDOF 7
ENDMDL
MODEL 8
REMARK VINA RESULT:      -6.4      2.644      6.436
REMARK  Name = 
REMARK  9 active torsions:
REMARK  status: ('A' for Active; 'I' for Inactive)
REMARK    1  A    between atoms: C_1  and  C_2
REMARK    2  A    between atoms: C_2  and  C_3
REMARK    3  A    between atoms: C_3  and  N_4
REMARK    4  A    between atoms: N_7  and  C_8
REMARK    5  A    between atoms: C_8  and  C_9
REMARK    6  A    between atoms: C_9  and  C_10
REMARK    7  A    between atoms: C_10  and  C_11
REMARK    8  A    between atoms: C_11  and  C_12
REMARK    9  A    between atoms: C_12  and  C_13
REMARK                            x       y       z     vdW  Elec       q    Type
REMARK                         _______ _______ _______ _____ _____    ______ ____
ROOT
ATOM      1  N   UNL     1       5.412   6.626  17.070  0.00  0.00    +0.000 N 
ATOM      2  C   UNL     1       4.152   6.683  17.686  0.00  0.00    +0.000 A 
ATOM      3  O   UNL     1       3.719   7.737  18.165  0.00  0.00    +0.000 OA
ATOM      4  N   UNL     1       3.389   5.492  17.721  0.00  0.00    +0.000 N 
ATOM      5  C   UNL     1       3.743   4.298  17.083  0.00  0.00    +0.000 A 
ATOM      6  O   UNL     1       3.024   3.307  16.990  0.00  0.00    +0.000 OA
ATOM      7  C   UNL     1       5.041   4.334  16.526  0.00  0.00    +0.000 A 
ATOM      8  N   UNL     1       5.752   3.367  15.877  0.00  0.00    +0.000 N 
ATOM      9  C   UNL     1       6.947   3.934  15.520  0.00  0.00    +0.000 A 
ATOM     10  N   UNL     1       7.027   5.190  15.914  0.00  0.00    +0.000 NA
ATOM     11  C   UNL     1       5.836   5.434  16.529  0.00  0.00    +0.000 A 
ATOM     12  H   UNL     1       5.444   2.422  15.690  0.00  0.00    +0.000 HD
ENDROOT
BRANCH   1  13
ATOM     13  C   UNL     1       6.257   7.819  17.016  0.00  0.00    +0.000 C 
BRANCH  13  15
ATOM     14  C   UNL     1       8.247   9.033  18.044  0.00  0.00    +0.000 C 
ATOM     15  C   UNL     1       7.584   7.692  17.776  0.00  0.00    +0.000 C 
ENDBRANCH  13  15
ENDBRANCH   1  13
BRANCH   4  16
ATOM     16  C   UNL     1       2.059   5.553  18.324  0.00  0.00    +0.000 C 
BRANCH  16  17
ATOM     17  C   UNL     1       1.994   5.095  19.789  0.00  0.00    +0.000 C 
BRANCH  17  18
ATOM     18  C   UNL     1       0.931   4.028  20.060  0.00  0.00    +0.000 C 
BRANCH  18  19
ATOM     19  C   UNL     1       1.563   2.634  20.041  0.00  0.00    +0.000 C 
BRANCH  19  20
ATOM     20  C   UNL     1       2.793   2.526  20.923  0.00  0.00    +0.000 C 
ATOM     21  C   UNL     1       4.111   2.313  20.225  0.00  0.00    +0.000 C 
ATOM     22  O   UNL     1       2.739   2.609  22.149  0.00  0.00    +0.000 OA
ENDBRANCH  19  20
ENDBRANCH  18  19
ENDBRANCH  17  18
ENDBRANCH  16  17
ENDBRANCH   4  16
TORSDOF 7
ENDMDL
MODEL 9
REMARK VINA RESULT:      -6.3      2.070      2.917
REMARK  Name = 
REMARK  9 active torsions:
REMARK  status: ('A' for Active; 'I' for Inactive)
REMARK    1  A    between atoms: C_1  and  C_2
REMARK    2  A    between atoms: C_2  and  C_3
REMARK    3  A    between atoms: C_3  and  N_4
REMARK    4  A    between atoms: N_7  and  C_8
REMARK    5  A    between atoms: C_8  and  C_9
REMARK    6  A    between atoms: C_9  and  C_10
REMARK    7  A    between atoms: C_10  and  C_11
REMARK    8  A    between atoms: C_11  and  C_12
REMARK    9  A    between atoms: C_12  and  C_13
REMARK                            x       y       z     vdW  Elec       q    Type
REMARK                         _______ _______ _______ _____ _____    ______ ____
ROOT
ATOM      1  N   UNL     1       2.642   5.537  19.912  0.00  0.00    +0.000 N 
ATOM      2  C   UNL     1       3.432   5.360  18.765  0.00  0.00    +0.000 A 
ATOM      3  O   UNL     1       3.955   4.271  18.507  0.00  0.00    +0.000 OA
ATOM      4  N   UNL     1       3.589   6.473  17.905  0.00  0.00    +0.000 N 
ATOM      5  C   UNL     1       2.922   7.694  18.049  0.00  0.00    +0.000 A 
ATOM      6  O   UNL     1       2.944   8.611  17.233  0.00  0.00    +0.000 OA
ATOM      7  C   UNL     1       2.184   7.782  19.250  0.00  0.00    +0.000 A 
ATOM      8  N   UNL     1       1.451   8.811  19.765  0.00  0.00    +0.000 N 
ATOM      9  C   UNL     1       0.919   8.360  20.945  0.00  0.00    +0.000 A 
ATOM     10  N   UNL     1       1.283   7.118  21.199  0.00  0.00    +0.000 NA
ATOM     11  C   UNL     1       2.060   6.763  20.139  0.00  0.00    +0.000 A 
ATOM     12  H   UNL     1       1.321   9.721  19.345  0.00  0.00    +0.000 HD
ENDROOT
BRANCH   1  13
ATOM     13  C   UNL     1       2.453   4.430  20.850  0.00  0.00    +0.000 C 
BRANCH  13  15
ATOM     14  C   UNL     1       1.036   2.830  19.462  0.00  0.00    +0.000 C 
ATOM     15  C   UNL     1       1.111   3.698  20.707  0.00  0.00    +0.000 C 
ENDBRANCH  13  15
ENDBRANCH   1  13
BRANCH   4  16
ATOM     16  C   UNL     1       4.377   6.286  16.687  0.00  0.00    +0.000 C 
BRANCH  16  17
ATOM     17  C   UNL     1       5.827   6.786  16.774  0.00  0.00    +0.000 C 
BRANCH  17  18
ATOM     18  C   UNL     1       6.774   5.824  17.493  0.00  0.00    +0.000 C 
BRANCH  18  19
ATOM     19  C   UNL     1       6.921   4.528  16.693  0.00  0.00    +0.000 C 
BRANCH  19  20
ATOM     20  C   UNL     1       7.028   4.761  15.196  0.00  0.00    +0.000 C 
ATOM     21  C   UNL     1       6.035   4.035  14.326  0.00  0.00    +0.000 C 
ATOM     22  O   UNL     1       7.872   5.505  14.700  0.00  0.00    +0.000 OA
ENDBRANCH  19  20
ENDBRANCH  18  19
ENDBRANCH  17  18
ENDBRANCH  16  17
ENDBRANCH   4  16
TORSDOF 7
ENDMDL
