MODEL 1
REMARK VINA RESULT:      -7.9      0.000      0.000
REMARK  Name = 
REMARK  3 active torsions:
REMARK  status: ('A' for Active; 'I' for Inactive)
REMARK    1  A    between atoms: C_2  and  C_3
REMARK    2  A    between atoms: C_6  and  C_7
REMARK    3  A    between atoms: C_18  and  C_20
REMARK                            x       y       z     vdW  Elec       q    Type
REMARK                         _______ _______ _______ _____ _____    ______ ____
ROOT
ATOM      1  O   UNL     1      -0.027  11.011  22.442  0.00  0.00    +0.000 OA
ATOM      2  C   UNL     1       0.315  10.986  21.264  0.00  0.00    +0.000 C 
ATOM      3  N   UNL     1       0.514   9.799  20.564  0.00  0.00    +0.000 N 
ATOM      4  C   UNL     1       0.781   9.620  19.122  0.00  0.00    +0.000 C 
ATOM      5  C   UNL     1       2.091   8.837  18.928  0.00  0.00    +0.000 C 
ATOM      6  N   UNL     1       2.007   7.557  19.643  0.00  0.00    +0.000 N 
ATOM      7  C   UNL     1       2.204   6.387  18.918  0.00  0.00    +0.000 C 
ATOM      8  O   UNL     1       2.586   6.396  17.747  0.00  0.00    +0.000 OA
ATOM      9  C   UNL     1       1.727   7.709  21.084  0.00  0.00    +0.000 C 
ATOM     10  C   UNL     1       0.439   8.528  21.299  0.00  0.00    +0.000 C 
ENDROOT
BRANCH   7  11
ATOM     11  C   UNL     1       1.956   5.056  19.525  0.00  0.00    +0.000 A 
ATOM     12  C   UNL     1       2.372   4.846  20.849  0.00  0.00    +0.000 A 
ATOM     13  C   UNL     1       2.181   3.605  21.463  0.00  0.00    +0.000 A 
ATOM     14  C   UNL     1       1.568   2.574  20.756  0.00  0.00    +0.000 A 
ATOM     15  C   UNL     1       1.197   2.777  19.432  0.00  0.00    +0.000 A 
ATOM     16  F   UNL     1       0.612   1.783  18.751  0.00  0.00    +0.000 F 
ATOM     17  C   UNL     1       1.418   3.993  18.798  0.00  0.00    +0.000 A 
ENDBRANCH   7  11
BRANCH   2  18
ATOM     18  C   UNL     1       0.519  12.296  20.588  0.00  0.00    +0.000 A 
ATOM     19  C   UNL     1       1.779  12.884  20.482  0.00  0.00    +0.000 A 
ATOM     20  C   UNL     1       1.951  14.067  19.765  0.00  0.00    +0.000 A 
ATOM     21  C   UNL     1       0.852  14.761  19.240  0.00  0.00    +0.000 A 
ATOM     22  C   UNL     1      -0.426  14.212  19.433  0.00  0.00    +0.000 A 
ATOM     23  C   UNL     1      -0.592  12.986  20.094  0.00  0.00    +0.000 A 
BRANCH  21  24
ATOM     24  C   UNL     1       1.024  16.042  18.530  0.00  0.00    +0.000 A 
ATOM     25  C   UNL     1       2.163  16.585  17.958  0.00  0.00    +0.000 A 
ATOM     26  C   UNL     1       1.927  17.846  17.332  0.00  0.00    +0.000 A 
ATOM     27  C   UNL     1       0.615  18.239  17.444  0.00  0.00    +0.000 A 
ATOM     28  S   UNL     1      -0.324  17.090  18.282  0.00  0.00    +0.000 S 
ENDBRANCH  21  24
ENDBRANCH   2  18
TORSDOF 3
ENDMDL
MODEL 2
REMARK VINA RESULT:      -7.9      1.153      1.644
REMARK  Name = 
REMARK  3 active torsions:
REMARK  status: ('A' for Active; 'I' for Inactive)
REMARK    1  A    between atoms: C_2  and  C_3
REMARK    2  A    between atoms: C_6  and  C_7
REMARK    3  A    between atoms: C_18  and  C_20
REMARK                            x       y       z     vdW  Elec       q    Type
REMARK                         _______ _______ _______ _____ _____    ______ ____
ROOT
ATOM      1  O   UNL     1      -0.042  10.833  22.505  0.00  0.00    +0.000 OA
ATOM      2  C   UNL     1       0.229  10.815  21.308  0.00  0.00    +0.000 C 
ATOM      3  N   UNL     1       0.500   9.639  20.615  0.00  0.00    +0.000 N 
ATOM      4  C   UNL     1       0.695   9.457  19.163  0.00  0.00    +0.000 C 
ATOM      5  C   UNL     1       2.061   8.800  18.898  0.00  0.00    +0.000 C 
ATOM      6  N   UNL     1       2.147   7.533  19.636  0.00  0.00    +0.000 N 
ATOM      7  C   UNL     1       2.413   6.373  18.918  0.00  0.00    +0.000 C 
ATOM      8  O   UNL     1       2.720   6.395  17.725  0.00  0.00    +0.000 OA
ATOM      9  C   UNL     1       1.942   7.688  21.090  0.00  0.00    +0.000 C 
ATOM     10  C   UNL     1       0.595   8.383  21.372  0.00  0.00    +0.000 C 
ENDROOT
BRANCH   7  11
ATOM     11  C   UNL     1       2.334   5.038  19.559  0.00  0.00    +0.000 A 
ATOM     12  C   UNL     1       1.090   4.615  20.054  0.00  0.00    +0.000 A 
ATOM     13  C   UNL     1       0.964   3.375  20.685  0.00  0.00    +0.000 A 
ATOM     14  C   UNL     1       2.079   2.553  20.818  0.00  0.00    +0.000 A 
ATOM     15  C   UNL     1       3.316   2.996  20.363  0.00  0.00    +0.000 A 
ATOM     16  F   UNL     1       4.389   2.206  20.495  0.00  0.00    +0.000 F 
ATOM     17  C   UNL     1       3.462   4.243  19.770  0.00  0.00    +0.000 A 
ENDBRANCH   7  11
BRANCH   2  18
ATOM     18  C   UNL     1       0.262  12.125  20.601  0.00  0.00    +0.000 A 
ATOM     19  C   UNL     1      -0.873  12.669  20.002  0.00  0.00    +0.000 A 
ATOM     20  C   UNL     1      -0.831  13.938  19.426  0.00  0.00    +0.000 A 
ATOM     21  C   UNL     1       0.374  14.646  19.323  0.00  0.00    +0.000 A 
ATOM     22  C   UNL     1       1.534  14.050  19.844  0.00  0.00    +0.000 A 
ATOM     23  C   UNL     1       1.478  12.804  20.486  0.00  0.00    +0.000 A 
BRANCH  21  24
ATOM     24  C   UNL     1       0.434  15.964  18.664  0.00  0.00    +0.000 A 
ATOM     25  C   UNL     1      -0.600  16.789  18.251  0.00  0.00    +0.000 A 
ATOM     26  C   UNL     1      -0.142  18.010  17.670  0.00  0.00    +0.000 A 
ATOM     27  C   UNL     1       1.230  18.087  17.648  0.00  0.00    +0.000 A 
ATOM     28  S   UNL     1       1.956  16.708  18.336  0.00  0.00    +0.000 S 
ENDBRANCH  21  24
ENDBRANCH   2  18
TORSDOF 3
ENDMDL
MODEL 3
REMARK VINA RESULT:      -7.6      5.391      9.708
REMARK  Name = 
REMARK  3 active torsions:
REMARK  status: ('A' for Active; 'I' for Inactive)
REMARK    1  A    between atoms: C_2  and  C_3
REMARK    2  A    between atoms: C_6  and  C_7
REMARK    3  A    between atoms: C_18  and  C_20
REMARK                            x       y       z     vdW  Elec       q    Type
REMARK                         _______ _______ _______ _____ _____    ______ ____
ROOT
ATOM      1  O   UNL     1       1.189  12.060  19.194  0.00  0.00    +0.000 OA
ATOM      2  C   UNL     1       0.545  11.084  18.820  0.00  0.00    +0.000 C 
ATOM      3  N   UNL     1      -0.776  11.174  18.391  0.00  0.00    +0.000 N 
ATOM      4  C   UNL     1      -1.615  10.122  17.785  0.00  0.00    +0.000 C 
ATOM      5  C   UNL     1      -2.900   9.938  18.611  0.00  0.00    +0.000 C 
ATOM      6  N   UNL     1      -3.604  11.223  18.713  0.00  0.00    +0.000 N 
ATOM      7  C   UNL     1      -4.921  11.286  18.271  0.00  0.00    +0.000 C 
ATOM      8  O   UNL     1      -5.551  10.281  17.940  0.00  0.00    +0.000 OA
ATOM      9  C   UNL     1      -2.780  12.296  19.305  0.00  0.00    +0.000 C 
ATOM     10  C   UNL     1      -1.468  12.465  18.513  0.00  0.00    +0.000 C 
ENDROOT
BRANCH   7  11
ATOM     11  C   UNL     1      -5.636  12.582  18.171  0.00  0.00    +0.000 A 
ATOM     12  C   UNL     1      -5.864  13.304  19.353  0.00  0.00    +0.000 A 
ATOM     13  C   UNL     1      -6.551  14.521  19.318  0.00  0.00    +0.000 A 
ATOM     14  C   UNL     1      -7.005  15.021  18.101  0.00  0.00    +0.000 A 
ATOM     15  C   UNL     1      -6.811  14.280  16.940  0.00  0.00    +0.000 A 
ATOM     16  F   UNL     1      -7.253  14.759  15.770  0.00  0.00    +0.000 F 
ATOM     17  C   UNL     1      -6.166  13.051  16.968  0.00  0.00    +0.000 A 
ENDBRANCH   7  11
BRANCH   2  18
ATOM     18  C   UNL     1       1.236   9.766  18.843  0.00  0.00    +0.000 A 
ATOM     19  C   UNL     1       1.233   8.951  19.974  0.00  0.00    +0.000 A 
ATOM     20  C   UNL     1       1.812   7.683  19.935  0.00  0.00    +0.000 A 
ATOM     21  C   UNL     1       2.518   7.245  18.807  0.00  0.00    +0.000 A 
ATOM     22  C   UNL     1       2.600   8.111  17.704  0.00  0.00    +0.000 A 
ATOM     23  C   UNL     1       1.957   9.358  17.718  0.00  0.00    +0.000 A 
BRANCH  21  24
ATOM     24  C   UNL     1       3.181   5.927  18.782  0.00  0.00    +0.000 A 
ATOM     25  C   UNL     1       4.387   5.539  19.342  0.00  0.00    +0.000 A 
ATOM     26  C   UNL     1       4.684   4.160  19.125  0.00  0.00    +0.000 A 
ATOM     27  C   UNL     1       3.701   3.528  18.402  0.00  0.00    +0.000 A 
ATOM     28  S   UNL     1       2.426   4.586  18.004  0.00  0.00    +0.000 S 
ENDBRANCH  21  24
ENDBRANCH   2  18
TORSDOF 3
ENDMDL
MODEL 4
REMARK VINA RESULT:      -7.6      5.366      9.693
REMARK  Name = 
REMARK  3 active torsions:
REMARK  status: ('A' for Active; 'I' for Inactive)
REMARK    1  A    between atoms: C_2  and  C_3
REMARK    2  A    between atoms: C_6  and  C_7
REMARK    3  A    between atoms: C_18  and  C_20
REMARK                            x       y       z     vdW  Elec       q    Type
REMARK                         _______ _______ _______ _____ _____    ______ ____
ROOT
ATOM      1  O   UNL     1       1.127  12.044  19.437  0.00  0.00    +0.000 OA
ATOM      2  C   UNL     1       0.519  11.095  18.951  0.00  0.00    +0.000 C 
ATOM      3  N   UNL     1      -0.777  11.207  18.454  0.00  0.00    +0.000 N 
ATOM      4  C   UNL     1      -1.566  10.198  17.719  0.00  0.00    +0.000 C 
ATOM      5  C   UNL     1      -2.893   9.939  18.451  0.00  0.00    +0.000 C 
ATOM      6  N   UNL     1      -3.619  11.205  18.613  0.00  0.00    +0.000 N 
ATOM      7  C   UNL     1      -4.909  11.292  18.101  0.00  0.00    +0.000 C 
ATOM      8  O   UNL     1      -5.506  10.310  17.657  0.00  0.00    +0.000 OA
ATOM      9  C   UNL     1      -2.845  12.236  19.334  0.00  0.00    +0.000 C 
ATOM     10  C   UNL     1      -1.492  12.478  18.636  0.00  0.00    +0.000 C 
ENDROOT
BRANCH   7  11
ATOM     11  C   UNL     1      -5.635  12.585  18.062  0.00  0.00    +0.000 A 
ATOM     12  C   UNL     1      -5.868  13.249  19.276  0.00  0.00    +0.000 A 
ATOM     13  C   UNL     1      -6.564  14.461  19.298  0.00  0.00    +0.000 A 
ATOM     14  C   UNL     1      -7.023  15.013  18.105  0.00  0.00    +0.000 A 
ATOM     15  C   UNL     1      -6.824  14.328  16.911  0.00  0.00    +0.000 A 
ATOM     16  F   UNL     1      -7.271  14.858  15.765  0.00  0.00    +0.000 F 
ATOM     17  C   UNL     1      -6.170  13.104  16.882  0.00  0.00    +0.000 A 
ENDBRANCH   7  11
BRANCH   2  18
ATOM     18  C   UNL     1       1.225   9.785  18.910  0.00  0.00    +0.000 A 
ATOM     19  C   UNL     1       1.883   9.336  17.766  0.00  0.00    +0.000 A 
ATOM     20  C   UNL     1       2.611   8.148  17.788  0.00  0.00    +0.000 A 
ATOM     21  C   UNL     1       2.599   7.312  18.914  0.00  0.00    +0.000 A 
ATOM     22  C   UNL     1       1.854   7.725  20.031  0.00  0.00    +0.000 A 
ATOM     23  C   UNL     1       1.180   8.955  20.034  0.00  0.00    +0.000 A 
BRANCH  21  24
ATOM     24  C   UNL     1       3.321   6.026  18.921  0.00  0.00    +0.000 A 
ATOM     25  C   UNL     1       3.027   4.856  19.602  0.00  0.00    +0.000 A 
ATOM     26  C   UNL     1       3.956   3.806  19.334  0.00  0.00    +0.000 A 
ATOM     27  C   UNL     1       4.940   4.199  18.458  0.00  0.00    +0.000 A 
ATOM     28  S   UNL     1       4.733   5.813  17.954  0.00  0.00    +0.000 S 
ENDBRANCH  21  24
ENDBRANCH   2  18
TORSDOF 3
ENDMDL
MODEL 5
REMARK VINA RESULT:      -7.5      3.333      4.001
REMARK  Name = 
REMARK  3 active torsions:
REMARK  status: ('A' for Active; 'I' for Inactive)
REMARK    1  A    between atoms: C_2  and  C_3
REMARK    2  A    between atoms: C_6  and  C_7
REMARK    3  A    between atoms: C_18  and  C_20
REMARK                            x       y       z     vdW  Elec       q    Type
REMARK                         _______ _______ _______ _____ _____    ______ ____
ROOT
ATOM      1  O   UNL     1      -0.482   9.707  23.752  0.00  0.00    +0.000 OA
ATOM      2  C   UNL     1      -0.606  10.293  22.681  0.00  0.00    +0.000 C 
ATOM      3  N   UNL     1      -0.216   9.735  21.467  0.00  0.00    +0.000 N 
ATOM      4  C   UNL     1      -0.437  10.259  20.105  0.00  0.00    +0.000 C 
ATOM      5  C   UNL     1       0.911  10.405  19.377  0.00  0.00    +0.000 C 
ATOM      6  N   UNL     1       1.607   9.112  19.371  0.00  0.00    +0.000 N 
ATOM      7  C   UNL     1       1.979   8.574  18.144  0.00  0.00    +0.000 C 
ATOM      8  O   UNL     1       1.878   9.206  17.092  0.00  0.00    +0.000 OA
ATOM      9  C   UNL     1       1.827   8.560  20.723  0.00  0.00    +0.000 C 
ATOM     10  C   UNL     1       0.490   8.446  21.481  0.00  0.00    +0.000 C 
ENDROOT
BRANCH   7  11
ATOM     11  C   UNL     1       2.518   7.196  18.042  0.00  0.00    +0.000 A 
ATOM     12  C   UNL     1       3.865   7.037  17.682  0.00  0.00    +0.000 A 
ATOM     13  C   UNL     1       4.418   5.760  17.552  0.00  0.00    +0.000 A 
ATOM     14  C   UNL     1       3.626   4.640  17.788  0.00  0.00    +0.000 A 
ATOM     15  C   UNL     1       2.283   4.804  18.103  0.00  0.00    +0.000 A 
ATOM     16  F   UNL     1       1.521   3.725  18.325  0.00  0.00    +0.000 F 
ATOM     17  C   UNL     1       1.712   6.066  18.196  0.00  0.00    +0.000 A 
ENDBRANCH   7  11
BRANCH   2  18
ATOM     18  C   UNL     1      -1.198  11.658  22.720  0.00  0.00    +0.000 A 
ATOM     19  C   UNL     1      -0.477  12.787  22.333  0.00  0.00    +0.000 A 
ATOM     20  C   UNL     1      -1.088  14.040  22.295  0.00  0.00    +0.000 A 
ATOM     21  C   UNL     1      -2.398  14.220  22.761  0.00  0.00    +0.000 A 
ATOM     22  C   UNL     1      -3.087  13.094  23.240  0.00  0.00    +0.000 A 
ATOM     23  C   UNL     1      -2.497  11.822  23.212  0.00  0.00    +0.000 A 
BRANCH  21  24
ATOM     24  C   UNL     1      -3.029  15.554  22.776  0.00  0.00    +0.000 A 
ATOM     25  C   UNL     1      -2.704  16.688  22.050  0.00  0.00    +0.000 A 
ATOM     26  C   UNL     1      -3.569  17.790  22.321  0.00  0.00    +0.000 A 
ATOM     27  C   UNL     1      -4.532  17.474  23.250  0.00  0.00    +0.000 A 
ATOM     28  S   UNL     1      -4.400  15.859  23.776  0.00  0.00    +0.000 S 
ENDBRANCH  21  24
ENDBRANCH   2  18
TORSDOF 3
ENDMDL
MODEL 6
REMARK VINA RESULT:      -7.5      4.816     10.050
REMARK  Name = 
REMARK  3 active torsions:
REMARK  status: ('A' for Active; 'I' for Inactive)
REMARK    1  A    between atoms: C_2  and  C_3
REMARK    2  A    between atoms: C_6  and  C_7
REMARK    3  A    between atoms: C_18  and  C_20
REMARK                            x       y       z     vdW  Elec       q    Type
REMARK                         _______ _______ _______ _____ _____    ______ ____
ROOT
ATOM      1  O   UNL     1      -0.934   9.847  19.867  0.00  0.00    +0.000 OA
ATOM      2  C   UNL     1       0.192  10.231  19.567  0.00  0.00    +0.000 C 
ATOM      3  N   UNL     1       0.567  11.571  19.611  0.00  0.00    +0.000 N 
ATOM      4  C   UNL     1       1.911  12.153  19.420  0.00  0.00    +0.000 C 
ATOM      5  C   UNL     1       1.873  13.191  18.285  0.00  0.00    +0.000 C 
ATOM      6  N   UNL     1       0.862  14.212  18.588  0.00  0.00    +0.000 N 
ATOM      7  C   UNL     1       1.265  15.542  18.633  0.00  0.00    +0.000 C 
ATOM      8  O   UNL     1       2.391  15.898  18.286  0.00  0.00    +0.000 OA
ATOM      9  C   UNL     1      -0.489  13.653  18.798  0.00  0.00    +0.000 C 
ATOM     10  C   UNL     1      -0.461  12.579  19.904  0.00  0.00    +0.000 C 
ENDROOT
BRANCH   7  11
ATOM     11  C   UNL     1       0.349  16.606  19.110  0.00  0.00    +0.000 A 
ATOM     12  C   UNL     1       0.491  17.057  20.432  0.00  0.00    +0.000 A 
ATOM     13  C   UNL     1      -0.359  18.044  20.939  0.00  0.00    +0.000 A 
ATOM     14  C   UNL     1      -1.348  18.586  20.123  0.00  0.00    +0.000 A 
ATOM     15  C   UNL     1      -1.510  18.105  18.829  0.00  0.00    +0.000 A 
ATOM     16  F   UNL     1      -2.465  18.624  18.047  0.00  0.00    +0.000 F 
ATOM     17  C   UNL     1      -0.698  17.097  18.327  0.00  0.00    +0.000 A 
ENDBRANCH   7  11
BRANCH   2  18
ATOM     18  C   UNL     1       1.171   9.195  19.138  0.00  0.00    +0.000 A 
ATOM     19  C   UNL     1       1.724   9.186  17.859  0.00  0.00    +0.000 A 
ATOM     20  C   UNL     1       2.705   8.256  17.517  0.00  0.00    +0.000 A 
ATOM     21  C   UNL     1       3.070   7.232  18.402  0.00  0.00    +0.000 A 
ATOM     22  C   UNL     1       2.438   7.189  19.655  0.00  0.00    +0.000 A 
ATOM     23  C   UNL     1       1.502   8.166  20.025  0.00  0.00    +0.000 A 
BRANCH  21  24
ATOM     24  C   UNL     1       4.066   6.212  18.023  0.00  0.00    +0.000 A 
ATOM     25  C   UNL     1       4.577   5.903  16.773  0.00  0.00    +0.000 A 
ATOM     26  C   UNL     1       5.552   4.861  16.810  0.00  0.00    +0.000 A 
ATOM     27  C   UNL     1       5.760   4.395  18.087  0.00  0.00    +0.000 A 
ATOM     28  S   UNL     1       4.799   5.219  19.228  0.00  0.00    +0.000 S 
ENDBRANCH  21  24
ENDBRANCH   2  18
TORSDOF 3
ENDMDL
MODEL 7
REMARK VINA RESULT:      -7.5      1.126      1.251
REMARK  Name = 
REMARK  3 active torsions:
REMARK  status: ('A' for Active; 'I' for Inactive)
REMARK    1  A    between atoms: C_2  and  C_3
REMARK    2  A    between atoms: C_6  and  C_7
REMARK    3  A    between atoms: C_18  and  C_20
REMARK                            x       y       z     vdW  Elec       q    Type
REMARK                         _______ _______ _______ _____ _____    ______ ____
ROOT
ATOM      1  O   UNL     1      -0.376  10.353  21.817  0.00  0.00    +0.000 OA
ATOM      2  C   UNL     1       0.117  10.507  20.704  0.00  0.00    +0.000 C 
ATOM      3  N   UNL     1       0.564   9.443  19.925  0.00  0.00    +0.000 N 
ATOM      4  C   UNL     1       1.037   9.468  18.527  0.00  0.00    +0.000 C 
ATOM      5  C   UNL     1       2.455   8.876  18.445  0.00  0.00    +0.000 C 
ATOM      6  N   UNL     1       2.453   7.520  19.010  0.00  0.00    +0.000 N 
ATOM      7  C   UNL     1       2.899   6.475  18.207  0.00  0.00    +0.000 C 
ATOM      8  O   UNL     1       3.425   6.668  17.111  0.00  0.00    +0.000 OA
ATOM      9  C   UNL     1       1.970   7.467  20.404  0.00  0.00    +0.000 C 
ATOM     10  C   UNL     1       0.566   8.095  20.510  0.00  0.00    +0.000 C 
ENDROOT
BRANCH   7  11
ATOM     11  C   UNL     1       2.755   5.063  18.636  0.00  0.00    +0.000 A 
ATOM     12  C   UNL     1       3.848   4.450  19.270  0.00  0.00    +0.000 A 
ATOM     13  C   UNL     1       3.774   3.115  19.676  0.00  0.00    +0.000 A 
ATOM     14  C   UNL     1       2.605   2.392  19.456  0.00  0.00    +0.000 A 
ATOM     15  C   UNL     1       1.542   2.993  18.791  0.00  0.00    +0.000 A 
ATOM     16  F   UNL     1       0.420   2.295  18.575  0.00  0.00    +0.000 F 
ATOM     17  C   UNL     1       1.619   4.306  18.346  0.00  0.00    +0.000 A 
ENDBRANCH   7  11
BRANCH   2  18
ATOM     18  C   UNL     1       0.228  11.902  20.199  0.00  0.00    +0.000 A 
ATOM     19  C   UNL     1       1.355  12.688  20.442  0.00  0.00    +0.000 A 
ATOM     20  C   UNL     1       1.467  13.958  19.880  0.00  0.00    +0.000 A 
ATOM     21  C   UNL     1       0.407  14.529  19.163  0.00  0.00    +0.000 A 
ATOM     22  C   UNL     1      -0.763  13.769  19.003  0.00  0.00    +0.000 A 
ATOM     23  C   UNL     1      -0.850  12.463  19.509  0.00  0.00    +0.000 A 
BRANCH  21  24
ATOM     24  C   UNL     1       0.500  15.895  18.615  0.00  0.00    +0.000 A 
ATOM     25  C   UNL     1      -0.512  16.788  18.299  0.00  0.00    +0.000 A 
ATOM     26  C   UNL     1      -0.022  18.036  17.811  0.00  0.00    +0.000 A 
ATOM     27  C   UNL     1       1.351  18.067  17.760  0.00  0.00    +0.000 A 
ATOM     28  S   UNL     1       2.040  16.610  18.312  0.00  0.00    +0.000 S 
ENDBRANCH  21  24
ENDBRANCH   2  18
TORSDOF 3
ENDMDL
MODEL 8
REMARK VINA RESULT:      -7.5      4.790      9.935
REMARK  Name = 
REMARK  3 active torsions:
REMARK  status: ('A' for Active; 'I' for Inactive)
REMARK    1  A    between atoms: C_2  and  C_3
REMARK    2  A    between atoms: C_6  and  C_7
REMARK    3  A    between atoms: C_18  and  C_20
REMARK                            x       y       z     vdW  Elec       q    Type
REMARK                         _______ _______ _______ _____ _____    ______ ____
ROOT
ATOM      1  O   UNL     1       2.265  10.603  18.072  0.00  0.00    +0.000 OA
ATOM      2  C   UNL     1       1.585   9.921  18.833  0.00  0.00    +0.000 C 
ATOM      3  N   UNL     1       0.566  10.456  19.617  0.00  0.00    +0.000 N 
ATOM      4  C   UNL     1      -0.414   9.740  20.457  0.00  0.00    +0.000 C 
ATOM      5  C   UNL     1      -0.333  10.253  21.905  0.00  0.00    +0.000 C 
ATOM      6  N   UNL     1      -0.540  11.707  21.922  0.00  0.00    +0.000 N 
ATOM      7  C   UNL     1      -1.569  12.214  22.709  0.00  0.00    +0.000 C 
ATOM      8  O   UNL     1      -2.205  11.508  23.491  0.00  0.00    +0.000 OA
ATOM      9  C   UNL     1       0.421  12.444  21.078  0.00  0.00    +0.000 C 
ATOM     10  C   UNL     1       0.383  11.914  19.631  0.00  0.00    +0.000 C 
ENDROOT
BRANCH   7  11
ATOM     11  C   UNL     1      -1.957  13.643  22.637  0.00  0.00    +0.000 A 
ATOM     12  C   UNL     1      -1.486  14.507  23.639  0.00  0.00    +0.000 A 
ATOM     13  C   UNL     1      -1.838  15.859  23.630  0.00  0.00    +0.000 A 
ATOM     14  C   UNL     1      -2.656  16.352  22.617  0.00  0.00    +0.000 A 
ATOM     15  C   UNL     1      -3.152  15.483  21.653  0.00  0.00    +0.000 A 
ATOM     16  F   UNL     1      -3.943  15.957  20.681  0.00  0.00    +0.000 F 
ATOM     17  C   UNL     1      -2.842  14.129  21.673  0.00  0.00    +0.000 A 
ENDBRANCH   7  11
BRANCH   2  18
ATOM     18  C   UNL     1       1.893   8.466  18.898  0.00  0.00    +0.000 A 
ATOM     19  C   UNL     1       1.902   7.766  20.104  0.00  0.00    +0.000 A 
ATOM     20  C   UNL     1       2.105   6.387  20.122  0.00  0.00    +0.000 A 
ATOM     21  C   UNL     1       2.429   5.689  18.951  0.00  0.00    +0.000 A 
ATOM     22  C   UNL     1       2.514   6.417  17.753  0.00  0.00    +0.000 A 
ATOM     23  C   UNL     1       2.240   7.792  17.724  0.00  0.00    +0.000 A 
BRANCH  21  24
ATOM     24  C   UNL     1       2.701   4.239  18.974  0.00  0.00    +0.000 A 
ATOM     25  C   UNL     1       1.828   3.178  18.797  0.00  0.00    +0.000 A 
ATOM     26  C   UNL     1       2.475   1.907  18.865  0.00  0.00    +0.000 A 
ATOM     27  C   UNL     1       3.824   2.026  19.096  0.00  0.00    +0.000 A 
ATOM     28  S   UNL     1       4.307   3.656  19.214  0.00  0.00    +0.000 S 
ENDBRANCH  21  24
ENDBRANCH   2  18
TORSDOF 3
ENDMDL
MODEL 9
REMARK VINA RESULT:      -7.5      5.418      9.715
REMARK  Name = 
REMARK  3 active torsions:
REMARK  status: ('A' for Active; 'I' for Inactive)
REMARK    1  A    between atoms: C_2  and  C_3
REMARK    2  A    between atoms: C_6  and  C_7
REMARK    3  A    between atoms: C_18  and  C_20
REMARK                            x       y       z     vdW  Elec       q    Type
REMARK                         _______ _______ _______ _____ _____    ______ ____
ROOT
ATOM      1  O   UNL     1       1.050  12.081  19.563  0.00  0.00    +0.000 OA
ATOM      2  C   UNL     1       0.459  11.146  19.031  0.00  0.00    +0.000 C 
ATOM      3  N   UNL     1      -0.831  11.264  18.521  0.00  0.00    +0.000 N 
ATOM      4  C   UNL     1      -1.599  10.277  17.736  0.00  0.00    +0.000 C 
ATOM      5  C   UNL     1      -2.934   9.975  18.440  0.00  0.00    +0.000 C 
ATOM      6  N   UNL     1      -3.676  11.227  18.642  0.00  0.00    +0.000 N 
ATOM      7  C   UNL     1      -4.960  11.320  18.116  0.00  0.00    +0.000 C 
ATOM      8  O   UNL     1      -5.539  10.351  17.625  0.00  0.00    +0.000 OA
ATOM      9  C   UNL     1      -2.922  12.235  19.413  0.00  0.00    +0.000 C 
ATOM     10  C   UNL     1      -1.563  12.519  18.744  0.00  0.00    +0.000 C 
ENDROOT
BRANCH   7  11
ATOM     11  C   UNL     1      -5.698  12.606  18.118  0.00  0.00    +0.000 A 
ATOM     12  C   UNL     1      -6.178  13.094  16.892  0.00  0.00    +0.000 A 
ATOM     13  C   UNL     1      -6.863  14.311  16.834  0.00  0.00    +0.000 A 
ATOM     14  C   UNL     1      -7.075  15.038  18.002  0.00  0.00    +0.000 A 
ATOM     15  C   UNL     1      -6.561  14.569  19.205  0.00  0.00    +0.000 A 
ATOM     16  F   UNL     1      -6.761  15.272  20.327  0.00  0.00    +0.000 F 
ATOM     17  C   UNL     1      -5.844  13.382  19.269  0.00  0.00    +0.000 A 
ENDBRANCH   7  11
BRANCH   2  18
ATOM     18  C   UNL     1       1.179   9.846  18.948  0.00  0.00    +0.000 A 
ATOM     19  C   UNL     1       1.255   8.974  20.033  0.00  0.00    +0.000 A 
ATOM     20  C   UNL     1       1.859   7.725  19.897  0.00  0.00    +0.000 A 
ATOM     21  C   UNL     1       2.514   7.364  18.712  0.00  0.00    +0.000 A 
ATOM     22  C   UNL     1       2.518   8.287  17.654  0.00  0.00    +0.000 A 
ATOM     23  C   UNL     1       1.849   9.515  17.767  0.00  0.00    +0.000 A 
BRANCH  21  24
ATOM     24  C   UNL     1       3.204   6.066  18.584  0.00  0.00    +0.000 A 
ATOM     25  C   UNL     1       4.041   5.611  17.578  0.00  0.00    +0.000 A 
ATOM     26  C   UNL     1       4.542   4.297  17.821  0.00  0.00    +0.000 A 
ATOM     27  C   UNL     1       4.073   3.777  19.004  0.00  0.00    +0.000 A 
ATOM     28  S   UNL     1       3.053   4.871  19.818  0.00  0.00    +0.000 S 
ENDBRANCH  21  24
ENDBRANCH   2  18
TORSDOF 3
ENDMDL
