MODEL 1
REMARK VINA RESULT:      -6.7      0.000      0.000
REMARK  Name = 
REMARK  1 active torsions:
REMARK  status: ('A' for Active; 'I' for Inactive)
REMARK    1  A    between atoms: C_5  and  C_6
REMARK                            x       y       z     vdW  Elec       q    Type
REMARK                         _______ _______ _______ _____ _____    ______ ____
ROOT
ATOM      1 CL   UNL     1       0.447   2.897  19.556  0.00  0.00    +0.000 Cl
ATOM      2  C   UNL     1       1.854   3.588  18.828  0.00  0.00    +0.000 A 
ATOM      3  C   UNL     1       2.391   2.942  17.714  0.00  0.00    +0.000 A 
ATOM      4  C   UNL     1       3.531   3.456  17.095  0.00  0.00    +0.000 A 
ATOM      5  C   UNL     1       4.171   4.618  17.564  0.00  0.00    +0.000 A 
ATOM      6  C   UNL     1       3.607   5.258  18.679  0.00  0.00    +0.000 A 
ATOM      7  C   UNL     1       2.461   4.751  19.308  0.00  0.00    +0.000 A 
ATOM      8 CL   UNL     1       1.845   5.615  20.672  0.00  0.00    +0.000 Cl
ENDROOT
BRANCH   5   9
ATOM      9  C   UNL     1       5.405   5.133  16.864  0.00  0.00    +0.000 C 
ATOM     10  C   UNL     1       6.731   4.961  17.568  0.00  0.00    +0.000 C 
ATOM     11  N   UNL     1       7.607   4.319  16.564  0.00  0.00    +0.000 NA
ATOM     12  C   UNL     1       7.173   4.794  15.241  0.00  0.00    +0.000 C 
ATOM     13  C   UNL     1       5.700   4.976  15.410  0.00  0.00    +0.000 C 
ATOM     14  C   UNL     1       5.177   6.291  15.897  0.00  0.00    +0.000 C 
ATOM     15  H   UNL     1       7.424   3.316  16.598  0.00  0.00    +0.000 HD
ENDBRANCH   5   9
TORSDOF 1
ENDMDL
MODEL 2
REMARK VINA RESULT:      -6.7      3.493      5.315
REMARK  Name = 
REMARK  1 active torsions:
REMARK  status: ('A' for Active; 'I' for Inactive)
REMARK    1  A    between atoms: C_5  and  C_6
REMARK                            x       y       z     vdW  Elec       q    Type
REMARK                         _______ _______ _______ _____ _____    ______ ____
ROOT
ATOM      1 CL   UNL     1       7.928   6.437  18.369  0.00  0.00    +0.000 Cl
ATOM      2  C   UNL     1       6.418   5.618  18.187  0.00  0.00    +0.000 A 
ATOM      3  C   UNL     1       5.592   5.525  19.307  0.00  0.00    +0.000 A 
ATOM      4  C   UNL     1       4.365   4.866  19.214  0.00  0.00    +0.000 A 
ATOM      5  C   UNL     1       3.927   4.278  18.012  0.00  0.00    +0.000 A 
ATOM      6  C   UNL     1       4.769   4.394  16.895  0.00  0.00    +0.000 A 
ATOM      7  C   UNL     1       6.003   5.055  16.977  0.00  0.00    +0.000 A 
ATOM      8 CL   UNL     1       6.963   5.144  15.544  0.00  0.00    +0.000 Cl
ENDROOT
BRANCH   5   9
ATOM      9  C   UNL     1       2.594   3.571  17.962  0.00  0.00    +0.000 C 
ATOM     10  C   UNL     1       2.601   2.086  17.685  0.00  0.00    +0.000 C 
ATOM     11  N   UNL     1       1.780   1.500  18.767  0.00  0.00    +0.000 NA
ATOM     12  C   UNL     1       0.760   2.497  19.128  0.00  0.00    +0.000 C 
ATOM     13  C   UNL     1       1.462   3.798  18.906  0.00  0.00    +0.000 C 
ATOM     14  C   UNL     1       1.406   4.438  17.555  0.00  0.00    +0.000 C 
ATOM     15  H   UNL     1       2.387   1.383  19.579  0.00  0.00    +0.000 HD
ENDBRANCH   5   9
TORSDOF 1
ENDMDL
MODEL 3
REMARK VINA RESULT:      -6.6      3.153      5.182
REMARK  Name = 
REMARK  1 active torsions:
REMARK  status: ('A' for Active; 'I' for Inactive)
REMARK    1  A    between atoms: C_5  and  C_6
REMARK                            x       y       z     vdW  Elec       q    Type
REMARK                         _______ _______ _______ _____ _____    ______ ____
ROOT
ATOM      1 CL   UNL     1       5.259   6.622  15.589  0.00  0.00    +0.000 Cl
ATOM      2  C   UNL     1       4.436   5.661  16.766  0.00  0.00    +0.000 A 
ATOM      3  C   UNL     1       4.711   4.294  16.795  0.00  0.00    +0.000 A 
ATOM      4  C   UNL     1       4.066   3.474  17.722  0.00  0.00    +0.000 A 
ATOM      5  C   UNL     1       3.130   3.985  18.641  0.00  0.00    +0.000 A 
ATOM      6  C   UNL     1       2.878   5.365  18.603  0.00  0.00    +0.000 A 
ATOM      7  C   UNL     1       3.521   6.198  17.676  0.00  0.00    +0.000 A 
ATOM      8 CL   UNL     1       3.142   7.884  17.713  0.00  0.00    +0.000 Cl
ENDROOT
BRANCH   5   9
ATOM      9  C   UNL     1       2.455   3.057  19.621  0.00  0.00    +0.000 C 
ATOM     10  C   UNL     1       3.326   2.373  20.648  0.00  0.00    +0.000 C 
ATOM     11  N   UNL     1       2.669   2.653  21.943  0.00  0.00    +0.000 NA
ATOM     12  C   UNL     1       1.223   2.746  21.685  0.00  0.00    +0.000 C 
ATOM     13  C   UNL     1       1.159   3.325  20.309  0.00  0.00    +0.000 C 
ATOM     14  C   UNL     1       1.166   2.405  19.128  0.00  0.00    +0.000 C 
ATOM     15  H   UNL     1       2.980   3.575  22.249  0.00  0.00    +0.000 HD
ENDBRANCH   5   9
TORSDOF 1
ENDMDL
MODEL 4
REMARK VINA RESULT:      -6.6      3.445      5.488
REMARK  Name = 
REMARK  1 active torsions:
REMARK  status: ('A' for Active; 'I' for Inactive)
REMARK    1  A    between atoms: C_5  and  C_6
REMARK                            x       y       z     vdW  Elec       q    Type
REMARK                         _______ _______ _______ _____ _____    ______ ____
ROOT
ATOM      1 CL   UNL     1       5.292   6.853  15.741  0.00  0.00    +0.000 Cl
ATOM      2  C   UNL     1       4.526   5.717  16.794  0.00  0.00    +0.000 A 
ATOM      3  C   UNL     1       3.656   6.215  17.763  0.00  0.00    +0.000 A 
ATOM      4  C   UNL     1       3.019   5.339  18.643  0.00  0.00    +0.000 A 
ATOM      5  C   UNL     1       3.231   3.949  18.590  0.00  0.00    +0.000 A 
ATOM      6  C   UNL     1       4.101   3.468  17.599  0.00  0.00    +0.000 A 
ATOM      7  C   UNL     1       4.745   4.339  16.709  0.00  0.00    +0.000 A 
ATOM      8 CL   UNL     1       5.796   3.646  15.525  0.00  0.00    +0.000 Cl
ENDROOT
BRANCH   5   9
ATOM      9  C   UNL     1       2.523   3.042  19.567  0.00  0.00    +0.000 C 
ATOM     10  C   UNL     1       3.371   2.303  20.575  0.00  0.00    +0.000 C 
ATOM     11  N   UNL     1       2.742   2.597  21.881  0.00  0.00    +0.000 NA
ATOM     12  C   UNL     1       1.299   2.763  21.641  0.00  0.00    +0.000 C 
ATOM     13  C   UNL     1       1.248   3.362  20.272  0.00  0.00    +0.000 C 
ATOM     14  C   UNL     1       1.198   2.459  19.080  0.00  0.00    +0.000 C 
ATOM     15  H   UNL     1       3.100   3.499  22.194  0.00  0.00    +0.000 HD
ENDBRANCH   5   9
TORSDOF 1
ENDMDL
MODEL 5
REMARK VINA RESULT:      -6.6      0.906      1.893
REMARK  Name = 
REMARK  1 active torsions:
REMARK  status: ('A' for Active; 'I' for Inactive)
REMARK    1  A    between atoms: C_5  and  C_6
REMARK                            x       y       z     vdW  Elec       q    Type
REMARK                         _______ _______ _______ _____ _____    ______ ____
ROOT
ATOM      1 CL   UNL     1       1.185   3.823  20.766  0.00  0.00    +0.000 Cl
ATOM      2  C   UNL     1       2.421   4.198  19.618  0.00  0.00    +0.000 A 
ATOM      3  C   UNL     1       3.194   5.336  19.846  0.00  0.00    +0.000 A 
ATOM      4  C   UNL     1       4.200   5.686  18.944  0.00  0.00    +0.000 A 
ATOM      5  C   UNL     1       4.463   4.922  17.792  0.00  0.00    +0.000 A 
ATOM      6  C   UNL     1       3.681   3.774  17.588  0.00  0.00    +0.000 A 
ATOM      7  C   UNL     1       2.669   3.412  18.489  0.00  0.00    +0.000 A 
ATOM      8 CL   UNL     1       1.765   1.980  18.148  0.00  0.00    +0.000 Cl
ENDROOT
BRANCH   5   9
ATOM      9  C   UNL     1       5.558   5.344  16.843  0.00  0.00    +0.000 C 
ATOM     10  C   UNL     1       6.983   5.254  17.336  0.00  0.00    +0.000 C 
ATOM     11  N   UNL     1       7.695   4.492  16.288  0.00  0.00    +0.000 NA
ATOM     12  C   UNL     1       7.044   4.805  15.005  0.00  0.00    +0.000 C 
ATOM     13  C   UNL     1       5.615   5.012  15.389  0.00  0.00    +0.000 C 
ATOM     14  C   UNL     1       5.156   6.377  15.794  0.00  0.00    +0.000 C 
ATOM     15  H   UNL     1       7.536   3.501  16.471  0.00  0.00    +0.000 HD
ENDBRANCH   5   9
TORSDOF 1
ENDMDL
MODEL 6
REMARK VINA RESULT:      -6.5      1.323      1.341
REMARK  Name = 
REMARK  1 active torsions:
REMARK  status: ('A' for Active; 'I' for Inactive)
REMARK    1  A    between atoms: C_5  and  C_6
REMARK                            x       y       z     vdW  Elec       q    Type
REMARK                         _______ _______ _______ _____ _____    ______ ____
ROOT
ATOM      1 CL   UNL     1       1.612   2.768  21.632  0.00  0.00    +0.000 Cl
ATOM      2  C   UNL     1       2.710   3.423  20.470  0.00  0.00    +0.000 A 
ATOM      3  C   UNL     1       3.614   2.549  19.867  0.00  0.00    +0.000 A 
ATOM      4  C   UNL     1       4.526   3.031  18.927  0.00  0.00    +0.000 A 
ATOM      5  C   UNL     1       4.570   4.390  18.563  0.00  0.00    +0.000 A 
ATOM      6  C   UNL     1       3.643   5.250  19.173  0.00  0.00    +0.000 A 
ATOM      7  C   UNL     1       2.721   4.776  20.118  0.00  0.00    +0.000 A 
ATOM      8 CL   UNL     1       1.622   5.916  20.808  0.00  0.00    +0.000 Cl
ENDROOT
BRANCH   5   9
ATOM      9  C   UNL     1       5.578   4.864  17.545  0.00  0.00    +0.000 C 
ATOM     10  C   UNL     1       7.014   4.999  17.994  0.00  0.00    +0.000 C 
ATOM     11  N   UNL     1       7.794   4.247  16.988  0.00  0.00    +0.000 NA
ATOM     12  C   UNL     1       7.077   4.363  15.707  0.00  0.00    +0.000 C 
ATOM     13  C   UNL     1       5.643   4.418  16.123  0.00  0.00    +0.000 C 
ATOM     14  C   UNL     1       5.021   5.744  16.430  0.00  0.00    +0.000 C 
ATOM     15  H   UNL     1       7.769   3.263  17.257  0.00  0.00    +0.000 HD
ENDBRANCH   5   9
TORSDOF 1
ENDMDL
MODEL 7
REMARK VINA RESULT:      -6.4      1.492      2.113
REMARK  Name = 
REMARK  1 active torsions:
REMARK  status: ('A' for Active; 'I' for Inactive)
REMARK    1  A    between atoms: C_5  and  C_6
REMARK                            x       y       z     vdW  Elec       q    Type
REMARK                         _______ _______ _______ _____ _____    ______ ____
ROOT
ATOM      1 CL   UNL     1       0.967   2.653  18.744  0.00  0.00    +0.000 Cl
ATOM      2  C   UNL     1       2.455   3.484  18.464  0.00  0.00    +0.000 A 
ATOM      3  C   UNL     1       3.080   3.299  17.231  0.00  0.00    +0.000 A 
ATOM      4  C   UNL     1       4.288   3.943  16.960  0.00  0.00    +0.000 A 
ATOM      5  C   UNL     1       4.911   4.781  17.903  0.00  0.00    +0.000 A 
ATOM      6  C   UNL     1       4.259   4.963  19.133  0.00  0.00    +0.000 A 
ATOM      7  C   UNL     1       3.044   4.323  19.415  0.00  0.00    +0.000 A 
ATOM      8 CL   UNL     1       2.322   4.614  20.958  0.00  0.00    +0.000 Cl
ENDROOT
BRANCH   5   9
ATOM      9  C   UNL     1       6.221   5.452  17.565  0.00  0.00    +0.000 C 
ATOM     10  C   UNL     1       6.193   6.562  16.541  0.00  0.00    +0.000 C 
ATOM     11  N   UNL     1       6.894   7.689  17.192  0.00  0.00    +0.000 NA
ATOM     12  C   UNL     1       7.908   7.111  18.089  0.00  0.00    +0.000 C 
ATOM     13  C   UNL     1       7.269   5.841  18.552  0.00  0.00    +0.000 C 
ATOM     14  C   UNL     1       7.467   4.591  17.754  0.00  0.00    +0.000 C 
ATOM     15  H   UNL     1       6.214   8.172  17.780  0.00  0.00    +0.000 HD
ENDBRANCH   5   9
TORSDOF 1
ENDMDL
MODEL 8
REMARK VINA RESULT:      -6.4      3.596      5.198
REMARK  Name = 
REMARK  1 active torsions:
REMARK  status: ('A' for Active; 'I' for Inactive)
REMARK    1  A    between atoms: C_5  and  C_6
REMARK                            x       y       z     vdW  Elec       q    Type
REMARK                         _______ _______ _______ _____ _____    ______ ____
ROOT
ATOM      1 CL   UNL     1       7.067   7.609  17.199  0.00  0.00    +0.000 Cl
ATOM      2  C   UNL     1       6.003   6.346  17.707  0.00  0.00    +0.000 A 
ATOM      3  C   UNL     1       4.804   6.190  17.013  0.00  0.00    +0.000 A 
ATOM      4  C   UNL     1       3.907   5.189  17.389  0.00  0.00    +0.000 A 
ATOM      5  C   UNL     1       4.172   4.321  18.465  0.00  0.00    +0.000 A 
ATOM      6  C   UNL     1       5.390   4.487  19.142  0.00  0.00    +0.000 A 
ATOM      7  C   UNL     1       6.299   5.489  18.771  0.00  0.00    +0.000 A 
ATOM      8 CL   UNL     1       7.771   5.609  19.667  0.00  0.00    +0.000 Cl
ENDROOT
BRANCH   5   9
ATOM      9  C   UNL     1       3.168   3.257  18.838  0.00  0.00    +0.000 C 
ATOM     10  C   UNL     1       2.474   3.388  20.173  0.00  0.00    +0.000 C 
ATOM     11  N   UNL     1       1.033   3.270  19.859  0.00  0.00    +0.000 NA
ATOM     12  C   UNL     1       0.914   2.377  18.695  0.00  0.00    +0.000 C 
ATOM     13  C   UNL     1       2.156   2.665  17.915  0.00  0.00    +0.000 C 
ATOM     14  C   UNL     1       3.400   1.886  18.207  0.00  0.00    +0.000 C 
ATOM     15  H   UNL     1       0.710   4.192  19.565  0.00  0.00    +0.000 HD
ENDBRANCH   5   9
TORSDOF 1
ENDMDL
MODEL 9
REMARK VINA RESULT:      -6.4      3.488      5.333
REMARK  Name = 
REMARK  1 active torsions:
REMARK  status: ('A' for Active; 'I' for Inactive)
REMARK    1  A    between atoms: C_5  and  C_6
REMARK                            x       y       z     vdW  Elec       q    Type
REMARK                         _______ _______ _______ _____ _____    ______ ____
ROOT
ATOM      1 CL   UNL     1       7.491   7.105  17.503  0.00  0.00    +0.000 Cl
ATOM      2  C   UNL     1       6.187   6.029  17.860  0.00  0.00    +0.000 A 
ATOM      3  C   UNL     1       6.223   5.347  19.075  0.00  0.00    +0.000 A 
ATOM      4  C   UNL     1       5.197   4.461  19.407  0.00  0.00    +0.000 A 
ATOM      5  C   UNL     1       4.112   4.224  18.542  0.00  0.00    +0.000 A 
ATOM      6  C   UNL     1       4.090   4.930  17.329  0.00  0.00    +0.000 A 
ATOM      7  C   UNL     1       5.115   5.824  16.987  0.00  0.00    +0.000 A 
ATOM      8 CL   UNL     1       4.992   6.645  15.471  0.00  0.00    +0.000 Cl
ENDROOT
BRANCH   5   9
ATOM      9  C   UNL     1       3.028   3.252  18.942  0.00  0.00    +0.000 C 
ATOM     10  C   UNL     1       2.322   3.496  20.255  0.00  0.00    +0.000 C 
ATOM     11  N   UNL     1       0.883   3.466  19.917  0.00  0.00    +0.000 NA
ATOM     12  C   UNL     1       0.719   2.530  18.793  0.00  0.00    +0.000 C 
ATOM     13  C   UNL     1       1.992   2.692  18.027  0.00  0.00    +0.000 C 
ATOM     14  C   UNL     1       3.171   1.841  18.379  0.00  0.00    +0.000 C 
ATOM     15  H   UNL     1       0.632   4.394  19.575  0.00  0.00    +0.000 HD
ENDBRANCH   5   9
TORSDOF 1
ENDMDL
