MODEL 1
REMARK VINA RESULT:      -7.5      0.000      0.000
REMARK  Name = 
REMARK  4 active torsions:
REMARK  status: ('A' for Active; 'I' for Inactive)
REMARK    1  A    between atoms: C_1  and  C_2
REMARK    2  A    between atoms: C_2  and  C_3
REMARK    3  A    between atoms: C_6  and  N_7
REMARK    4  A    between atoms: C_14  and  C_16
REMARK                            x       y       z     vdW  Elec       q    Type
REMARK                         _______ _______ _______ _____ _____    ______ ____
ROOT
ATOM      1  N   UNL     1       2.980   7.379  18.264  0.00  0.00    +0.000 N 
ATOM      2  C   UNL     1       2.414   7.151  19.498  0.00  0.00    +0.000 C 
ATOM      3  O   UNL     1       2.624   6.151  20.178  0.00  0.00    +0.000 OA
ATOM      4  N   UNL     1       1.616   8.177  19.984  0.00  0.00    +0.000 N 
ATOM      5  C   UNL     1       1.116   8.053  21.362  0.00  0.00    +0.000 C 
ATOM      6  C   UNL     1       1.247   9.385  22.110  0.00  0.00    +0.000 C 
ATOM      7  N   UNL     1       0.626  10.477  21.351  0.00  0.00    +0.000 N 
ATOM      8  C   UNL     1      -0.309  11.288  21.979  0.00  0.00    +0.000 C 
ATOM      9  O   UNL     1      -0.581  11.135  23.174  0.00  0.00    +0.000 OA
ATOM     10  C   UNL     1       1.101  10.602  19.966  0.00  0.00    +0.000 C 
ATOM     11  C   UNL     1       0.989   9.262  19.216  0.00  0.00    +0.000 C 
ATOM     12  H   UNL     1       3.033   8.338  17.974  0.00  0.00    +0.000 HD
ENDROOT
BRANCH   1  16
ATOM     13  C   UNL     1       5.406   4.665  16.103  0.00  0.00    +0.000 A 
ATOM     14  C   UNL     1       5.806   5.997  16.235  0.00  0.00    +0.000 A 
ATOM     15  C   UNL     1       5.038   6.899  16.975  0.00  0.00    +0.000 A 
ATOM     16  C   UNL     1       3.851   6.492  17.587  0.00  0.00    +0.000 A 
ATOM     17  C   UNL     1       3.487   5.143  17.514  0.00  0.00    +0.000 A 
ATOM     18  C   UNL     1       4.256   4.237  16.775  0.00  0.00    +0.000 A 
BRANCH  13  20
ATOM     19  C   UNL     1       5.973   3.926  13.769  0.00  0.00    +0.000 C 
ATOM     20  C   UNL     1       6.208   3.712  15.254  0.00  0.00    +0.000 C 
ENDBRANCH  13  20
ENDBRANCH   1  16
BRANCH   8  21
ATOM     21  C   UNL     1      -0.964  12.419  21.156  0.00  0.00    +0.000 C 
ATOM     22  C   UNL     1      -1.696  13.419  22.045  0.00  0.00    +0.000 C 
ATOM     23  C   UNL     1      -2.813  13.919  21.170  0.00  0.00    +0.000 C 
ATOM     24  C   UNL     1      -3.114  12.731  20.289  0.00  0.00    +0.000 C 
ATOM     25  O   UNL     1      -1.922  11.943  20.200  0.00  0.00    +0.000 OA
ENDBRANCH   8  21
TORSDOF 3
ENDMDL
MODEL 2
REMARK VINA RESULT:      -7.2      1.785      2.599
REMARK  Name = 
REMARK  4 active torsions:
REMARK  status: ('A' for Active; 'I' for Inactive)
REMARK    1  A    between atoms: C_1  and  C_2
REMARK    2  A    between atoms: C_2  and  C_3
REMARK    3  A    between atoms: C_6  and  N_7
REMARK    4  A    between atoms: C_14  and  C_16
REMARK                            x       y       z     vdW  Elec       q    Type
REMARK                         _______ _______ _______ _____ _____    ______ ____
ROOT
ATOM      1  N   UNL     1       2.150   7.845  19.003  0.00  0.00    +0.000 N 
ATOM      2  C   UNL     1       1.814   9.032  18.390  0.00  0.00    +0.000 C 
ATOM      3  O   UNL     1       2.098   9.312  17.230  0.00  0.00    +0.000 OA
ATOM      4  N   UNL     1       1.052   9.900  19.158  0.00  0.00    +0.000 N 
ATOM      5  C   UNL     1       0.533  11.110  18.500  0.00  0.00    +0.000 C 
ATOM      6  C   UNL     1      -0.930  11.355  18.887  0.00  0.00    +0.000 C 
ATOM      7  N   UNL     1      -1.094  11.358  20.346  0.00  0.00    +0.000 N 
ATOM      8  C   UNL     1      -1.730  12.434  20.949  0.00  0.00    +0.000 C 
ATOM      9  O   UNL     1      -2.202  13.354  20.275  0.00  0.00    +0.000 OA
ATOM     10  C   UNL     1      -0.564  10.165  21.020  0.00  0.00    +0.000 C 
ATOM     11  C   UNL     1       0.900   9.904  20.620  0.00  0.00    +0.000 C 
ATOM     12  H   UNL     1       1.582   7.577  19.786  0.00  0.00    +0.000 HD
ENDROOT
BRANCH   1  16
ATOM     13  C   UNL     1       4.187   4.668  17.084  0.00  0.00    +0.000 A 
ATOM     14  C   UNL     1       4.772   5.936  17.133  0.00  0.00    +0.000 A 
ATOM     15  C   UNL     1       4.133   6.988  17.794  0.00  0.00    +0.000 A 
ATOM     16  C   UNL     1       2.892   6.798  18.406  0.00  0.00    +0.000 A 
ATOM     17  C   UNL     1       2.339   5.512  18.418  0.00  0.00    +0.000 A 
ATOM     18  C   UNL     1       2.979   4.456  17.758  0.00  0.00    +0.000 A 
BRANCH  13  20
ATOM     19  C   UNL     1       5.937   4.064  15.385  0.00  0.00    +0.000 C 
ATOM     20  C   UNL     1       4.854   3.554  16.319  0.00  0.00    +0.000 C 
ENDBRANCH  13  20
ENDBRANCH   1  16
BRANCH   8  21
ATOM     21  C   UNL     1      -1.876  12.426  22.487  0.00  0.00    +0.000 C 
ATOM     22  C   UNL     1      -3.337  12.465  22.922  0.00  0.00    +0.000 C 
ATOM     23  C   UNL     1      -3.295  13.186  24.241  0.00  0.00    +0.000 C 
ATOM     24  C   UNL     1      -2.119  14.120  24.083  0.00  0.00    +0.000 C 
ATOM     25  O   UNL     1      -1.229  13.537  23.124  0.00  0.00    +0.000 OA
ENDBRANCH   8  21
TORSDOF 3
ENDMDL
MODEL 3
REMARK VINA RESULT:      -7.1      1.851      2.860
REMARK  Name = 
REMARK  4 active torsions:
REMARK  status: ('A' for Active; 'I' for Inactive)
REMARK    1  A    between atoms: C_1  and  C_2
REMARK    2  A    between atoms: C_2  and  C_3
REMARK    3  A    between atoms: C_6  and  N_7
REMARK    4  A    between atoms: C_14  and  C_16
REMARK                            x       y       z     vdW  Elec       q    Type
REMARK                         _______ _______ _______ _____ _____    ______ ____
ROOT
ATOM      1  N   UNL     1       1.975   7.994  18.923  0.00  0.00    +0.000 N 
ATOM      2  C   UNL     1       1.761   9.247  18.392  0.00  0.00    +0.000 C 
ATOM      3  O   UNL     1       2.121   9.590  17.270  0.00  0.00    +0.000 OA
ATOM      4  N   UNL     1       1.031  10.114  19.193  0.00  0.00    +0.000 N 
ATOM      5  C   UNL     1       0.639  11.407  18.611  0.00  0.00    +0.000 C 
ATOM      6  C   UNL     1      -0.818  11.739  18.954  0.00  0.00    +0.000 C 
ATOM      7  N   UNL     1      -1.051  11.646  20.401  0.00  0.00    +0.000 N 
ATOM      8  C   UNL     1      -1.631  12.720  21.060  0.00  0.00    +0.000 C 
ATOM      9  O   UNL     1      -1.998  13.723  20.440  0.00  0.00    +0.000 OA
ATOM     10  C   UNL     1      -0.647  10.367  21.001  0.00  0.00    +0.000 C 
ATOM     11  C   UNL     1       0.810  10.020  20.644  0.00  0.00    +0.000 C 
ATOM     12  H   UNL     1       1.352   7.715  19.658  0.00  0.00    +0.000 HD
ENDROOT
BRANCH   1  16
ATOM     13  C   UNL     1       4.217   4.886  17.125  0.00  0.00    +0.000 A 
ATOM     14  C   UNL     1       2.967   4.605  17.683  0.00  0.00    +0.000 A 
ATOM     15  C   UNL     1       2.196   5.624  18.248  0.00  0.00    +0.000 A 
ATOM     16  C   UNL     1       2.663   6.939  18.278  0.00  0.00    +0.000 A 
ATOM     17  C   UNL     1       3.882   7.233  17.657  0.00  0.00    +0.000 A 
ATOM     18  C   UNL     1       4.656   6.215  17.089  0.00  0.00    +0.000 A 
BRANCH  13  20
ATOM     19  C   UNL     1       5.747   4.161  15.269  0.00  0.00    +0.000 C 
ATOM     20  C   UNL     1       5.069   3.774  16.571  0.00  0.00    +0.000 C 
ENDBRANCH  13  20
ENDBRANCH   1  16
BRANCH   8  21
ATOM     21  C   UNL     1      -1.850  12.609  22.585  0.00  0.00    +0.000 C 
ATOM     22  C   UNL     1      -3.323  12.427  22.938  0.00  0.00    +0.000 C 
ATOM     23  C   UNL     1      -3.445  13.074  24.290  0.00  0.00    +0.000 C 
ATOM     24  C   UNL     1      -2.402  14.164  24.243  0.00  0.00    +0.000 C 
ATOM     25  O   UNL     1      -1.395  13.760  23.309  0.00  0.00    +0.000 OA
ENDBRANCH   8  21
TORSDOF 3
ENDMDL
MODEL 4
REMARK VINA RESULT:      -7.1      0.675      1.242
REMARK  Name = 
REMARK  4 active torsions:
REMARK  status: ('A' for Active; 'I' for Inactive)
REMARK    1  A    between atoms: C_1  and  C_2
REMARK    2  A    between atoms: C_2  and  C_3
REMARK    3  A    between atoms: C_6  and  N_7
REMARK    4  A    between atoms: C_14  and  C_16
REMARK                            x       y       z     vdW  Elec       q    Type
REMARK                         _______ _______ _______ _____ _____    ______ ____
ROOT
ATOM      1  N   UNL     1       2.746   7.383  18.306  0.00  0.00    +0.000 N 
ATOM      2  C   UNL     1       2.206   7.141  19.549  0.00  0.00    +0.000 C 
ATOM      3  O   UNL     1       2.405   6.120  20.200  0.00  0.00    +0.000 OA
ATOM      4  N   UNL     1       1.451   8.177  20.080  0.00  0.00    +0.000 N 
ATOM      5  C   UNL     1       0.984   8.035  21.468  0.00  0.00    +0.000 C 
ATOM      6  C   UNL     1       1.172   9.344  22.242  0.00  0.00    +0.000 C 
ATOM      7  N   UNL     1       0.563  10.471  21.526  0.00  0.00    +0.000 N 
ATOM      8  C   UNL     1      -0.331  11.293  22.198  0.00  0.00    +0.000 C 
ATOM      9  O   UNL     1      -0.577  11.120  23.395  0.00  0.00    +0.000 OA
ATOM     10  C   UNL     1       1.005  10.616  20.132  0.00  0.00    +0.000 C 
ATOM     11  C   UNL     1       0.835   9.298  19.354  0.00  0.00    +0.000 C 
ATOM     12  H   UNL     1       2.819   8.347  18.037  0.00  0.00    +0.000 HD
ENDROOT
BRANCH   1  16
ATOM     13  C   UNL     1       5.402   4.794  16.265  0.00  0.00    +0.000 A 
ATOM     14  C   UNL     1       4.295   4.264  16.933  0.00  0.00    +0.000 A 
ATOM     15  C   UNL     1       3.387   5.105  17.581  0.00  0.00    +0.000 A 
ATOM     16  C   UNL     1       3.573   6.489  17.585  0.00  0.00    +0.000 A 
ATOM     17  C   UNL     1       4.641   7.024  16.858  0.00  0.00    +0.000 A 
ATOM     18  C   UNL     1       5.551   6.184  16.206  0.00  0.00    +0.000 A 
BRANCH  13  20
ATOM     19  C   UNL     1       6.312   3.892  14.104  0.00  0.00    +0.000 C 
ATOM     20  C   UNL     1       6.409   3.878  15.619  0.00  0.00    +0.000 C 
ENDBRANCH  13  20
ENDBRANCH   1  16
BRANCH   8  21
ATOM     21  C   UNL     1      -0.975  12.462  21.419  0.00  0.00    +0.000 C 
ATOM     22  C   UNL     1      -0.297  13.793  21.725  0.00  0.00    +0.000 C 
ATOM     23  C   UNL     1      -1.402  14.799  21.560  0.00  0.00    +0.000 C 
ATOM     24  C   UNL     1      -2.635  14.021  21.954  0.00  0.00    +0.000 C 
ATOM     25  O   UNL     1      -2.369  12.636  21.710  0.00  0.00    +0.000 OA
ENDBRANCH   8  21
TORSDOF 3
ENDMDL
MODEL 5
REMARK VINA RESULT:      -7.0      2.562      3.553
REMARK  Name = 
REMARK  4 active torsions:
REMARK  status: ('A' for Active; 'I' for Inactive)
REMARK    1  A    between atoms: C_1  and  C_2
REMARK    2  A    between atoms: C_2  and  C_3
REMARK    3  A    between atoms: C_6  and  N_7
REMARK    4  A    between atoms: C_14  and  C_16
REMARK                            x       y       z     vdW  Elec       q    Type
REMARK                         _______ _______ _______ _____ _____    ______ ____
ROOT
ATOM      1  N   UNL     1       1.664   7.254  20.667  0.00  0.00    +0.000 N 
ATOM      2  C   UNL     1       1.584   8.339  19.823  0.00  0.00    +0.000 C 
ATOM      3  O   UNL     1       1.912   8.317  18.641  0.00  0.00    +0.000 OA
ATOM      4  N   UNL     1       1.029   9.483  20.378  0.00  0.00    +0.000 N 
ATOM      5  C   UNL     1       0.775  10.619  19.479  0.00  0.00    +0.000 C 
ATOM      6  C   UNL     1      -0.599  11.238  19.759  0.00  0.00    +0.000 C 
ATOM      7  N   UNL     1      -0.748  11.565  21.182  0.00  0.00    +0.000 N 
ATOM      8  C   UNL     1      -1.136  12.848  21.541  0.00  0.00    +0.000 C 
ATOM      9  O   UNL     1      -1.407  13.694  20.683  0.00  0.00    +0.000 OA
ATOM     10  C   UNL     1      -0.479  10.446  22.095  0.00  0.00    +0.000 C 
ATOM     11  C   UNL     1       0.893   9.809  21.806  0.00  0.00    +0.000 C 
ATOM     12  H   UNL     1       1.058   7.272  21.468  0.00  0.00    +0.000 HD
ENDROOT
BRANCH   1  16
ATOM     13  C   UNL     1       3.343   3.481  19.737  0.00  0.00    +0.000 A 
ATOM     14  C   UNL     1       2.056   3.551  20.276  0.00  0.00    +0.000 A 
ATOM     15  C   UNL     1       1.470   4.789  20.556  0.00  0.00    +0.000 A 
ATOM     16  C   UNL     1       2.162   5.977  20.314  0.00  0.00    +0.000 A 
ATOM     17  C   UNL     1       3.422   5.909  19.709  0.00  0.00    +0.000 A 
ATOM     18  C   UNL     1       4.011   4.671  19.426  0.00  0.00    +0.000 A 
BRANCH  13  20
ATOM     19  C   UNL     1       3.580   1.536  18.164  0.00  0.00    +0.000 C 
ATOM     20  C   UNL     1       3.992   2.142  19.494  0.00  0.00    +0.000 C 
ENDBRANCH  13  20
ENDBRANCH   1  16
BRANCH   8  21
ATOM     21  C   UNL     1      -1.268  13.177  23.045  0.00  0.00    +0.000 C 
ATOM     22  C   UNL     1      -2.712  13.466  23.440  0.00  0.00    +0.000 C 
ATOM     23  C   UNL     1      -2.579  14.437  24.581  0.00  0.00    +0.000 C 
ATOM     24  C   UNL     1      -1.308  15.182  24.249  0.00  0.00    +0.000 C 
ATOM     25  O   UNL     1      -0.497  14.318  23.446  0.00  0.00    +0.000 OA
ENDBRANCH   8  21
TORSDOF 3
ENDMDL
MODEL 6
REMARK VINA RESULT:      -7.0      2.490      3.377
REMARK  Name = 
REMARK  4 active torsions:
REMARK  status: ('A' for Active; 'I' for Inactive)
REMARK    1  A    between atoms: C_1  and  C_2
REMARK    2  A    between atoms: C_2  and  C_3
REMARK    3  A    between atoms: C_6  and  N_7
REMARK    4  A    between atoms: C_14  and  C_16
REMARK                            x       y       z     vdW  Elec       q    Type
REMARK                         _______ _______ _______ _____ _____    ______ ____
ROOT
ATOM      1  N   UNL     1       1.723   7.144  20.756  0.00  0.00    +0.000 N 
ATOM      2  C   UNL     1       1.631   8.225  19.908  0.00  0.00    +0.000 C 
ATOM      3  O   UNL     1       1.977   8.208  18.730  0.00  0.00    +0.000 OA
ATOM      4  N   UNL     1       1.041   9.358  20.451  0.00  0.00    +0.000 N 
ATOM      5  C   UNL     1       0.774  10.485  19.544  0.00  0.00    +0.000 C 
ATOM      6  C   UNL     1      -0.618  11.072  19.801  0.00  0.00    +0.000 C 
ATOM      7  N   UNL     1      -0.797  11.400  21.221  0.00  0.00    +0.000 N 
ATOM      8  C   UNL     1      -1.220  12.674  21.570  0.00  0.00    +0.000 C 
ATOM      9  O   UNL     1      -1.497  13.511  20.706  0.00  0.00    +0.000 OA
ATOM     10  C   UNL     1      -0.516  10.289  22.142  0.00  0.00    +0.000 C 
ATOM     11  C   UNL     1       0.875   9.684  21.875  0.00  0.00    +0.000 C 
ATOM     12  H   UNL     1       1.105   7.151  21.547  0.00  0.00    +0.000 HD
ENDROOT
BRANCH   1  16
ATOM     13  C   UNL     1       3.129   3.321  19.603  0.00  0.00    +0.000 A 
ATOM     14  C   UNL     1       3.940   4.443  19.412  0.00  0.00    +0.000 A 
ATOM     15  C   UNL     1       3.509   5.708  19.820  0.00  0.00    +0.000 A 
ATOM     16  C   UNL     1       2.257   5.879  20.414  0.00  0.00    +0.000 A 
ATOM     17  C   UNL     1       1.475   4.747  20.669  0.00  0.00    +0.000 A 
ATOM     18  C   UNL     1       1.905   3.478  20.263  0.00  0.00    +0.000 A 
BRANCH  13  20
ATOM     19  C   UNL     1       3.458   1.842  17.599  0.00  0.00    +0.000 C 
ATOM     20  C   UNL     1       3.575   1.970  19.107  0.00  0.00    +0.000 C 
ENDBRANCH  13  20
ENDBRANCH   1  16
BRANCH   8  21
ATOM     21  C   UNL     1      -1.383  13.003  23.071  0.00  0.00    +0.000 C 
ATOM     22  C   UNL     1      -2.825  13.348  23.426  0.00  0.00    +0.000 C 
ATOM     23  C   UNL     1      -2.687  14.309  24.574  0.00  0.00    +0.000 C 
ATOM     24  C   UNL     1      -1.379  15.005  24.282  0.00  0.00    +0.000 C 
ATOM     25  O   UNL     1      -0.580  14.112  23.499  0.00  0.00    +0.000 OA
ENDBRANCH   8  21
TORSDOF 3
ENDMDL
MODEL 7
REMARK VINA RESULT:      -7.0      2.082      3.264
REMARK  Name = 
REMARK  4 active torsions:
REMARK  status: ('A' for Active; 'I' for Inactive)
REMARK    1  A    between atoms: C_1  and  C_2
REMARK    2  A    between atoms: C_2  and  C_3
REMARK    3  A    between atoms: C_6  and  N_7
REMARK    4  A    between atoms: C_14  and  C_16
REMARK                            x       y       z     vdW  Elec       q    Type
REMARK                         _______ _______ _______ _____ _____    ______ ____
ROOT
ATOM      1  N   UNL     1       1.779   8.166  19.783  0.00  0.00    +0.000 N 
ATOM      2  C   UNL     1       1.279   9.219  19.050  0.00  0.00    +0.000 C 
ATOM      3  O   UNL     1       1.286   9.269  17.824  0.00  0.00    +0.000 OA
ATOM      4  N   UNL     1       0.683  10.229  19.792  0.00  0.00    +0.000 N 
ATOM      5  C   UNL     1      -0.005  11.298  19.052  0.00  0.00    +0.000 C 
ATOM      6  C   UNL     1      -1.350  11.633  19.707  0.00  0.00    +0.000 C 
ATOM      7  N   UNL     1      -1.182  11.917  21.137  0.00  0.00    +0.000 N 
ATOM      8  C   UNL     1      -1.698  13.097  21.655  0.00  0.00    +0.000 C 
ATOM      9  O   UNL     1      -2.336  13.878  20.943  0.00  0.00    +0.000 OA
ATOM     10  C   UNL     1      -0.480  10.867  21.887  0.00  0.00    +0.000 C 
ATOM     11  C   UNL     1       0.864  10.513  21.223  0.00  0.00    +0.000 C 
ATOM     12  H   UNL     1       1.410   8.060  20.711  0.00  0.00    +0.000 HD
ENDROOT
BRANCH   1  16
ATOM     13  C   UNL     1       3.422   4.625  18.145  0.00  0.00    +0.000 A 
ATOM     14  C   UNL     1       3.736   5.862  17.576  0.00  0.00    +0.000 A 
ATOM     15  C   UNL     1       3.233   7.044  18.124  0.00  0.00    +0.000 A 
ATOM     16  C   UNL     1       2.398   7.014  19.243  0.00  0.00    +0.000 A 
ATOM     17  C   UNL     1       2.141   5.782  19.856  0.00  0.00    +0.000 A 
ATOM     18  C   UNL     1       2.645   4.596  19.310  0.00  0.00    +0.000 A 
BRANCH  13  20
ATOM     19  C   UNL     1       3.032   2.162  17.841  0.00  0.00    +0.000 C 
ATOM     20  C   UNL     1       3.919   3.351  17.514  0.00  0.00    +0.000 C 
ENDBRANCH  13  20
ENDBRANCH   1  16
BRANCH   8  21
ATOM     21  C   UNL     1      -1.493  13.384  23.159  0.00  0.00    +0.000 C 
ATOM     22  C   UNL     1      -2.791  13.803  23.841  0.00  0.00    +0.000 C 
ATOM     23  C   UNL     1      -2.332  14.715  24.946  0.00  0.00    +0.000 C 
ATOM     24  C   UNL     1      -1.082  15.340  24.375  0.00  0.00    +0.000 C 
ATOM     25  O   UNL     1      -0.542  14.428  23.413  0.00  0.00    +0.000 OA
ENDBRANCH   8  21
TORSDOF 3
ENDMDL
MODEL 8
REMARK VINA RESULT:      -6.9      2.838     10.052
REMARK  Name = 
REMARK  4 active torsions:
REMARK  status: ('A' for Active; 'I' for Inactive)
REMARK    1  A    between atoms: C_1  and  C_2
REMARK    2  A    between atoms: C_2  and  C_3
REMARK    3  A    between atoms: C_6  and  N_7
REMARK    4  A    between atoms: C_14  and  C_16
REMARK                            x       y       z     vdW  Elec       q    Type
REMARK                         _______ _______ _______ _____ _____    ______ ____
ROOT
ATOM      1  N   UNL     1      -1.019  11.359  22.408  0.00  0.00    +0.000 N 
ATOM      2  C   UNL     1      -0.832  11.141  21.061  0.00  0.00    +0.000 C 
ATOM      3  O   UNL     1      -1.133  11.946  20.185  0.00  0.00    +0.000 OA
ATOM      4  N   UNL     1      -0.200   9.950  20.735  0.00  0.00    +0.000 N 
ATOM      5  C   UNL     1       0.166   9.740  19.326  0.00  0.00    +0.000 C 
ATOM      6  C   UNL     1       1.579   9.156  19.212  0.00  0.00    +0.000 C 
ATOM      7  N   UNL     1       1.720   7.955  20.045  0.00  0.00    +0.000 N 
ATOM      8  C   UNL     1       2.202   6.789  19.470  0.00  0.00    +0.000 C 
ATOM      9  O   UNL     1       2.560   6.763  18.288  0.00  0.00    +0.000 OA
ATOM     10  C   UNL     1       1.340   8.144  21.452  0.00  0.00    +0.000 C 
ATOM     11  C   UNL     1      -0.071   8.747  21.572  0.00  0.00    +0.000 C 
ATOM     12  H   UNL     1      -0.433  10.829  23.026  0.00  0.00    +0.000 HD
ENDROOT
BRANCH   1  16
ATOM     13  C   UNL     1      -2.839  14.684  24.293  0.00  0.00    +0.000 A 
ATOM     14  C   UNL     1      -1.531  14.791  23.813  0.00  0.00    +0.000 A 
ATOM     15  C   UNL     1      -0.926  13.717  23.155  0.00  0.00    +0.000 A 
ATOM     16  C   UNL     1      -1.610  12.513  22.975  0.00  0.00    +0.000 A 
ATOM     17  C   UNL     1      -2.943  12.429  23.394  0.00  0.00    +0.000 A 
ATOM     18  C   UNL     1      -3.552  13.504  24.051  0.00  0.00    +0.000 A 
BRANCH  13  20
ATOM     19  C   UNL     1      -4.806  16.237  24.475  0.00  0.00    +0.000 C 
ATOM     20  C   UNL     1      -3.463  15.825  25.054  0.00  0.00    +0.000 C 
ENDBRANCH  13  20
ENDBRANCH   1  16
BRANCH   8  21
ATOM     21  C   UNL     1       2.325   5.532  20.360  0.00  0.00    +0.000 C 
ATOM     22  C   UNL     1       3.267   4.495  19.757  0.00  0.00    +0.000 C 
ATOM     23  C   UNL     1       2.715   3.186  20.251  0.00  0.00    +0.000 C 
ATOM     24  C   UNL     1       1.235   3.462  20.369  0.00  0.00    +0.000 C 
ATOM     25  O   UNL     1       1.072   4.868  20.580  0.00  0.00    +0.000 OA
ENDBRANCH   8  21
TORSDOF 3
ENDMDL
MODEL 9
REMARK VINA RESULT:      -6.9      0.879      1.136
REMARK  Name = 
REMARK  4 active torsions:
REMARK  status: ('A' for Active; 'I' for Inactive)
REMARK    1  A    between atoms: C_1  and  C_2
REMARK    2  A    between atoms: C_2  and  C_3
REMARK    3  A    between atoms: C_6  and  N_7
REMARK    4  A    between atoms: C_14  and  C_16
REMARK                            x       y       z     vdW  Elec       q    Type
REMARK                         _______ _______ _______ _____ _____    ______ ____
ROOT
ATOM      1  N   UNL     1       2.959   7.313  18.298  0.00  0.00    +0.000 N 
ATOM      2  C   UNL     1       2.370   7.061  19.517  0.00  0.00    +0.000 C 
ATOM      3  O   UNL     1       2.544   6.034  20.167  0.00  0.00    +0.000 OA
ATOM      4  N   UNL     1       1.595   8.092  20.026  0.00  0.00    +0.000 N 
ATOM      5  C   UNL     1       1.074   7.939  21.394  0.00  0.00    +0.000 C 
ATOM      6  C   UNL     1       1.231   9.241  22.186  0.00  0.00    +0.000 C 
ATOM      7  N   UNL     1       0.650  10.374  21.455  0.00  0.00    +0.000 N 
ATOM      8  C   UNL     1      -0.270  11.190  22.099  0.00  0.00    +0.000 C 
ATOM      9  O   UNL     1      -0.562  11.007  23.284  0.00  0.00    +0.000 OA
ATOM     10  C   UNL     1       1.146  10.531  20.081  0.00  0.00    +0.000 C 
ATOM     11  C   UNL     1       1.007   9.219  19.286  0.00  0.00    +0.000 C 
ATOM     12  H   UNL     1       3.042   8.279  18.040  0.00  0.00    +0.000 HD
ENDROOT
BRANCH   1  16
ATOM     13  C   UNL     1       5.333   4.589  16.092  0.00  0.00    +0.000 A 
ATOM     14  C   UNL     1       5.720   5.928  16.182  0.00  0.00    +0.000 A 
ATOM     15  C   UNL     1       4.969   6.835  16.936  0.00  0.00    +0.000 A 
ATOM     16  C   UNL     1       3.814   6.424  17.603  0.00  0.00    +0.000 A 
ATOM     17  C   UNL     1       3.466   5.069  17.571  0.00  0.00    +0.000 A 
ATOM     18  C   UNL     1       4.217   4.159  16.819  0.00  0.00    +0.000 A 
BRANCH  13  20
ATOM     19  C   UNL     1       6.054   4.001  13.758  0.00  0.00    +0.000 C 
ATOM     20  C   UNL     1       6.113   3.630  15.230  0.00  0.00    +0.000 C 
ENDBRANCH  13  20
ENDBRANCH   1  16
BRANCH   8  21
ATOM     21  C   UNL     1      -0.883  12.365  21.305  0.00  0.00    +0.000 C 
ATOM     22  C   UNL     1      -1.548  11.897  20.015  0.00  0.00    +0.000 C 
ATOM     23  C   UNL     1      -1.389  13.070  19.088  0.00  0.00    +0.000 C 
ATOM     24  C   UNL     1      -0.097  13.699  19.552  0.00  0.00    +0.000 C 
ATOM     25  O   UNL     1       0.079  13.361  20.932  0.00  0.00    +0.000 OA
ENDBRANCH   8  21
TORSDOF 3
ENDMDL
