MODEL 1
REMARK VINA RESULT:      -8.8      0.000      0.000
REMARK  Name = 
REMARK  5 active torsions:
REMARK  status: ('A' for Active; 'I' for Inactive)
REMARK    1  A    between atoms: C_1  and  C_2
REMARK    2  A    between atoms: C_5  and  C_6
REMARK    3  A    between atoms: C_11  and  C_13
REMARK    4  A    between atoms: C_14  and  C_15
REMARK    5  A    between atoms: C_18  and  C_19
REMARK                            x       y       z     vdW  Elec       q    Type
REMARK                         _______ _______ _______ _____ _____    ______ ____
ROOT
ATOM      1  C   UNL     1      -0.809  11.351  22.539  0.00  0.00    +0.000 A 
ATOM      2  N   UNL     1      -0.102  10.460  23.211  0.00  0.00    +0.000 NA
ATOM      3  N   UNL     1       0.569   9.580  22.371  0.00  0.00    +0.000 NA
ATOM      4  C   UNL     1       0.417   9.898  21.103  0.00  0.00    +0.000 A 
ATOM      5  N   UNL     1       0.992   9.191  20.069  0.00  0.00    +0.000 N 
ATOM      6  C   UNL     1       1.129   9.657  18.781  0.00  0.00    +0.000 C 
ATOM      7  O   UNL     1       0.772  10.743  18.346  0.00  0.00    +0.000 OA
ATOM      8  S   UNL     1      -0.624  11.212  20.835  0.00  0.00    +0.000 S 
ATOM      9  H   UNL     1       1.432   8.333  20.363  0.00  0.00    +0.000 HD
ENDROOT
BRANCH   1  14
ATOM     10  C   UNL     1      -4.140  15.591  24.675  0.00  0.00    +0.000 C 
ATOM     11  C   UNL     1      -3.263  14.495  24.145  0.00  0.00    +0.000 A 
ATOM     12  C   UNL     1      -1.916  14.723  23.843  0.00  0.00    +0.000 A 
ATOM     13  C   UNL     1      -1.115  13.689  23.339  0.00  0.00    +0.000 A 
ATOM     14  C   UNL     1      -1.648  12.413  23.113  0.00  0.00    +0.000 A 
ATOM     15  C   UNL     1      -2.997  12.193  23.438  0.00  0.00    +0.000 A 
ATOM     16  C   UNL     1      -3.795  13.221  23.945  0.00  0.00    +0.000 A 
ENDBRANCH   1  14
BRANCH   6  17
ATOM     17  C   UNL     1       1.830   8.684  17.889  0.00  0.00    +0.000 C 
ATOM     18  C   UNL     1       2.718   7.829  18.424  0.00  0.00    +0.000 C 
BRANCH  18  19
ATOM     19  C   UNL     1       3.509   6.839  17.674  0.00  0.00    +0.000 A 
ATOM     20  C   UNL     1       4.545   7.288  16.842  0.00  0.00    +0.000 A 
ATOM     21  C   UNL     1       5.327   6.383  16.113  0.00  0.00    +0.000 A 
ATOM     22  C   UNL     1       5.097   5.004  16.210  0.00  0.00    +0.000 A 
ATOM     23  C   UNL     1       4.082   4.554  17.066  0.00  0.00    +0.000 A 
ATOM     24  C   UNL     1       3.303   5.460  17.794  0.00  0.00    +0.000 A 
BRANCH  22  25
ATOM     25  C   UNL     1       5.917   4.015  15.417  0.00  0.00    +0.000 C 
ATOM     26  F   UNL     1       5.779   2.727  15.840  0.00  0.00    +0.000 F 
ATOM     27  F   UNL     1       5.592   4.009  14.094  0.00  0.00    +0.000 F 
ATOM     28  F   UNL     1       7.251   4.283  15.472  0.00  0.00    +0.000 F 
ENDBRANCH  22  25
ENDBRANCH  18  19
ENDBRANCH   6  17
TORSDOF 4
ENDMDL
MODEL 2
REMARK VINA RESULT:      -8.6      0.191      1.504
REMARK  Name = 
REMARK  5 active torsions:
REMARK  status: ('A' for Active; 'I' for Inactive)
REMARK    1  A    between atoms: C_1  and  C_2
REMARK    2  A    between atoms: C_5  and  C_6
REMARK    3  A    between atoms: C_11  and  C_13
REMARK    4  A    between atoms: C_14  and  C_15
REMARK    5  A    between atoms: C_18  and  C_19
REMARK                            x       y       z     vdW  Elec       q    Type
REMARK                         _______ _______ _______ _____ _____    ______ ____
ROOT
ATOM      1  C   UNL     1      -0.740  11.296  22.450  0.00  0.00    +0.000 A 
ATOM      2  N   UNL     1      -0.118  10.330  23.102  0.00  0.00    +0.000 NA
ATOM      3  N   UNL     1       0.555   9.466  22.247  0.00  0.00    +0.000 NA
ATOM      4  C   UNL     1       0.493   9.867  20.995  0.00  0.00    +0.000 A 
ATOM      5  N   UNL     1       1.090   9.193  19.952  0.00  0.00    +0.000 N 
ATOM      6  C   UNL     1       1.324   9.726  18.704  0.00  0.00    +0.000 C 
ATOM      7  O   UNL     1       1.048  10.853  18.319  0.00  0.00    +0.000 OA
ATOM      8  S   UNL     1      -0.464  11.248  20.752  0.00  0.00    +0.000 S 
ATOM      9  H   UNL     1       1.469   8.295  20.215  0.00  0.00    +0.000 HD
ENDROOT
BRANCH   1  14
ATOM     10  C   UNL     1      -3.932  15.462  24.917  0.00  0.00    +0.000 C 
ATOM     11  C   UNL     1      -3.122  14.384  24.257  0.00  0.00    +0.000 A 
ATOM     12  C   UNL     1      -3.659  13.115  24.019  0.00  0.00    +0.000 A 
ATOM     13  C   UNL     1      -2.884  12.117  23.410  0.00  0.00    +0.000 A 
ATOM     14  C   UNL     1      -1.555  12.365  23.042  0.00  0.00    +0.000 A 
ATOM     15  C   UNL     1      -1.035  13.649  23.271  0.00  0.00    +0.000 A 
ATOM     16  C   UNL     1      -1.807  14.646  23.873  0.00  0.00    +0.000 A 
ENDBRANCH   1  14
BRANCH   6  17
ATOM     17  C   UNL     1       2.026   8.771  17.793  0.00  0.00    +0.000 C 
ATOM     18  C   UNL     1       2.855   7.854  18.320  0.00  0.00    +0.000 C 
BRANCH  18  19
ATOM     19  C   UNL     1       3.640   6.872  17.554  0.00  0.00    +0.000 A 
ATOM     20  C   UNL     1       3.424   5.504  17.782  0.00  0.00    +0.000 A 
ATOM     21  C   UNL     1       4.144   4.534  17.074  0.00  0.00    +0.000 A 
ATOM     22  C   UNL     1       5.090   4.910  16.111  0.00  0.00    +0.000 A 
ATOM     23  C   UNL     1       5.283   6.276  15.861  0.00  0.00    +0.000 A 
ATOM     24  C   UNL     1       4.562   7.244  16.569  0.00  0.00    +0.000 A 
BRANCH  22  25
ATOM     25  C   UNL     1       5.890   3.878  15.352  0.00  0.00    +0.000 C 
ATOM     26  F   UNL     1       5.558   3.790  14.034  0.00  0.00    +0.000 F 
ATOM     27  F   UNL     1       7.228   4.127  15.384  0.00  0.00    +0.000 F 
ATOM     28  F   UNL     1       5.732   2.624  15.859  0.00  0.00    +0.000 F 
ENDBRANCH  22  25
ENDBRANCH  18  19
ENDBRANCH   6  17
TORSDOF 4
ENDMDL
MODEL 3
REMARK VINA RESULT:      -8.2      0.805      1.448
REMARK  Name = 
REMARK  5 active torsions:
REMARK  status: ('A' for Active; 'I' for Inactive)
REMARK    1  A    between atoms: C_1  and  C_2
REMARK    2  A    between atoms: C_5  and  C_6
REMARK    3  A    between atoms: C_11  and  C_13
REMARK    4  A    between atoms: C_14  and  C_15
REMARK    5  A    between atoms: C_18  and  C_19
REMARK                            x       y       z     vdW  Elec       q    Type
REMARK                         _______ _______ _______ _____ _____    ______ ____
ROOT
ATOM      1  C   UNL     1      -1.466  11.786  22.647  0.00  0.00    +0.000 A 
ATOM      2  N   UNL     1      -0.899  10.824  23.353  0.00  0.00    +0.000 NA
ATOM      3  N   UNL     1      -0.185   9.937  22.557  0.00  0.00    +0.000 NA
ATOM      4  C   UNL     1      -0.164  10.316  21.297  0.00  0.00    +0.000 A 
ATOM      5  N   UNL     1       0.488   9.616  20.305  0.00  0.00    +0.000 N 
ATOM      6  C   UNL     1       0.807  10.123  19.066  0.00  0.00    +0.000 C 
ATOM      7  O   UNL     1       0.570  11.247  18.645  0.00  0.00    +0.000 OA
ATOM      8  S   UNL     1      -1.086  11.704  20.971  0.00  0.00    +0.000 S 
ATOM      9  H   UNL     1       0.838   8.719  20.607  0.00  0.00    +0.000 HD
ENDROOT
BRANCH   1  14
ATOM     10  C   UNL     1      -4.754  16.154  24.582  0.00  0.00    +0.000 C 
ATOM     11  C   UNL     1      -3.893  15.020  24.107  0.00  0.00    +0.000 A 
ATOM     12  C   UNL     1      -2.497  15.097  24.151  0.00  0.00    +0.000 A 
ATOM     13  C   UNL     1      -1.710  14.032  23.693  0.00  0.00    +0.000 A 
ATOM     14  C   UNL     1      -2.303  12.875  23.168  0.00  0.00    +0.000 A 
ATOM     15  C   UNL     1      -3.706  12.804  23.146  0.00  0.00    +0.000 A 
ATOM     16  C   UNL     1      -4.491  13.863  23.607  0.00  0.00    +0.000 A 
ENDBRANCH   1  14
BRANCH   6  17
ATOM     17  C   UNL     1       1.551   9.144  18.217  0.00  0.00    +0.000 C 
ATOM     18  C   UNL     1       2.200   8.127  18.809  0.00  0.00    +0.000 C 
BRANCH  18  19
ATOM     19  C   UNL     1       3.001   7.105  18.114  0.00  0.00    +0.000 A 
ATOM     20  C   UNL     1       2.617   5.759  18.211  0.00  0.00    +0.000 A 
ATOM     21  C   UNL     1       3.346   4.754  17.564  0.00  0.00    +0.000 A 
ATOM     22  C   UNL     1       4.472   5.073  16.794  0.00  0.00    +0.000 A 
ATOM     23  C   UNL     1       4.838   6.421  16.671  0.00  0.00    +0.000 A 
ATOM     24  C   UNL     1       4.107   7.424  17.318  0.00  0.00    +0.000 A 
BRANCH  22  25
ATOM     25  C   UNL     1       5.281   4.001  16.106  0.00  0.00    +0.000 C 
ATOM     26  F   UNL     1       5.177   4.023  14.747  0.00  0.00    +0.000 F 
ATOM     27  F   UNL     1       6.613   4.094  16.379  0.00  0.00    +0.000 F 
ATOM     28  F   UNL     1       4.910   2.746  16.486  0.00  0.00    +0.000 F 
ENDBRANCH  22  25
ENDBRANCH  18  19
ENDBRANCH   6  17
TORSDOF 4
ENDMDL
MODEL 4
REMARK VINA RESULT:      -8.1      0.929      1.091
REMARK  Name = 
REMARK  5 active torsions:
REMARK  status: ('A' for Active; 'I' for Inactive)
REMARK    1  A    between atoms: C_1  and  C_2
REMARK    2  A    between atoms: C_5  and  C_6
REMARK    3  A    between atoms: C_11  and  C_13
REMARK    4  A    between atoms: C_14  and  C_15
REMARK    5  A    between atoms: C_18  and  C_19
REMARK                            x       y       z     vdW  Elec       q    Type
REMARK                         _______ _______ _______ _____ _____    ______ ____
ROOT
ATOM      1  C   UNL     1      -1.407  11.733  22.254  0.00  0.00    +0.000 A 
ATOM      2  N   UNL     1      -0.538  11.134  23.048  0.00  0.00    +0.000 NA
ATOM      3  N   UNL     1       0.362  10.344  22.344  0.00  0.00    +0.000 NA
ATOM      4  C   UNL     1       0.197  10.452  21.043  0.00  0.00    +0.000 A 
ATOM      5  N   UNL     1       0.971   9.781  20.121  0.00  0.00    +0.000 N 
ATOM      6  C   UNL     1       1.051  10.099  18.784  0.00  0.00    +0.000 C 
ATOM      7  O   UNL     1       0.465  11.000  18.202  0.00  0.00    +0.000 OA
ATOM      8  S   UNL     1      -1.116  11.427  20.586  0.00  0.00    +0.000 S 
ATOM      9  H   UNL     1       1.590   9.100  20.534  0.00  0.00    +0.000 HD
ENDROOT
BRANCH   1  14
ATOM     10  C   UNL     1      -5.665  15.347  23.816  0.00  0.00    +0.000 C 
ATOM     11  C   UNL     1      -4.566  14.399  23.436  0.00  0.00    +0.000 A 
ATOM     12  C   UNL     1      -3.345  14.390  24.119  0.00  0.00    +0.000 A 
ATOM     13  C   UNL     1      -2.325  13.504  23.743  0.00  0.00    +0.000 A 
ATOM     14  C   UNL     1      -2.501  12.622  22.668  0.00  0.00    +0.000 A 
ATOM     15  C   UNL     1      -3.738  12.629  22.003  0.00  0.00    +0.000 A 
ATOM     16  C   UNL     1      -4.757  13.508  22.380  0.00  0.00    +0.000 A 
ENDBRANCH   1  14
BRANCH   6  17
ATOM     17  C   UNL     1       2.005   9.220  18.041  0.00  0.00    +0.000 C 
ATOM     18  C   UNL     1       2.223   7.970  18.483  0.00  0.00    +0.000 C 
BRANCH  18  19
ATOM     19  C   UNL     1       3.155   7.002  17.881  0.00  0.00    +0.000 A 
ATOM     20  C   UNL     1       4.246   7.479  17.140  0.00  0.00    +0.000 A 
ATOM     21  C   UNL     1       5.160   6.596  16.553  0.00  0.00    +0.000 A 
ATOM     22  C   UNL     1       5.009   5.211  16.704  0.00  0.00    +0.000 A 
ATOM     23  C   UNL     1       3.936   4.734  17.471  0.00  0.00    +0.000 A 
ATOM     24  C   UNL     1       3.025   5.619  18.057  0.00  0.00    +0.000 A 
BRANCH  22  25
ATOM     25  C   UNL     1       5.973   4.242  16.062  0.00  0.00    +0.000 C 
ATOM     26  F   UNL     1       7.111   4.042  16.785  0.00  0.00    +0.000 F 
ATOM     27  F   UNL     1       5.428   3.008  15.875  0.00  0.00    +0.000 F 
ATOM     28  F   UNL     1       6.384   4.658  14.832  0.00  0.00    +0.000 F 
ENDBRANCH  22  25
ENDBRANCH  18  19
ENDBRANCH   6  17
TORSDOF 4
ENDMDL
MODEL 5
REMARK VINA RESULT:      -8.1      1.296      1.955
REMARK  Name = 
REMARK  5 active torsions:
REMARK  status: ('A' for Active; 'I' for Inactive)
REMARK    1  A    between atoms: C_1  and  C_2
REMARK    2  A    between atoms: C_5  and  C_6
REMARK    3  A    between atoms: C_11  and  C_13
REMARK    4  A    between atoms: C_14  and  C_15
REMARK    5  A    between atoms: C_18  and  C_19
REMARK                            x       y       z     vdW  Elec       q    Type
REMARK                         _______ _______ _______ _____ _____    ______ ____
ROOT
ATOM      1  C   UNL     1      -1.381  11.986  21.755  0.00  0.00    +0.000 A 
ATOM      2  N   UNL     1      -0.197  12.334  22.228  0.00  0.00    +0.000 NA
ATOM      3  N   UNL     1       0.843  11.689  21.572  0.00  0.00    +0.000 NA
ATOM      4  C   UNL     1       0.411  10.952  20.571  0.00  0.00    +0.000 A 
ATOM      5  N   UNL     1       1.243  10.219  19.754  0.00  0.00    +0.000 N 
ATOM      6  C   UNL     1       0.885   9.704  18.528  0.00  0.00    +0.000 C 
ATOM      7  O   UNL     1      -0.201   9.803  17.974  0.00  0.00    +0.000 OA
ATOM      8  S   UNL     1      -1.280  10.906  20.420  0.00  0.00    +0.000 S 
ATOM      9  H   UNL     1       2.201  10.195  20.070  0.00  0.00    +0.000 HD
ENDROOT
BRANCH   1  14
ATOM     10  C   UNL     1      -6.481  14.003  23.640  0.00  0.00    +0.000 C 
ATOM     11  C   UNL     1      -5.166  13.457  23.165  0.00  0.00    +0.000 A 
ATOM     12  C   UNL     1      -4.146  13.129  24.065  0.00  0.00    +0.000 A 
ATOM     13  C   UNL     1      -2.921  12.631  23.601  0.00  0.00    +0.000 A 
ATOM     14  C   UNL     1      -2.686  12.464  22.230  0.00  0.00    +0.000 A 
ATOM     15  C   UNL     1      -3.725  12.780  21.339  0.00  0.00    +0.000 A 
ATOM     16  C   UNL     1      -4.948  13.272  21.799  0.00  0.00    +0.000 A 
ENDBRANCH   1  14
BRANCH   6  17
ATOM     17  C   UNL     1       2.011   8.992  17.852  0.00  0.00    +0.000 C 
ATOM     18  C   UNL     1       2.280   7.720  18.194  0.00  0.00    +0.000 C 
BRANCH  18  19
ATOM     19  C   UNL     1       3.373   6.900  17.645  0.00  0.00    +0.000 A 
ATOM     20  C   UNL     1       3.243   5.503  17.652  0.00  0.00    +0.000 A 
ATOM     21  C   UNL     1       4.255   4.684  17.136  0.00  0.00    +0.000 A 
ATOM     22  C   UNL     1       5.417   5.244  16.590  0.00  0.00    +0.000 A 
ATOM     23  C   UNL     1       5.533   6.641  16.554  0.00  0.00    +0.000 A 
ATOM     24  C   UNL     1       4.520   7.458  17.069  0.00  0.00    +0.000 A 
BRANCH  22  25
ATOM     25  C   UNL     1       6.527   4.376  16.048  0.00  0.00    +0.000 C 
ATOM     26  F   UNL     1       7.147   4.900  14.954  0.00  0.00    +0.000 F 
ATOM     27  F   UNL     1       7.511   4.153  16.963  0.00  0.00    +0.000 F 
ATOM     28  F   UNL     1       6.084   3.145  15.669  0.00  0.00    +0.000 F 
ENDBRANCH  22  25
ENDBRANCH  18  19
ENDBRANCH   6  17
TORSDOF 4
ENDMDL
MODEL 6
REMARK VINA RESULT:      -8.0      6.232     11.636
REMARK  Name = 
REMARK  5 active torsions:
REMARK  status: ('A' for Active; 'I' for Inactive)
REMARK    1  A    between atoms: C_1  and  C_2
REMARK    2  A    between atoms: C_5  and  C_6
REMARK    3  A    between atoms: C_11  and  C_13
REMARK    4  A    between atoms: C_14  and  C_15
REMARK    5  A    between atoms: C_18  and  C_19
REMARK                            x       y       z     vdW  Elec       q    Type
REMARK                         _______ _______ _______ _____ _____    ______ ____
ROOT
ATOM      1  C   UNL     1       3.126   6.642  18.447  0.00  0.00    +0.000 A 
ATOM      2  N   UNL     1       2.844   6.219  19.667  0.00  0.00    +0.000 NA
ATOM      3  N   UNL     1       2.047   7.117  20.364  0.00  0.00    +0.000 NA
ATOM      4  C   UNL     1       1.681   8.135  19.615  0.00  0.00    +0.000 A 
ATOM      5  N   UNL     1       0.877   9.160  20.066  0.00  0.00    +0.000 N 
ATOM      6  C   UNL     1       0.218  10.055  19.254  0.00  0.00    +0.000 C 
ATOM      7  O   UNL     1       0.234  10.096  18.032  0.00  0.00    +0.000 OA
ATOM      8  S   UNL     1       2.357   8.131  18.057  0.00  0.00    +0.000 S 
ATOM      9  H   UNL     1       0.700   9.127  21.058  0.00  0.00    +0.000 HD
ENDROOT
BRANCH   1  14
ATOM     10  C   UNL     1       6.286   3.891  14.438  0.00  0.00    +0.000 C 
ATOM     11  C   UNL     1       5.485   4.592  15.495  0.00  0.00    +0.000 A 
ATOM     12  C   UNL     1       4.732   3.876  16.432  0.00  0.00    +0.000 A 
ATOM     13  C   UNL     1       3.980   4.549  17.406  0.00  0.00    +0.000 A 
ATOM     14  C   UNL     1       3.955   5.949  17.452  0.00  0.00    +0.000 A 
ATOM     15  C   UNL     1       4.730   6.656  16.517  0.00  0.00    +0.000 A 
ATOM     16  C   UNL     1       5.483   5.986  15.549  0.00  0.00    +0.000 A 
ENDBRANCH   1  14
BRANCH   6  17
ATOM     17  C   UNL     1      -0.613  11.028  20.026  0.00  0.00    +0.000 C 
ATOM     18  C   UNL     1      -0.258  11.337  21.285  0.00  0.00    +0.000 C 
BRANCH  18  19
ATOM     19  C   UNL     1      -0.990  12.247  22.181  0.00  0.00    +0.000 A 
ATOM     20  C   UNL     1      -0.416  13.485  22.508  0.00  0.00    +0.000 A 
ATOM     21  C   UNL     1      -1.078  14.385  23.352  0.00  0.00    +0.000 A 
ATOM     22  C   UNL     1      -2.337  14.071  23.881  0.00  0.00    +0.000 A 
ATOM     23  C   UNL     1      -2.925  12.848  23.529  0.00  0.00    +0.000 A 
ATOM     24  C   UNL     1      -2.262  11.951  22.684  0.00  0.00    +0.000 A 
BRANCH  22  25
ATOM     25  C   UNL     1      -3.056  15.020  24.809  0.00  0.00    +0.000 C 
ATOM     26  F   UNL     1      -4.414  14.965  24.705  0.00  0.00    +0.000 F 
ATOM     27  F   UNL     1      -2.774  14.784  26.121  0.00  0.00    +0.000 F 
ATOM     28  F   UNL     1      -2.720  16.321  24.585  0.00  0.00    +0.000 F 
ENDBRANCH  22  25
ENDBRANCH  18  19
ENDBRANCH   6  17
TORSDOF 4
ENDMDL
MODEL 7
REMARK VINA RESULT:      -8.0      1.386      1.790
REMARK  Name = 
REMARK  5 active torsions:
REMARK  status: ('A' for Active; 'I' for Inactive)
REMARK    1  A    between atoms: C_1  and  C_2
REMARK    2  A    between atoms: C_5  and  C_6
REMARK    3  A    between atoms: C_11  and  C_13
REMARK    4  A    between atoms: C_14  and  C_15
REMARK    5  A    between atoms: C_18  and  C_19
REMARK                            x       y       z     vdW  Elec       q    Type
REMARK                         _______ _______ _______ _____ _____    ______ ____
ROOT
ATOM      1  C   UNL     1      -1.034  12.456  21.626  0.00  0.00    +0.000 A 
ATOM      2  N   UNL     1       0.173  12.916  21.902  0.00  0.00    +0.000 NA
ATOM      3  N   UNL     1       1.168  12.222  21.226  0.00  0.00    +0.000 NA
ATOM      4  C   UNL     1       0.668  11.330  20.397  0.00  0.00    +0.000 A 
ATOM      5  N   UNL     1       1.444  10.518  19.598  0.00  0.00    +0.000 N 
ATOM      6  C   UNL     1       0.980   9.815  18.508  0.00  0.00    +0.000 C 
ATOM      7  O   UNL     1      -0.164   9.790  18.078  0.00  0.00    +0.000 OA
ATOM      8  S   UNL     1      -1.023  11.197  20.454  0.00  0.00    +0.000 S 
ATOM      9  H   UNL     1       2.431  10.577  19.799  0.00  0.00    +0.000 HD
ENDROOT
BRANCH   1  14
ATOM     10  C   UNL     1      -6.112  14.337  23.702  0.00  0.00    +0.000 C 
ATOM     11  C   UNL     1      -4.786  13.873  23.175  0.00  0.00    +0.000 A 
ATOM     12  C   UNL     1      -4.122  14.571  22.160  0.00  0.00    +0.000 A 
ATOM     13  C   UNL     1      -2.889  14.116  21.672  0.00  0.00    +0.000 A 
ATOM     14  C   UNL     1      -2.303  12.948  22.179  0.00  0.00    +0.000 A 
ATOM     15  C   UNL     1      -2.972  12.267  23.210  0.00  0.00    +0.000 A 
ATOM     16  C   UNL     1      -4.198  12.722  23.700  0.00  0.00    +0.000 A 
ENDBRANCH   1  14
BRANCH   6  17
ATOM     17  C   UNL     1       2.062   9.055  17.812  0.00  0.00    +0.000 C 
ATOM     18  C   UNL     1       2.329   7.796  18.197  0.00  0.00    +0.000 C 
BRANCH  18  19
ATOM     19  C   UNL     1       3.382   6.935  17.633  0.00  0.00    +0.000 A 
ATOM     20  C   UNL     1       3.255   5.542  17.749  0.00  0.00    +0.000 A 
ATOM     21  C   UNL     1       4.229   4.685  17.225  0.00  0.00    +0.000 A 
ATOM     22  C   UNL     1       5.350   5.200  16.560  0.00  0.00    +0.000 A 
ATOM     23  C   UNL     1       5.461   6.591  16.416  0.00  0.00    +0.000 A 
ATOM     24  C   UNL     1       4.486   7.446  16.941  0.00  0.00    +0.000 A 
BRANCH  22  25
ATOM     25  C   UNL     1       6.420   4.291  16.006  0.00  0.00    +0.000 C 
ATOM     26  F   UNL     1       7.468   4.098  16.855  0.00  0.00    +0.000 F 
ATOM     27  F   UNL     1       5.948   3.048  15.708  0.00  0.00    +0.000 F 
ATOM     28  F   UNL     1       6.961   4.770  14.851  0.00  0.00    +0.000 F 
ENDBRANCH  22  25
ENDBRANCH  18  19
ENDBRANCH   6  17
TORSDOF 4
ENDMDL
MODEL 8
REMARK VINA RESULT:      -8.0      2.593      3.154
REMARK  Name = 
REMARK  5 active torsions:
REMARK  status: ('A' for Active; 'I' for Inactive)
REMARK    1  A    between atoms: C_1  and  C_2
REMARK    2  A    between atoms: C_5  and  C_6
REMARK    3  A    between atoms: C_11  and  C_13
REMARK    4  A    between atoms: C_14  and  C_15
REMARK    5  A    between atoms: C_18  and  C_19
REMARK                            x       y       z     vdW  Elec       q    Type
REMARK                         _______ _______ _______ _____ _____    ______ ____
ROOT
ATOM      1  C   UNL     1      -3.077  11.716  18.978  0.00  0.00    +0.000 A 
ATOM      2  N   UNL     1      -3.429  11.045  17.896  0.00  0.00    +0.000 NA
ATOM      3  N   UNL     1      -2.358  10.372  17.322  0.00  0.00    +0.000 NA
ATOM      4  C   UNL     1      -1.263  10.486  18.043  0.00  0.00    +0.000 A 
ATOM      5  N   UNL     1      -0.063   9.901  17.699  0.00  0.00    +0.000 N 
ATOM      6  C   UNL     1       0.998   9.723  18.558  0.00  0.00    +0.000 C 
ATOM      7  O   UNL     1       1.057  10.046  19.736  0.00  0.00    +0.000 OA
ATOM      8  S   UNL     1      -1.424  11.493  19.401  0.00  0.00    +0.000 S 
ATOM      9  H   UNL     1      -0.065   9.486  16.780  0.00  0.00    +0.000 HD
ENDROOT
BRANCH   1  14
ATOM     10  C   UNL     1      -6.499  15.106  22.208  0.00  0.00    +0.000 C 
ATOM     11  C   UNL     1      -5.610  14.212  21.394  0.00  0.00    +0.000 A 
ATOM     12  C   UNL     1      -4.247  14.084  21.683  0.00  0.00    +0.000 A 
ATOM     13  C   UNL     1      -3.429  13.253  20.904  0.00  0.00    +0.000 A 
ATOM     14  C   UNL     1      -3.954  12.546  19.814  0.00  0.00    +0.000 A 
ATOM     15  C   UNL     1      -5.328  12.671  19.546  0.00  0.00    +0.000 A 
ATOM     16  C   UNL     1      -6.145  13.494  20.324  0.00  0.00    +0.000 A 
ENDBRANCH   1  14
BRANCH   6  17
ATOM     17  C   UNL     1       2.149   9.021  17.913  0.00  0.00    +0.000 C 
ATOM     18  C   UNL     1       2.340   7.715  18.161  0.00  0.00    +0.000 C 
BRANCH  18  19
ATOM     19  C   UNL     1       3.443   6.897  17.629  0.00  0.00    +0.000 A 
ATOM     20  C   UNL     1       3.416   5.508  17.829  0.00  0.00    +0.000 A 
ATOM     21  C   UNL     1       4.440   4.690  17.337  0.00  0.00    +0.000 A 
ATOM     22  C   UNL     1       5.512   5.241  16.623  0.00  0.00    +0.000 A 
ATOM     23  C   UNL     1       5.524   6.625  16.396  0.00  0.00    +0.000 A 
ATOM     24  C   UNL     1       4.498   7.441  16.888  0.00  0.00    +0.000 A 
BRANCH  22  25
ATOM     25  C   UNL     1       6.636   4.377  16.103  0.00  0.00    +0.000 C 
ATOM     26  F   UNL     1       7.312   4.930  15.056  0.00  0.00    +0.000 F 
ATOM     27  F   UNL     1       7.574   4.112  17.054  0.00  0.00    +0.000 F 
ATOM     28  F   UNL     1       6.197   3.165  15.663  0.00  0.00    +0.000 F 
ENDBRANCH  22  25
ENDBRANCH  18  19
ENDBRANCH   6  17
TORSDOF 4
ENDMDL
MODEL 9
REMARK VINA RESULT:      -7.9      1.492      1.793
REMARK  Name = 
REMARK  5 active torsions:
REMARK  status: ('A' for Active; 'I' for Inactive)
REMARK    1  A    between atoms: C_1  and  C_2
REMARK    2  A    between atoms: C_5  and  C_6
REMARK    3  A    between atoms: C_11  and  C_13
REMARK    4  A    between atoms: C_14  and  C_15
REMARK    5  A    between atoms: C_18  and  C_19
REMARK                            x       y       z     vdW  Elec       q    Type
REMARK                         _______ _______ _______ _____ _____    ______ ____
ROOT
ATOM      1  C   UNL     1      -1.202  12.028  21.080  0.00  0.00    +0.000 A 
ATOM      2  N   UNL     1      -1.429  11.978  19.780  0.00  0.00    +0.000 NA
ATOM      3  N   UNL     1      -0.656  11.013  19.147  0.00  0.00    +0.000 NA
ATOM      4  C   UNL     1       0.054  10.311  20.005  0.00  0.00    +0.000 A 
ATOM      5  N   UNL     1       0.895   9.285  19.635  0.00  0.00    +0.000 N 
ATOM      6  C   UNL     1       1.398   8.333  20.494  0.00  0.00    +0.000 C 
ATOM      7  O   UNL     1       1.193   8.241  21.696  0.00  0.00    +0.000 OA
ATOM      8  S   UNL     1      -0.084  10.834  21.615  0.00  0.00    +0.000 S 
ATOM      9  H   UNL     1       1.017   9.204  18.637  0.00  0.00    +0.000 HD
ENDROOT
BRANCH   1  14
ATOM     10  C   UNL     1      -3.640  15.742  24.808  0.00  0.00    +0.000 C 
ATOM     11  C   UNL     1      -3.007  14.762  23.864  0.00  0.00    +0.000 A 
ATOM     12  C   UNL     1      -1.673  14.367  24.013  0.00  0.00    +0.000 A 
ATOM     13  C   UNL     1      -1.095  13.459  23.114  0.00  0.00    +0.000 A 
ATOM     14  C   UNL     1      -1.834  12.941  22.042  0.00  0.00    +0.000 A 
ATOM     15  C   UNL     1      -3.177  13.333  21.915  0.00  0.00    +0.000 A 
ATOM     16  C   UNL     1      -3.756  14.233  22.813  0.00  0.00    +0.000 A 
ENDBRANCH   1  14
BRANCH   6  17
ATOM     17  C   UNL     1       2.248   7.321  19.796  0.00  0.00    +0.000 C 
ATOM     18  C   UNL     1       2.703   7.589  18.561  0.00  0.00    +0.000 C 
BRANCH  18  19
ATOM     19  C   UNL     1       3.519   6.683  17.736  0.00  0.00    +0.000 A 
ATOM     20  C   UNL     1       4.473   7.232  16.865  0.00  0.00    +0.000 A 
ATOM     21  C   UNL     1       5.274   6.409  16.064  0.00  0.00    +0.000 A 
ATOM     22  C   UNL     1       5.149   5.014  16.125  0.00  0.00    +0.000 A 
ATOM     23  C   UNL     1       4.218   4.465  17.018  0.00  0.00    +0.000 A 
ATOM     24  C   UNL     1       3.419   5.289  17.818  0.00  0.00    +0.000 A 
BRANCH  22  25
ATOM     25  C   UNL     1       5.990   4.112  15.255  0.00  0.00    +0.000 C 
ATOM     26  F   UNL     1       5.714   4.222  13.925  0.00  0.00    +0.000 F 
ATOM     27  F   UNL     1       7.324   4.360  15.380  0.00  0.00    +0.000 F 
ATOM     28  F   UNL     1       5.825   2.795  15.560  0.00  0.00    +0.000 F 
ENDBRANCH  22  25
ENDBRANCH  18  19
ENDBRANCH   6  17
TORSDOF 4
ENDMDL
