MODEL 1
REMARK VINA RESULT:      -6.9      0.000      0.000
REMARK  Name = 
REMARK  10 active torsions:
REMARK  status: ('A' for Active; 'I' for Inactive)
REMARK    1  A    between atoms: C_1  and  O_2
REMARK    2  A    between atoms: O_2  and  C_3
REMARK    3  A    between atoms: C_6  and  C_7
REMARK    4  A    between atoms: C_7  and  C_8
REMARK    5  A    between atoms: C_8  and  N_9
REMARK    6  A    between atoms: N_9  and  CA_10
REMARK    7  A    between atoms: CA_10  and  C_11
REMARK    8  A    between atoms: CA_10  and  C_13
REMARK    9  A    between atoms: C_11  and  O_12
REMARK   10  A    between atoms: C_16  and  O_17
REMARK                            x       y       z     vdW  Elec       q    Type
REMARK                         _______ _______ _______ _____ _____    ______ ____
ROOT
ATOM      1  CA  UNL     1       2.970   6.040  17.684  0.00  0.00    +0.000 C 
ENDROOT
BRANCH   1   2
ATOM      2  C   UNL     1       4.375   5.479  17.938  0.00  0.00    +0.000 A 
ATOM      3  C   UNL     1       4.884   5.447  19.258  0.00  0.00    +0.000 A 
ATOM      4  C   UNL     1       6.217   5.139  19.532  0.00  0.00    +0.000 A 
ATOM      5  C   UNL     1       7.091   4.924  18.480  0.00  0.00    +0.000 A 
ATOM      6  C   UNL     1       6.618   4.948  17.167  0.00  0.00    +0.000 A 
ATOM      7  N   UNL     1       7.539   4.897  16.107  0.00  0.00    +0.000 N 
ATOM      8  C   UNL     1       7.175   4.987  14.791  0.00  0.00    +0.000 A 
ATOM      9  O   UNL     1       7.970   5.166  13.878  0.00  0.00    +0.000 OA
ATOM     10  C   UNL     1       5.732   4.778  14.519  0.00  0.00    +0.000 A 
ATOM     11  C   UNL     1       4.827   4.853  15.505  0.00  0.00    +0.000 A 
ATOM     12  C   UNL     1       5.249   5.116  16.889  0.00  0.00    +0.000 A 
ATOM     13  H   UNL     1       8.523   4.961  16.334  0.00  0.00    +0.000 HD
BRANCH   5  14
ATOM     14  O   UNL     1       8.418   4.683  18.702  0.00  0.00    +0.000 OA
ATOM     15  H   UNL     1       8.718   5.266  19.422  0.00  0.00    +0.000 HD
ENDBRANCH   5  14
ENDBRANCH   1   2
BRANCH   1  16
ATOM     16  N   UNL     1       1.950   5.254  18.422  0.00  0.00    +0.000 NA
ATOM     17  H   UNL     1       2.429   4.791  19.198  0.00  0.00    +0.000 HD
BRANCH  16  18
ATOM     18  C   UNL     1       1.327   4.217  17.578  0.00  0.00    +0.000 C 
BRANCH  18  19
ATOM     19  C   UNL     1       1.075   2.936  18.388  0.00  0.00    +0.000 C 
BRANCH  19  23
ATOM     20  C   UNL     1       4.464   1.878  20.866  0.00  0.00    +0.000 A 
ATOM     21  C   UNL     1       4.522   1.719  19.480  0.00  0.00    +0.000 A 
ATOM     22  C   UNL     1       3.434   2.073  18.676  0.00  0.00    +0.000 A 
ATOM     23  C   UNL     1       2.263   2.576  19.251  0.00  0.00    +0.000 A 
ATOM     24  C   UNL     1       2.198   2.708  20.645  0.00  0.00    +0.000 A 
ATOM     25  C   UNL     1       3.295   2.364  21.447  0.00  0.00    +0.000 A 
BRANCH  20  27
ATOM     26  C   UNL     1       5.787   0.084  21.665  0.00  0.00    +0.000 C 
ATOM     27  O   UNL     1       5.589   1.487  21.539  0.00  0.00    +0.000 OA
ENDBRANCH  20  27
ENDBRANCH  19  23
ENDBRANCH  18  19
ENDBRANCH  16  18
ENDBRANCH   1  16
BRANCH   1  28
ATOM     28  C   UNL     1       2.937   7.554  18.059  0.00  0.00    +0.000 C 
BRANCH  28  29
ATOM     29  O   UNL     1       1.650   8.136  17.835  0.00  0.00    +0.000 OA
ATOM     30  H   UNL     1       1.822   8.933  17.297  0.00  0.00    +0.000 HD
ENDBRANCH  28  29
ENDBRANCH   1  28
TORSDOF 9
ENDMDL
MODEL 2
REMARK VINA RESULT:      -6.6      4.912      7.901
REMARK  Name = 
REMARK  10 active torsions:
REMARK  status: ('A' for Active; 'I' for Inactive)
REMARK    1  A    between atoms: C_1  and  O_2
REMARK    2  A    between atoms: O_2  and  C_3
REMARK    3  A    between atoms: C_6  and  C_7
REMARK    4  A    between atoms: C_7  and  C_8
REMARK    5  A    between atoms: C_8  and  N_9
REMARK    6  A    between atoms: N_9  and  CA_10
REMARK    7  A    between atoms: CA_10  and  C_11
REMARK    8  A    between atoms: CA_10  and  C_13
REMARK    9  A    between atoms: C_11  and  O_12
REMARK   10  A    between atoms: C_16  and  O_17
REMARK                            x       y       z     vdW  Elec       q    Type
REMARK                         _______ _______ _______ _____ _____    ______ ____
ROOT
ATOM      1  CA  UNL     1       0.048   9.668  21.252  0.00  0.00    +0.000 C 
ENDROOT
BRANCH   1   2
ATOM      2  C   UNL     1       0.044  10.934  20.388  0.00  0.00    +0.000 A 
ATOM      3  C   UNL     1       0.537  12.146  20.926  0.00  0.00    +0.000 A 
ATOM      4  C   UNL     1       0.379  13.368  20.270  0.00  0.00    +0.000 A 
ATOM      5  C   UNL     1      -0.342  13.413  19.089  0.00  0.00    +0.000 A 
ATOM      6  C   UNL     1      -0.841  12.233  18.533  0.00  0.00    +0.000 A 
ATOM      7  N   UNL     1      -1.709  12.309  17.432  0.00  0.00    +0.000 N 
ATOM      8  C   UNL     1      -2.302  11.214  16.866  0.00  0.00    +0.000 A 
ATOM      9  O   UNL     1      -3.221  11.280  16.061  0.00  0.00    +0.000 OA
ATOM     10  C   UNL     1      -1.705   9.909  17.239  0.00  0.00    +0.000 A 
ATOM     11  C   UNL     1      -0.899   9.799  18.304  0.00  0.00    +0.000 A 
ATOM     12  C   UNL     1      -0.563  10.981  19.112  0.00  0.00    +0.000 A 
ATOM     13  H   UNL     1      -2.035  13.226  17.151  0.00  0.00    +0.000 HD
BRANCH   5  14
ATOM     14  O   UNL     1      -0.575  14.597  18.448  0.00  0.00    +0.000 OA
ATOM     15  H   UNL     1      -1.521  14.813  18.540  0.00  0.00    +0.000 HD
ENDBRANCH   5  14
ENDBRANCH   1   2
BRANCH   1  16
ATOM     16  N   UNL     1       1.421   9.119  21.374  0.00  0.00    +0.000 NA
ATOM     17  H   UNL     1       2.024   9.676  20.763  0.00  0.00    +0.000 HD
BRANCH  16  18
ATOM     18  C   UNL     1       1.500   7.711  20.945  0.00  0.00    +0.000 C 
BRANCH  18  19
ATOM     19  C   UNL     1       2.225   7.593  19.595  0.00  0.00    +0.000 C 
BRANCH  19  23
ATOM     20  C   UNL     1       2.490   3.479  18.270  0.00  0.00    +0.000 A 
ATOM     21  C   UNL     1       1.856   3.797  19.473  0.00  0.00    +0.000 A 
ATOM     22  C   UNL     1       1.756   5.127  19.896  0.00  0.00    +0.000 A 
ATOM     23  C   UNL     1       2.308   6.157  19.128  0.00  0.00    +0.000 A 
ATOM     24  C   UNL     1       2.969   5.831  17.936  0.00  0.00    +0.000 A 
ATOM     25  C   UNL     1       3.055   4.499  17.508  0.00  0.00    +0.000 A 
BRANCH  20  27
ATOM     26  C   UNL     1       3.571   1.396  18.588  0.00  0.00    +0.000 C 
ATOM     27  O   UNL     1       2.528   2.144  17.974  0.00  0.00    +0.000 OA
ENDBRANCH  20  27
ENDBRANCH  19  23
ENDBRANCH  18  19
ENDBRANCH  16  18
ENDBRANCH   1  16
BRANCH   1  28
ATOM     28  C   UNL     1      -0.590   9.981  22.641  0.00  0.00    +0.000 C 
BRANCH  28  29
ATOM     29  O   UNL     1       0.320   9.745  23.719  0.00  0.00    +0.000 OA
ATOM     30  H   UNL     1       0.943  10.497  23.695  0.00  0.00    +0.000 HD
ENDBRANCH  28  29
ENDBRANCH   1  28
TORSDOF 9
ENDMDL
MODEL 3
REMARK VINA RESULT:      -6.6      3.700      6.763
REMARK  Name = 
REMARK  10 active torsions:
REMARK  status: ('A' for Active; 'I' for Inactive)
REMARK    1  A    between atoms: C_1  and  O_2
REMARK    2  A    between atoms: O_2  and  C_3
REMARK    3  A    between atoms: C_6  and  C_7
REMARK    4  A    between atoms: C_7  and  C_8
REMARK    5  A    between atoms: C_8  and  N_9
REMARK    6  A    between atoms: N_9  and  CA_10
REMARK    7  A    between atoms: CA_10  and  C_11
REMARK    8  A    between atoms: CA_10  and  C_13
REMARK    9  A    between atoms: C_11  and  O_12
REMARK   10  A    between atoms: C_16  and  O_17
REMARK                            x       y       z     vdW  Elec       q    Type
REMARK                         _______ _______ _______ _____ _____    ______ ____
ROOT
ATOM      1  CA  UNL     1       2.537   7.043  19.488  0.00  0.00    +0.000 C 
ENDROOT
BRANCH   1   2
ATOM      2  C   UNL     1       3.069   5.608  19.408  0.00  0.00    +0.000 A 
ATOM      3  C   UNL     1       2.513   4.612  20.246  0.00  0.00    +0.000 A 
ATOM      4  C   UNL     1       3.080   3.343  20.368  0.00  0.00    +0.000 A 
ATOM      5  C   UNL     1       4.263   3.065  19.704  0.00  0.00    +0.000 A 
ATOM      6  C   UNL     1       4.836   4.027  18.870  0.00  0.00    +0.000 A 
ATOM      7  N   UNL     1       6.116   3.798  18.338  0.00  0.00    +0.000 N 
ATOM      8  C   UNL     1       6.785   4.712  17.571  0.00  0.00    +0.000 A 
ATOM      9  O   UNL     1       7.972   4.621  17.289  0.00  0.00    +0.000 OA
ATOM     10  C   UNL     1       5.951   5.810  17.026  0.00  0.00    +0.000 A 
ATOM     11  C   UNL     1       4.739   6.073  17.535  0.00  0.00    +0.000 A 
ATOM     12  C   UNL     1       4.195   5.257  18.630  0.00  0.00    +0.000 A 
ATOM     13  H   UNL     1       6.628   2.991  18.673  0.00  0.00    +0.000 HD
BRANCH   5  14
ATOM     14  O   UNL     1       4.887   1.856  19.846  0.00  0.00    +0.000 OA
ATOM     15  H   UNL     1       4.981   1.672  20.798  0.00  0.00    +0.000 HD
ENDBRANCH   5  14
ENDBRANCH   1   2
BRANCH   1  16
ATOM     16  N   UNL     1       1.945   7.457  18.192  0.00  0.00    +0.000 NA
ATOM     17  H   UNL     1       2.428   6.933  17.458  0.00  0.00    +0.000 HD
BRANCH  16  18
ATOM     18  C   UNL     1       2.127   8.896  17.928  0.00  0.00    +0.000 C 
BRANCH  18  19
ATOM     19  C   UNL     1       0.771   9.617  17.878  0.00  0.00    +0.000 C 
BRANCH  19  23
ATOM     20  C   UNL     1       0.118  12.101  21.364  0.00  0.00    +0.000 A 
ATOM     21  C   UNL     1      -0.718  11.014  21.101  0.00  0.00    +0.000 A 
ATOM     22  C   UNL     1      -0.501  10.201  19.983  0.00  0.00    +0.000 A 
ATOM     23  C   UNL     1       0.549  10.477  19.101  0.00  0.00    +0.000 A 
ATOM     24  C   UNL     1       1.369  11.585  19.353  0.00  0.00    +0.000 A 
ATOM     25  C   UNL     1       1.157  12.389  20.482  0.00  0.00    +0.000 A 
BRANCH  20  27
ATOM     26  C   UNL     1      -0.411  14.214  22.291  0.00  0.00    +0.000 C 
ATOM     27  O   UNL     1      -0.205  12.820  22.482  0.00  0.00    +0.000 OA
ENDBRANCH  20  27
ENDBRANCH  19  23
ENDBRANCH  18  19
ENDBRANCH  16  18
ENDBRANCH   1  16
BRANCH   1  28
ATOM     28  C   UNL     1       1.522   7.160  20.667  0.00  0.00    +0.000 C 
BRANCH  28  29
ATOM     29  O   UNL     1       1.893   8.181  21.599  0.00  0.00    +0.000 OA
ATOM     30  H   UNL     1       1.220   8.137  22.305  0.00  0.00    +0.000 HD
ENDBRANCH  28  29
ENDBRANCH   1  28
TORSDOF 9
ENDMDL
MODEL 4
REMARK VINA RESULT:      -6.6      2.252      4.845
REMARK  Name = 
REMARK  10 active torsions:
REMARK  status: ('A' for Active; 'I' for Inactive)
REMARK    1  A    between atoms: C_1  and  O_2
REMARK    2  A    between atoms: O_2  and  C_3
REMARK    3  A    between atoms: C_6  and  C_7
REMARK    4  A    between atoms: C_7  and  C_8
REMARK    5  A    between atoms: C_8  and  N_9
REMARK    6  A    between atoms: N_9  and  CA_10
REMARK    7  A    between atoms: CA_10  and  C_11
REMARK    8  A    between atoms: CA_10  and  C_13
REMARK    9  A    between atoms: C_11  and  O_12
REMARK   10  A    between atoms: C_16  and  O_17
REMARK                            x       y       z     vdW  Elec       q    Type
REMARK                         _______ _______ _______ _____ _____    ______ ____
ROOT
ATOM      1  CA  UNL     1       3.835   3.332  18.340  0.00  0.00    +0.000 C 
ENDROOT
BRANCH   1   2
ATOM      2  C   UNL     1       5.129   4.153  18.290  0.00  0.00    +0.000 A 
ATOM      3  C   UNL     1       5.523   4.901  19.424  0.00  0.00    +0.000 A 
ATOM      4  C   UNL     1       6.573   5.819  19.380  0.00  0.00    +0.000 A 
ATOM      5  C   UNL     1       7.207   6.062  18.173  0.00  0.00    +0.000 A 
ATOM      6  C   UNL     1       6.840   5.339  17.036  0.00  0.00    +0.000 A 
ATOM      7  N   UNL     1       7.370   5.710  15.789  0.00  0.00    +0.000 N 
ATOM      8  C   UNL     1       7.015   5.108  14.613  0.00  0.00    +0.000 A 
ATOM      9  O   UNL     1       7.292   5.557  13.510  0.00  0.00    +0.000 OA
ATOM     10  C   UNL     1       6.317   3.807  14.755  0.00  0.00    +0.000 A 
ATOM     11  C   UNL     1       5.774   3.440  15.924  0.00  0.00    +0.000 A 
ATOM     12  C   UNL     1       5.882   4.311  17.105  0.00  0.00    +0.000 A 
ATOM     13  H   UNL     1       7.912   6.564  15.742  0.00  0.00    +0.000 HD
BRANCH   5  14
ATOM     14  O   UNL     1       8.197   7.000  18.071  0.00  0.00    +0.000 OA
ATOM     15  H   UNL     1       8.587   6.935  17.181  0.00  0.00    +0.000 HD
ENDBRANCH   5  14
ENDBRANCH   1   2
BRANCH   1  16
ATOM     16  N   UNL     1       3.253   3.351  19.705  0.00  0.00    +0.000 NA
ATOM     17  H   UNL     1       3.034   2.383  19.953  0.00  0.00    +0.000 HD
BRANCH  16  18
ATOM     18  C   UNL     1       2.009   4.139  19.771  0.00  0.00    +0.000 C 
BRANCH  18  19
ATOM     19  C   UNL     1       2.148   5.295  20.774  0.00  0.00    +0.000 C 
BRANCH  19  23
ATOM     20  C   UNL     1       1.702   9.139  18.832  0.00  0.00    +0.000 A 
ATOM     21  C   UNL     1       1.209   8.935  20.123  0.00  0.00    +0.000 A 
ATOM     22  C   UNL     1       1.364   7.698  20.758  0.00  0.00    +0.000 A 
ATOM     23  C   UNL     1       2.001   6.641  20.101  0.00  0.00    +0.000 A 
ATOM     24  C   UNL     1       2.469   6.841  18.796  0.00  0.00    +0.000 A 
ATOM     25  C   UNL     1       2.324   8.086  18.167  0.00  0.00    +0.000 A 
BRANCH  20  27
ATOM     26  C   UNL     1       0.709  11.268  19.131  0.00  0.00    +0.000 C 
ATOM     27  O   UNL     1       1.479  10.388  18.321  0.00  0.00    +0.000 OA
ENDBRANCH  20  27
ENDBRANCH  19  23
ENDBRANCH  18  19
ENDBRANCH  16  18
ENDBRANCH   1  16
BRANCH   1  28
ATOM     28  C   UNL     1       2.837   3.862  17.263  0.00  0.00    +0.000 C 
BRANCH  28  29
ATOM     29  O   UNL     1       2.142   2.800  16.604  0.00  0.00    +0.000 OA
ATOM     30  H   UNL     1       2.674   2.603  15.809  0.00  0.00    +0.000 HD
ENDBRANCH  28  29
ENDBRANCH   1  28
TORSDOF 9
ENDMDL
MODEL 5
REMARK VINA RESULT:      -6.5      3.695      6.827
REMARK  Name = 
REMARK  10 active torsions:
REMARK  status: ('A' for Active; 'I' for Inactive)
REMARK    1  A    between atoms: C_1  and  O_2
REMARK    2  A    between atoms: O_2  and  C_3
REMARK    3  A    between atoms: C_6  and  C_7
REMARK    4  A    between atoms: C_7  and  C_8
REMARK    5  A    between atoms: C_8  and  N_9
REMARK    6  A    between atoms: N_9  and  CA_10
REMARK    7  A    between atoms: CA_10  and  C_11
REMARK    8  A    between atoms: CA_10  and  C_13
REMARK    9  A    between atoms: C_11  and  O_12
REMARK   10  A    between atoms: C_16  and  O_17
REMARK                            x       y       z     vdW  Elec       q    Type
REMARK                         _______ _______ _______ _____ _____    ______ ____
ROOT
ATOM      1  CA  UNL     1       2.553   7.080  19.450  0.00  0.00    +0.000 C 
ENDROOT
BRANCH   1   2
ATOM      2  C   UNL     1       3.077   5.640  19.376  0.00  0.00    +0.000 A 
ATOM      3  C   UNL     1       2.517   4.652  20.219  0.00  0.00    +0.000 A 
ATOM      4  C   UNL     1       3.076   3.380  20.346  0.00  0.00    +0.000 A 
ATOM      5  C   UNL     1       4.256   3.092  19.680  0.00  0.00    +0.000 A 
ATOM      6  C   UNL     1       4.832   4.046  18.840  0.00  0.00    +0.000 A 
ATOM      7  N   UNL     1       6.109   3.807  18.306  0.00  0.00    +0.000 N 
ATOM      8  C   UNL     1       6.782   4.713  17.533  0.00  0.00    +0.000 A 
ATOM      9  O   UNL     1       7.967   4.614  17.248  0.00  0.00    +0.000 OA
ATOM     10  C   UNL     1       5.954   5.814  16.985  0.00  0.00    +0.000 A 
ATOM     11  C   UNL     1       4.744   6.087  17.496  0.00  0.00    +0.000 A 
ATOM     12  C   UNL     1       4.198   5.279  18.596  0.00  0.00    +0.000 A 
ATOM     13  H   UNL     1       6.617   2.998  18.643  0.00  0.00    +0.000 HD
BRANCH   5  14
ATOM     14  O   UNL     1       4.872   1.880  19.826  0.00  0.00    +0.000 OA
ATOM     15  H   UNL     1       4.801   1.612  20.760  0.00  0.00    +0.000 HD
ENDBRANCH   5  14
ENDBRANCH   1   2
BRANCH   1  16
ATOM     16  N   UNL     1       1.980   7.498  18.147  0.00  0.00    +0.000 NA
ATOM     17  H   UNL     1       2.499   7.005  17.417  0.00  0.00    +0.000 HD
BRANCH  16  18
ATOM     18  C   UNL     1       2.119   8.947  17.915  0.00  0.00    +0.000 C 
BRANCH  18  19
ATOM     19  C   UNL     1       0.750   9.642  17.968  0.00  0.00    +0.000 C 
BRANCH  19  23
ATOM     20  C   UNL     1       0.649  12.702  21.030  0.00  0.00    +0.000 A 
ATOM     21  C   UNL     1       1.533  12.804  19.954  0.00  0.00    +0.000 A 
ATOM     22  C   UNL     1       1.558  11.825  18.956  0.00  0.00    +0.000 A 
ATOM     23  C   UNL     1       0.708  10.716  19.031  0.00  0.00    +0.000 A 
ATOM     24  C   UNL     1      -0.158  10.602  20.127  0.00  0.00    +0.000 A 
ATOM     25  C   UNL     1      -0.189  11.593  21.119  0.00  0.00    +0.000 A 
BRANCH  20  27
ATOM     26  C   UNL     1       1.713  14.714  21.683  0.00  0.00    +0.000 C 
ATOM     27  O   UNL     1       0.729  13.719  21.941  0.00  0.00    +0.000 OA
ENDBRANCH  20  27
ENDBRANCH  19  23
ENDBRANCH  18  19
ENDBRANCH  16  18
ENDBRANCH   1  16
BRANCH   1  28
ATOM     28  C   UNL     1       1.525   7.203  20.618  0.00  0.00    +0.000 C 
BRANCH  28  29
ATOM     29  O   UNL     1       1.930   8.169  21.592  0.00  0.00    +0.000 OA
ATOM     30  H   UNL     1       1.401   8.966  21.394  0.00  0.00    +0.000 HD
ENDBRANCH  28  29
ENDBRANCH   1  28
TORSDOF 9
ENDMDL
MODEL 6
REMARK VINA RESULT:      -6.5      3.948      6.797
REMARK  Name = 
REMARK  10 active torsions:
REMARK  status: ('A' for Active; 'I' for Inactive)
REMARK    1  A    between atoms: C_1  and  O_2
REMARK    2  A    between atoms: O_2  and  C_3
REMARK    3  A    between atoms: C_6  and  C_7
REMARK    4  A    between atoms: C_7  and  C_8
REMARK    5  A    between atoms: C_8  and  N_9
REMARK    6  A    between atoms: N_9  and  CA_10
REMARK    7  A    between atoms: CA_10  and  C_11
REMARK    8  A    between atoms: CA_10  and  C_13
REMARK    9  A    between atoms: C_11  and  O_12
REMARK   10  A    between atoms: C_16  and  O_17
REMARK                            x       y       z     vdW  Elec       q    Type
REMARK                         _______ _______ _______ _____ _____    ______ ____
ROOT
ATOM      1  CA  UNL     1       2.691   7.374  18.552  0.00  0.00    +0.000 C 
ENDROOT
BRANCH   1   2
ATOM      2  C   UNL     1       3.047   5.979  18.024  0.00  0.00    +0.000 A 
ATOM      3  C   UNL     1       2.049   4.977  17.977  0.00  0.00    +0.000 A 
ATOM      4  C   UNL     1       2.349   3.643  17.699  0.00  0.00    +0.000 A 
ATOM      5  C   UNL     1       3.671   3.268  17.533  0.00  0.00    +0.000 A 
ATOM      6  C   UNL     1       4.678   4.234  17.574  0.00  0.00    +0.000 A 
ATOM      7  N   UNL     1       6.022   3.823  17.573  0.00  0.00    +0.000 N 
ATOM      8  C   UNL     1       7.073   4.691  17.682  0.00  0.00    +0.000 A 
ATOM      9  O   UNL     1       8.224   4.339  17.904  0.00  0.00    +0.000 OA
ATOM     10  C   UNL     1       6.744   6.116  17.440  0.00  0.00    +0.000 A 
ATOM     11  C   UNL     1       5.473   6.544  17.467  0.00  0.00    +0.000 A 
ATOM     12  C   UNL     1       4.372   5.600  17.710  0.00  0.00    +0.000 A 
ATOM     13  H   UNL     1       6.211   2.832  17.659  0.00  0.00    +0.000 HD
BRANCH   5  14
ATOM     14  O   UNL     1       4.015   1.961  17.323  0.00  0.00    +0.000 OA
ATOM     15  H   UNL     1       3.212   1.472  17.068  0.00  0.00    +0.000 HD
ENDBRANCH   5  14
ENDBRANCH   1   2
BRANCH   1  16
ATOM     16  N   UNL     1       1.745   8.056  17.635  0.00  0.00    +0.000 NA
ATOM     17  H   UNL     1       2.100   7.928  16.685  0.00  0.00    +0.000 HD
BRANCH  16  18
ATOM     18  C   UNL     1       1.654   9.503  17.903  0.00  0.00    +0.000 C 
BRANCH  18  19
ATOM     19  C   UNL     1       0.191   9.932  18.093  0.00  0.00    +0.000 C 
BRANCH  19  23
ATOM     20  C   UNL     1      -0.453  11.636  22.022  0.00  0.00    +0.000 A 
ATOM     21  C   UNL     1      -0.266  12.462  20.912  0.00  0.00    +0.000 A 
ATOM     22  C   UNL     1      -0.072  11.915  19.639  0.00  0.00    +0.000 A 
ATOM     23  C   UNL     1      -0.044  10.528  19.462  0.00  0.00    +0.000 A 
ATOM     24  C   UNL     1      -0.204   9.701  20.583  0.00  0.00    +0.000 A 
ATOM     25  C   UNL     1      -0.412  10.253  21.855  0.00  0.00    +0.000 A 
BRANCH  20  27
ATOM     26  C   UNL     1      -1.378  13.498  23.153  0.00  0.00    +0.000 C 
ATOM     27  O   UNL     1      -0.623  12.293  23.209  0.00  0.00    +0.000 OA
ENDBRANCH  20  27
ENDBRANCH  19  23
ENDBRANCH  18  19
ENDBRANCH  16  18
ENDBRANCH   1  16
BRANCH   1  28
ATOM     28  C   UNL     1       2.129   7.256  20.003  0.00  0.00    +0.000 C 
BRANCH  28  29
ATOM     29  O   UNL     1       2.632   6.103  20.684  0.00  0.00    +0.000 OA
ATOM     30  H   UNL     1       3.039   6.448  21.502  0.00  0.00    +0.000 HD
ENDBRANCH  28  29
ENDBRANCH   1  28
TORSDOF 9
ENDMDL
MODEL 7
REMARK VINA RESULT:      -6.5      5.095      8.350
REMARK  Name = 
REMARK  10 active torsions:
REMARK  status: ('A' for Active; 'I' for Inactive)
REMARK    1  A    between atoms: C_1  and  O_2
REMARK    2  A    between atoms: O_2  and  C_3
REMARK    3  A    between atoms: C_6  and  C_7
REMARK    4  A    between atoms: C_7  and  C_8
REMARK    5  A    between atoms: C_8  and  N_9
REMARK    6  A    between atoms: N_9  and  CA_10
REMARK    7  A    between atoms: CA_10  and  C_11
REMARK    8  A    between atoms: CA_10  and  C_13
REMARK    9  A    between atoms: C_11  and  O_12
REMARK   10  A    between atoms: C_16  and  O_17
REMARK                            x       y       z     vdW  Elec       q    Type
REMARK                         _______ _______ _______ _____ _____    ______ ____
ROOT
ATOM      1  CA  UNL     1       0.322   9.316  19.902  0.00  0.00    +0.000 C 
ENDROOT
BRANCH   1   2
ATOM      2  C   UNL     1      -0.387  10.671  19.798  0.00  0.00    +0.000 A 
ATOM      3  C   UNL     1      -0.126  11.669  20.766  0.00  0.00    +0.000 A 
ATOM      4  C   UNL     1      -0.880  12.841  20.846  0.00  0.00    +0.000 A 
ATOM      5  C   UNL     1      -1.962  13.007  19.999  0.00  0.00    +0.000 A 
ATOM      6  C   UNL     1      -2.244  12.040  19.032  0.00  0.00    +0.000 A 
ATOM      7  N   UNL     1      -3.436  12.136  18.295  0.00  0.00    +0.000 N 
ATOM      8  C   UNL     1      -3.830  11.199  17.380  0.00  0.00    +0.000 A 
ATOM      9  O   UNL     1      -4.954  11.153  16.898  0.00  0.00    +0.000 OA
ATOM     10  C   UNL     1      -2.770  10.261  16.939  0.00  0.00    +0.000 A 
ATOM     11  C   UNL     1      -1.636  10.124  17.640  0.00  0.00    +0.000 A 
ATOM     12  C   UNL     1      -1.405  10.925  18.851  0.00  0.00    +0.000 A 
ATOM     13  H   UNL     1      -4.106  12.843  18.572  0.00  0.00    +0.000 HD
BRANCH   5  14
ATOM     14  O   UNL     1      -2.765  14.110  20.086  0.00  0.00    +0.000 OA
ATOM     15  H   UNL     1      -3.081  14.186  21.004  0.00  0.00    +0.000 HD
ENDBRANCH   5  14
ENDBRANCH   1   2
BRANCH   1  16
ATOM     16  N   UNL     1       1.677   9.384  19.300  0.00  0.00    +0.000 NA
ATOM     17  H   UNL     1       1.875  10.370  19.116  0.00  0.00    +0.000 HD
BRANCH  16  18
ATOM     18  C   UNL     1       1.758   8.649  18.025  0.00  0.00    +0.000 C 
BRANCH  18  19
ATOM     19  C   UNL     1       2.866   7.586  18.078  0.00  0.00    +0.000 C 
BRANCH  19  23
ATOM     20  C   UNL     1       1.459   3.845  19.745  0.00  0.00    +0.000 A 
ATOM     21  C   UNL     1       1.876   4.883  20.582  0.00  0.00    +0.000 A 
ATOM     22  C   UNL     1       2.317   6.097  20.046  0.00  0.00    +0.000 A 
ATOM     23  C   UNL     1       2.365   6.284  18.661  0.00  0.00    +0.000 A 
ATOM     24  C   UNL     1       1.973   5.231  17.824  0.00  0.00    +0.000 A 
ATOM     25  C   UNL     1       1.518   4.020  18.364  0.00  0.00    +0.000 A 
BRANCH  20  27
ATOM     26  C   UNL     1       1.613   2.496  21.684  0.00  0.00    +0.000 C 
ATOM     27  O   UNL     1       1.059   2.708  20.391  0.00  0.00    +0.000 OA
ENDBRANCH  20  27
ENDBRANCH  19  23
ENDBRANCH  18  19
ENDBRANCH  16  18
ENDBRANCH   1  16
BRANCH   1  28
ATOM     28  C   UNL     1       0.359   8.858  21.394  0.00  0.00    +0.000 C 
BRANCH  28  29
ATOM     29  O   UNL     1       1.687   8.852  21.923  0.00  0.00    +0.000 OA
ATOM     30  H   UNL     1       1.763   9.686  22.427  0.00  0.00    +0.000 HD
ENDBRANCH  28  29
ENDBRANCH   1  28
TORSDOF 9
ENDMDL
MODEL 8
REMARK VINA RESULT:      -6.4      3.843      6.882
REMARK  Name = 
REMARK  10 active torsions:
REMARK  status: ('A' for Active; 'I' for Inactive)
REMARK    1  A    between atoms: C_1  and  O_2
REMARK    2  A    between atoms: O_2  and  C_3
REMARK    3  A    between atoms: C_6  and  C_7
REMARK    4  A    between atoms: C_7  and  C_8
REMARK    5  A    between atoms: C_8  and  N_9
REMARK    6  A    between atoms: N_9  and  CA_10
REMARK    7  A    between atoms: CA_10  and  C_11
REMARK    8  A    between atoms: CA_10  and  C_13
REMARK    9  A    between atoms: C_11  and  O_12
REMARK   10  A    between atoms: C_16  and  O_17
REMARK                            x       y       z     vdW  Elec       q    Type
REMARK                         _______ _______ _______ _____ _____    ______ ____
ROOT
ATOM      1  CA  UNL     1       2.587   7.129  19.495  0.00  0.00    +0.000 C 
ENDROOT
BRANCH   1   2
ATOM      2  C   UNL     1       3.088   5.684  19.393  0.00  0.00    +0.000 A 
ATOM      3  C   UNL     1       2.517   4.690  20.222  0.00  0.00    +0.000 A 
ATOM      4  C   UNL     1       3.058   3.407  20.323  0.00  0.00    +0.000 A 
ATOM      5  C   UNL     1       4.230   3.113  19.646  0.00  0.00    +0.000 A 
ATOM      6  C   UNL     1       4.816   4.073  18.820  0.00  0.00    +0.000 A 
ATOM      7  N   UNL     1       6.086   3.824  18.275  0.00  0.00    +0.000 N 
ATOM      8  C   UNL     1       6.769   4.733  17.514  0.00  0.00    +0.000 A 
ATOM      9  O   UNL     1       7.951   4.621  17.221  0.00  0.00    +0.000 OA
ATOM     10  C   UNL     1       5.955   5.856  16.989  0.00  0.00    +0.000 A 
ATOM     11  C   UNL     1       4.753   6.138  17.511  0.00  0.00    +0.000 A 
ATOM     12  C   UNL     1       4.200   5.319  18.601  0.00  0.00    +0.000 A 
ATOM     13  H   UNL     1       6.583   3.002  18.595  0.00  0.00    +0.000 HD
BRANCH   5  14
ATOM     14  O   UNL     1       4.828   1.889  19.768  0.00  0.00    +0.000 OA
ATOM     15  H   UNL     1       5.208   1.823  20.662  0.00  0.00    +0.000 HD
ENDBRANCH   5  14
ENDBRANCH   1   2
BRANCH   1  16
ATOM     16  N   UNL     1       2.085   7.606  18.182  0.00  0.00    +0.000 NA
ATOM     17  H   UNL     1       2.781   7.342  17.480  0.00  0.00    +0.000 HD
BRANCH  16  18
ATOM     18  C   UNL     1       1.922   9.070  18.145  0.00  0.00    +0.000 C 
BRANCH  18  19
ATOM     19  C   UNL     1       0.472   9.449  17.806  0.00  0.00    +0.000 C 
BRANCH  19  23
ATOM     20  C   UNL     1      -1.158  12.276  20.653  0.00  0.00    +0.000 A 
ATOM     21  C   UNL     1       0.125  11.752  20.828  0.00  0.00    +0.000 A 
ATOM     22  C   UNL     1       0.659  10.849  19.903  0.00  0.00    +0.000 A 
ATOM     23  C   UNL     1      -0.092  10.444  18.795  0.00  0.00    +0.000 A 
ATOM     24  C   UNL     1      -1.389  10.950  18.637  0.00  0.00    +0.000 A 
ATOM     25  C   UNL     1      -1.917  11.865  19.559  0.00  0.00    +0.000 A 
BRANCH  20  27
ATOM     26  C   UNL     1      -1.256  12.765  22.967  0.00  0.00    +0.000 C 
ATOM     27  O   UNL     1      -1.567  13.141  21.630  0.00  0.00    +0.000 OA
ENDBRANCH  20  27
ENDBRANCH  19  23
ENDBRANCH  18  19
ENDBRANCH  16  18
ENDBRANCH   1  16
BRANCH   1  28
ATOM     28  C   UNL     1       1.505   7.230  20.614  0.00  0.00    +0.000 C 
BRANCH  28  29
ATOM     29  O   UNL     1       1.901   8.111  21.669  0.00  0.00    +0.000 OA
ATOM     30  H   UNL     1       2.578   7.617  22.171  0.00  0.00    +0.000 HD
ENDBRANCH  28  29
ENDBRANCH   1  28
TORSDOF 9
ENDMDL
MODEL 9
REMARK VINA RESULT:      -6.3      3.789      7.106
REMARK  Name = 
REMARK  10 active torsions:
REMARK  status: ('A' for Active; 'I' for Inactive)
REMARK    1  A    between atoms: C_1  and  O_2
REMARK    2  A    between atoms: O_2  and  C_3
REMARK    3  A    between atoms: C_6  and  C_7
REMARK    4  A    between atoms: C_7  and  C_8
REMARK    5  A    between atoms: C_8  and  N_9
REMARK    6  A    between atoms: N_9  and  CA_10
REMARK    7  A    between atoms: CA_10  and  C_11
REMARK    8  A    between atoms: CA_10  and  C_13
REMARK    9  A    between atoms: C_11  and  O_12
REMARK   10  A    between atoms: C_16  and  O_17
REMARK                            x       y       z     vdW  Elec       q    Type
REMARK                         _______ _______ _______ _____ _____    ______ ____
ROOT
ATOM      1  CA  UNL     1       2.472   7.130  18.857  0.00  0.00    +0.000 C 
ENDROOT
BRANCH   1   2
ATOM      2  C   UNL     1       2.838   5.748  18.305  0.00  0.00    +0.000 A 
ATOM      3  C   UNL     1       1.948   4.665  18.494  0.00  0.00    +0.000 A 
ATOM      4  C   UNL     1       2.305   3.349  18.196  0.00  0.00    +0.000 A 
ATOM      5  C   UNL     1       3.594   3.080  17.767  0.00  0.00    +0.000 A 
ATOM      6  C   UNL     1       4.495   4.128  17.571  0.00  0.00    +0.000 A 
ATOM      7  N   UNL     1       5.842   3.831  17.300  0.00  0.00    +0.000 N 
ATOM      8  C   UNL     1       6.809   4.789  17.164  0.00  0.00    +0.000 A 
ATOM      9  O   UNL     1       8.007   4.545  17.149  0.00  0.00    +0.000 OA
ATOM     10  C   UNL     1       6.307   6.169  16.957  0.00  0.00    +0.000 A 
ATOM     11  C   UNL     1       5.035   6.489  17.237  0.00  0.00    +0.000 A 
ATOM     12  C   UNL     1       4.099   5.468  17.731  0.00  0.00    +0.000 A 
ATOM     13  H   UNL     1       6.135   2.865  17.371  0.00  0.00    +0.000 HD
BRANCH   5  14
ATOM     14  O   UNL     1       4.006   1.798  17.526  0.00  0.00    +0.000 OA
ATOM     15  H   UNL     1       3.240   1.206  17.636  0.00  0.00    +0.000 HD
ENDBRANCH   5  14
ENDBRANCH   1   2
BRANCH   1  16
ATOM     16  N   UNL     1       1.662   7.891  17.874  0.00  0.00    +0.000 NA
ATOM     17  H   UNL     1       1.791   7.441  16.964  0.00  0.00    +0.000 HD
BRANCH  16  18
ATOM     18  C   UNL     1       2.098   9.296  17.760  0.00  0.00    +0.000 C 
BRANCH  18  19
ATOM     19  C   UNL     1       1.522  10.139  18.908  0.00  0.00    +0.000 C 
BRANCH  19  23
ATOM     20  C   UNL     1      -2.577  11.302  18.134  0.00  0.00    +0.000 A 
ATOM     21  C   UNL     1      -2.012  10.210  17.472  0.00  0.00    +0.000 A 
ATOM     22  C   UNL     1      -0.693   9.823  17.731  0.00  0.00    +0.000 A 
ATOM     23  C   UNL     1       0.088  10.538  18.645  0.00  0.00    +0.000 A 
ATOM     24  C   UNL     1      -0.473  11.651  19.286  0.00  0.00    +0.000 A 
ATOM     25  C   UNL     1      -1.800  12.028  19.034  0.00  0.00    +0.000 A 
BRANCH  20  27
ATOM     26  C   UNL     1      -4.227  11.311  16.437  0.00  0.00    +0.000 C 
ATOM     27  O   UNL     1      -3.870  11.582  17.787  0.00  0.00    +0.000 OA
ENDBRANCH  20  27
ENDBRANCH  19  23
ENDBRANCH  18  19
ENDBRANCH  16  18
ENDBRANCH   1  16
BRANCH   1  28
ATOM     28  C   UNL     1       1.742   6.970  20.227  0.00  0.00    +0.000 C 
BRANCH  28  29
ATOM     29  O   UNL     1       2.137   7.972  21.169  0.00  0.00    +0.000 OA
ATOM     30  H   UNL     1       1.556   8.736  20.984  0.00  0.00    +0.000 HD
ENDBRANCH  28  29
ENDBRANCH   1  28
TORSDOF 9
ENDMDL
