MODEL 1
REMARK VINA RESULT:      -8.5      0.000      0.000
REMARK  Name = 
REMARK  5 active torsions:
REMARK  status: ('A' for Active; 'I' for Inactive)
REMARK    1  A    between atoms: C_1  and  O_2
REMARK    2  A    between atoms: O_2  and  C_3
REMARK    3  A    between atoms: C_6  and  C_7
REMARK    4  A    between atoms: C_8  and  C_9
REMARK    5  A    between atoms: C_20  and  N_21
REMARK                            x       y       z     vdW  Elec       q    Type
REMARK                         _______ _______ _______ _____ _____    ______ ____
ROOT
ATOM      1  C   UNL     1       3.253   3.575  19.422  0.00  0.00    +0.000 C 
ATOM      2  C   UNL     1       2.313   4.436  19.852  0.00  0.00    +0.000 C 
ENDROOT
BRANCH   2   3
ATOM      3  C   UNL     1       2.305   5.864  19.552  0.00  0.00    +0.000 A 
ATOM      4  C   UNL     1       2.633   6.274  18.259  0.00  0.00    +0.000 A 
ATOM      5  C   UNL     1       2.407   7.590  17.867  0.00  0.00    +0.000 A 
ATOM      6  C   UNL     1       1.848   8.509  18.765  0.00  0.00    +0.000 A 
ATOM      7  C   UNL     1       1.435   9.776  18.333  0.00  0.00    +0.000 A 
ATOM      8  C   UNL     1       0.859  10.679  19.227  0.00  0.00    +0.000 A 
ATOM      9  C   UNL     1       0.760  10.352  20.576  0.00  0.00    +0.000 A 
ATOM     10  C   UNL     1       1.165   9.092  21.023  0.00  0.00    +0.000 A 
ATOM     11  C   UNL     1       1.655   8.138  20.116  0.00  0.00    +0.000 A 
ATOM     12  C   UNL     1       1.893   6.808  20.499  0.00  0.00    +0.000 A 
ENDBRANCH   2   3
BRANCH   1  16
ATOM     13  C   UNL     1       6.503   4.723  16.837  0.00  0.00    +0.000 A 
ATOM     14  C   UNL     1       5.359   4.107  16.313  0.00  0.00    +0.000 A 
ATOM     15  C   UNL     1       4.313   3.673  17.141  0.00  0.00    +0.000 A 
ATOM     16  C   UNL     1       4.397   3.838  18.528  0.00  0.00    +0.000 A 
ATOM     17  C   UNL     1       5.540   4.421  19.073  0.00  0.00    +0.000 A 
ATOM     18  C   UNL     1       6.556   4.889  18.226  0.00  0.00    +0.000 A 
BRANCH  18  19
ATOM     19  N   UNL     1       7.561   5.707  18.847  0.00  0.00    +0.000 N 
ATOM     20  O   UNL     1       8.241   5.190  19.749  0.00  0.00    +0.000 OA
ATOM     21  O   UNL     1       7.696   6.863  18.414  0.00  0.00    +0.000 OA
ENDBRANCH  18  19
BRANCH  13  23
ATOM     22  C   UNL     1       7.094   4.869  14.533  0.00  0.00    +0.000 C 
ATOM     23  O   UNL     1       7.389   5.167  15.899  0.00  0.00    +0.000 OA
ENDBRANCH  13  23
ENDBRANCH   1  16
TORSDOF 4
ENDMDL
MODEL 2
REMARK VINA RESULT:      -8.3      2.653      5.876
REMARK  Name = 
REMARK  5 active torsions:
REMARK  status: ('A' for Active; 'I' for Inactive)
REMARK    1  A    between atoms: C_1  and  O_2
REMARK    2  A    between atoms: O_2  and  C_3
REMARK    3  A    between atoms: C_6  and  C_7
REMARK    4  A    between atoms: C_8  and  C_9
REMARK    5  A    between atoms: C_20  and  N_21
REMARK                            x       y       z     vdW  Elec       q    Type
REMARK                         _______ _______ _______ _____ _____    ______ ____
ROOT
ATOM      1  C   UNL     1       2.161   3.128  18.340  0.00  0.00    +0.000 C 
ATOM      2  C   UNL     1       3.274   2.703  17.718  0.00  0.00    +0.000 C 
ENDROOT
BRANCH   2   3
ATOM      3  C   UNL     1       4.442   3.539  17.456  0.00  0.00    +0.000 A 
ATOM      4  C   UNL     1       4.620   4.046  16.168  0.00  0.00    +0.000 A 
ATOM      5  C   UNL     1       5.576   5.030  15.934  0.00  0.00    +0.000 A 
ATOM      6  C   UNL     1       6.361   5.519  16.987  0.00  0.00    +0.000 A 
ATOM      7  C   UNL     1       7.184   6.639  16.810  0.00  0.00    +0.000 A 
ATOM      8  C   UNL     1       7.946   7.134  17.868  0.00  0.00    +0.000 A 
ATOM      9  C   UNL     1       7.951   6.469  19.091  0.00  0.00    +0.000 A 
ATOM     10  C   UNL     1       7.135   5.352  19.284  0.00  0.00    +0.000 A 
ATOM     11  C   UNL     1       6.288   4.903  18.258  0.00  0.00    +0.000 A 
ATOM     12  C   UNL     1       5.324   3.906  18.478  0.00  0.00    +0.000 A 
ENDBRANCH   2   3
BRANCH   1  16
ATOM     13  C   UNL     1       1.769   7.035  20.112  0.00  0.00    +0.000 A 
ATOM     14  C   UNL     1       1.523   5.882  20.869  0.00  0.00    +0.000 A 
ATOM     15  C   UNL     1       1.588   4.601  20.299  0.00  0.00    +0.000 A 
ATOM     16  C   UNL     1       1.893   4.448  18.942  0.00  0.00    +0.000 A 
ATOM     17  C   UNL     1       2.112   5.585  18.165  0.00  0.00    +0.000 A 
ATOM     18  C   UNL     1       2.087   6.854  18.762  0.00  0.00    +0.000 A 
BRANCH  18  19
ATOM     19  N   UNL     1       2.581   7.936  17.954  0.00  0.00    +0.000 N 
ATOM     20  O   UNL     1       3.751   7.857  17.547  0.00  0.00    +0.000 OA
ATOM     21  O   UNL     1       1.788   8.858  17.699  0.00  0.00    +0.000 OA
ENDBRANCH  18  19
BRANCH  13  23
ATOM     22  C   UNL     1       0.489   8.637  21.328  0.00  0.00    +0.000 C 
ATOM     23  O   UNL     1       1.753   8.197  20.829  0.00  0.00    +0.000 OA
ENDBRANCH  13  23
ENDBRANCH   1  16
TORSDOF 4
ENDMDL
MODEL 3
REMARK VINA RESULT:      -8.0      1.970      4.016
REMARK  Name = 
REMARK  5 active torsions:
REMARK  status: ('A' for Active; 'I' for Inactive)
REMARK    1  A    between atoms: C_1  and  O_2
REMARK    2  A    between atoms: O_2  and  C_3
REMARK    3  A    between atoms: C_6  and  C_7
REMARK    4  A    between atoms: C_8  and  C_9
REMARK    5  A    between atoms: C_20  and  N_21
REMARK                            x       y       z     vdW  Elec       q    Type
REMARK                         _______ _______ _______ _____ _____    ______ ____
ROOT
ATOM      1  C   UNL     1       3.586   7.955  17.564  0.00  0.00    +0.000 C 
ATOM      2  C   UNL     1       2.520   7.693  18.340  0.00  0.00    +0.000 C 
ENDROOT
BRANCH   2   3
ATOM      3  C   UNL     1       2.076   6.351  18.705  0.00  0.00    +0.000 A 
ATOM      4  C   UNL     1       1.624   5.503  17.694  0.00  0.00    +0.000 A 
ATOM      5  C   UNL     1       1.419   4.151  17.958  0.00  0.00    +0.000 A 
ATOM      6  C   UNL     1       1.669   3.635  19.237  0.00  0.00    +0.000 A 
ATOM      7  C   UNL     1       1.657   2.254  19.470  0.00  0.00    +0.000 A 
ATOM      8  C   UNL     1       1.928   1.746  20.740  0.00  0.00    +0.000 A 
ATOM      9  C   UNL     1       2.138   2.616  21.806  0.00  0.00    +0.000 A 
ATOM     10  C   UNL     1       2.154   3.995  21.591  0.00  0.00    +0.000 A 
ATOM     11  C   UNL     1       1.981   4.517  20.298  0.00  0.00    +0.000 A 
ATOM     12  C   UNL     1       2.178   5.879  20.018  0.00  0.00    +0.000 A 
ENDBRANCH   2   3
BRANCH   1  16
ATOM     13  C   UNL     1       6.690   5.467  15.907  0.00  0.00    +0.000 A 
ATOM     14  C   UNL     1       5.674   5.979  15.089  0.00  0.00    +0.000 A 
ATOM     15  C   UNL     1       4.622   6.744  15.615  0.00  0.00    +0.000 A 
ATOM     16  C   UNL     1       4.557   7.005  16.988  0.00  0.00    +0.000 A 
ATOM     17  C   UNL     1       5.542   6.478  17.824  0.00  0.00    +0.000 A 
ATOM     18  C   UNL     1       6.610   5.754  17.275  0.00  0.00    +0.000 A 
BRANCH  18  19
ATOM     19  N   UNL     1       7.705   5.482  18.165  0.00  0.00    +0.000 N 
ATOM     20  O   UNL     1       8.153   6.433  18.827  0.00  0.00    +0.000 OA
ATOM     21  O   UNL     1       8.104   4.307  18.227  0.00  0.00    +0.000 OA
ENDBRANCH  18  19
BRANCH  13  23
ATOM     22  C   UNL     1       7.573   4.747  13.814  0.00  0.00    +0.000 C 
ATOM     23  O   UNL     1       7.687   4.820  15.236  0.00  0.00    +0.000 OA
ENDBRANCH  13  23
ENDBRANCH   1  16
TORSDOF 4
ENDMDL
MODEL 4
REMARK VINA RESULT:      -8.0      3.544      6.474
REMARK  Name = 
REMARK  5 active torsions:
REMARK  status: ('A' for Active; 'I' for Inactive)
REMARK    1  A    between atoms: C_1  and  O_2
REMARK    2  A    between atoms: O_2  and  C_3
REMARK    3  A    between atoms: C_6  and  C_7
REMARK    4  A    between atoms: C_8  and  C_9
REMARK    5  A    between atoms: C_20  and  N_21
REMARK                            x       y       z     vdW  Elec       q    Type
REMARK                         _______ _______ _______ _____ _____    ______ ____
ROOT
ATOM      1  C   UNL     1       1.903   5.389  20.822  0.00  0.00    +0.000 C 
ATOM      2  C   UNL     1       2.509   4.229  20.517  0.00  0.00    +0.000 C 
ENDROOT
BRANCH   2   3
ATOM      3  C   UNL     1       3.316   4.010  19.320  0.00  0.00    +0.000 A 
ATOM      4  C   UNL     1       2.678   3.570  18.160  0.00  0.00    +0.000 A 
ATOM      5  C   UNL     1       3.358   3.578  16.946  0.00  0.00    +0.000 A 
ATOM      6  C   UNL     1       4.683   4.029  16.880  0.00  0.00    +0.000 A 
ATOM      7  C   UNL     1       5.315   4.228  15.645  0.00  0.00    +0.000 A 
ATOM      8  C   UNL     1       6.626   4.699  15.586  0.00  0.00    +0.000 A 
ATOM      9  C   UNL     1       7.344   4.902  16.761  0.00  0.00    +0.000 A 
ATOM     10  C   UNL     1       6.729   4.710  18.000  0.00  0.00    +0.000 A 
ATOM     11  C   UNL     1       5.378   4.332  18.073  0.00  0.00    +0.000 A 
ATOM     12  C   UNL     1       4.681   4.313  19.292  0.00  0.00    +0.000 A 
ENDBRANCH   2   3
BRANCH   1  16
ATOM     13  C   UNL     1       1.697   9.113  18.665  0.00  0.00    +0.000 A 
ATOM     14  C   UNL     1       2.232   7.968  18.060  0.00  0.00    +0.000 A 
ATOM     15  C   UNL     1       2.361   6.759  18.761  0.00  0.00    +0.000 A 
ATOM     16  C   UNL     1       1.965   6.674  20.100  0.00  0.00    +0.000 A 
ATOM     17  C   UNL     1       1.459   7.811  20.729  0.00  0.00    +0.000 A 
ATOM     18  C   UNL     1       1.294   8.998  20.000  0.00  0.00    +0.000 A 
BRANCH  18  19
ATOM     19  N   UNL     1       0.527  10.028  20.645  0.00  0.00    +0.000 N 
ATOM     20  O   UNL     1       1.098  10.707  21.514  0.00  0.00    +0.000 OA
ATOM     21  O   UNL     1      -0.645  10.181  20.263  0.00  0.00    +0.000 OA
ENDBRANCH  18  19
BRANCH  13  23
ATOM     22  C   UNL     1       2.336  11.343  18.118  0.00  0.00    +0.000 C 
ATOM     23  O   UNL     1       1.555  10.183  17.829  0.00  0.00    +0.000 OA
ENDBRANCH  13  23
ENDBRANCH   1  16
TORSDOF 4
ENDMDL
MODEL 5
REMARK VINA RESULT:      -7.9      1.679      3.222
REMARK  Name = 
REMARK  5 active torsions:
REMARK  status: ('A' for Active; 'I' for Inactive)
REMARK    1  A    between atoms: C_1  and  O_2
REMARK    2  A    between atoms: O_2  and  C_3
REMARK    3  A    between atoms: C_6  and  C_7
REMARK    4  A    between atoms: C_8  and  C_9
REMARK    5  A    between atoms: C_20  and  N_21
REMARK                            x       y       z     vdW  Elec       q    Type
REMARK                         _______ _______ _______ _____ _____    ______ ____
ROOT
ATOM      1  C   UNL     1       3.931   2.666  17.364  0.00  0.00    +0.000 C 
ATOM      2  C   UNL     1       2.749   2.665  18.005  0.00  0.00    +0.000 C 
ENDROOT
BRANCH   2   3
ATOM      3  C   UNL     1       2.172   3.828  18.672  0.00  0.00    +0.000 A 
ATOM      4  C   UNL     1       1.688   3.677  19.972  0.00  0.00    +0.000 A 
ATOM      5  C   UNL     1       1.353   4.798  20.725  0.00  0.00    +0.000 A 
ATOM      6  C   UNL     1       1.502   6.083  20.186  0.00  0.00    +0.000 A 
ATOM      7  C   UNL     1       1.358   7.221  20.990  0.00  0.00    +0.000 A 
ATOM      8  C   UNL     1       1.530   8.496  20.453  0.00  0.00    +0.000 A 
ATOM      9  C   UNL     1       1.773   8.649  19.091  0.00  0.00    +0.000 A 
ATOM     10  C   UNL     1       1.921   7.525  18.276  0.00  0.00    +0.000 A 
ATOM     11  C   UNL     1       1.849   6.233  18.823  0.00  0.00    +0.000 A 
ATOM     12  C   UNL     1       2.178   5.093  18.073  0.00  0.00    +0.000 A 
ENDBRANCH   2   3
BRANCH   1  16
ATOM     13  C   UNL     1       6.889   5.714  16.636  0.00  0.00    +0.000 A 
ATOM     14  C   UNL     1       6.365   5.521  17.921  0.00  0.00    +0.000 A 
ATOM     15  C   UNL     1       5.361   4.574  18.172  0.00  0.00    +0.000 A 
ATOM     16  C   UNL     1       4.845   3.800  17.127  0.00  0.00    +0.000 A 
ATOM     17  C   UNL     1       5.331   3.998  15.834  0.00  0.00    +0.000 A 
ATOM     18  C   UNL     1       6.366   4.916  15.611  0.00  0.00    +0.000 A 
BRANCH  18  19
ATOM     19  N   UNL     1       6.982   4.863  14.314  0.00  0.00    +0.000 N 
ATOM     20  O   UNL     1       6.495   4.080  13.482  0.00  0.00    +0.000 OA
ATOM     21  O   UNL     1       7.940   5.628  14.111  0.00  0.00    +0.000 OA
ENDBRANCH  18  19
BRANCH  13  23
ATOM     22  C   UNL     1       7.829   7.766  17.401  0.00  0.00    +0.000 C 
ATOM     23  O   UNL     1       7.919   6.607  16.571  0.00  0.00    +0.000 OA
ENDBRANCH  13  23
ENDBRANCH   1  16
TORSDOF 4
ENDMDL
MODEL 6
REMARK VINA RESULT:      -7.8      4.670      7.482
REMARK  Name = 
REMARK  5 active torsions:
REMARK  status: ('A' for Active; 'I' for Inactive)
REMARK    1  A    between atoms: C_1  and  O_2
REMARK    2  A    between atoms: O_2  and  C_3
REMARK    3  A    between atoms: C_6  and  C_7
REMARK    4  A    between atoms: C_8  and  C_9
REMARK    5  A    between atoms: C_20  and  N_21
REMARK                            x       y       z     vdW  Elec       q    Type
REMARK                         _______ _______ _______ _____ _____    ______ ____
ROOT
ATOM      1  C   UNL     1       2.742   8.636  17.764  0.00  0.00    +0.000 C 
ATOM      2  C   UNL     1       3.437   7.553  17.375  0.00  0.00    +0.000 C 
ENDROOT
BRANCH   2   3
ATOM      3  C   UNL     1       3.367   6.250  18.029  0.00  0.00    +0.000 A 
ATOM      4  C   UNL     1       4.386   5.895  18.913  0.00  0.00    +0.000 A 
ATOM      5  C   UNL     1       4.241   4.779  19.732  0.00  0.00    +0.000 A 
ATOM      6  C   UNL     1       3.071   4.009  19.677  0.00  0.00    +0.000 A 
ATOM      7  C   UNL     1       2.825   3.006  20.624  0.00  0.00    +0.000 A 
ATOM      8  C   UNL     1       1.649   2.258  20.576  0.00  0.00    +0.000 A 
ATOM      9  C   UNL     1       0.743   2.453  19.538  0.00  0.00    +0.000 A 
ATOM     10  C   UNL     1       0.973   3.449  18.587  0.00  0.00    +0.000 A 
ATOM     11  C   UNL     1       2.104   4.277  18.680  0.00  0.00    +0.000 A 
ATOM     12  C   UNL     1       2.268   5.402  17.856  0.00  0.00    +0.000 A 
ENDBRANCH   2   3
BRANCH   1  16
ATOM     13  C   UNL     1      -0.016   9.290  21.009  0.00  0.00    +0.000 A 
ATOM     14  C   UNL     1       0.985   8.315  21.110  0.00  0.00    +0.000 A 
ATOM     15  C   UNL     1       1.858   8.045  20.045  0.00  0.00    +0.000 A 
ATOM     16  C   UNL     1       1.739   8.744  18.839  0.00  0.00    +0.000 A 
ATOM     17  C   UNL     1       0.729   9.698  18.708  0.00  0.00    +0.000 A 
ATOM     18  C   UNL     1      -0.105   9.986  19.798  0.00  0.00    +0.000 A 
BRANCH  18  19
ATOM     19  N   UNL     1      -0.931  11.154  19.662  0.00  0.00    +0.000 N 
ATOM     20  O   UNL     1      -0.547  12.194  20.223  0.00  0.00    +0.000 OA
ATOM     21  O   UNL     1      -1.956  11.044  18.969  0.00  0.00    +0.000 OA
ENDBRANCH  18  19
BRANCH  13  23
ATOM     22  C   UNL     1       0.015   9.548  23.377  0.00  0.00    +0.000 C 
ATOM     23  O   UNL     1      -0.725   9.496  22.157  0.00  0.00    +0.000 OA
ENDBRANCH  13  23
ENDBRANCH   1  16
TORSDOF 4
ENDMDL
MODEL 7
REMARK VINA RESULT:      -7.8      1.801      3.674
REMARK  Name = 
REMARK  5 active torsions:
REMARK  status: ('A' for Active; 'I' for Inactive)
REMARK    1  A    between atoms: C_1  and  O_2
REMARK    2  A    between atoms: O_2  and  C_3
REMARK    3  A    between atoms: C_6  and  C_7
REMARK    4  A    between atoms: C_8  and  C_9
REMARK    5  A    between atoms: C_20  and  N_21
REMARK                            x       y       z     vdW  Elec       q    Type
REMARK                         _______ _______ _______ _____ _____    ______ ____
ROOT
ATOM      1  C   UNL     1       2.951   7.963  17.303  0.00  0.00    +0.000 C 
ATOM      2  C   UNL     1       2.207   8.987  17.756  0.00  0.00    +0.000 C 
ENDROOT
BRANCH   2   3
ATOM      3  C   UNL     1       1.467   8.975  19.014  0.00  0.00    +0.000 A 
ATOM      4  C   UNL     1       1.814   8.032  19.980  0.00  0.00    +0.000 A 
ATOM      5  C   UNL     1       1.303   8.137  21.271  0.00  0.00    +0.000 A 
ATOM      6  C   UNL     1       0.442   9.190  21.608  0.00  0.00    +0.000 A 
ATOM      7  C   UNL     1       0.077   9.423  22.940  0.00  0.00    +0.000 A 
ATOM      8  C   UNL     1      -0.762  10.486  23.271  0.00  0.00    +0.000 A 
ATOM      9  C   UNL     1      -1.306  11.280  22.265  0.00  0.00    +0.000 A 
ATOM     10  C   UNL     1      -0.951  11.062  20.932  0.00  0.00    +0.000 A 
ATOM     11  C   UNL     1      -0.029  10.058  20.596  0.00  0.00    +0.000 A 
ATOM     12  C   UNL     1       0.489   9.936  19.296  0.00  0.00    +0.000 A 
ENDBRANCH   2   3
BRANCH   1  16
ATOM     13  C   UNL     1       3.995   4.105  18.914  0.00  0.00    +0.000 A 
ATOM     14  C   UNL     1       2.679   4.380  18.517  0.00  0.00    +0.000 A 
ATOM     15  C   UNL     1       2.303   5.646  18.043  0.00  0.00    +0.000 A 
ATOM     16  C   UNL     1       3.244   6.679  17.967  0.00  0.00    +0.000 A 
ATOM     17  C   UNL     1       4.552   6.434  18.385  0.00  0.00    +0.000 A 
ATOM     18  C   UNL     1       4.920   5.150  18.813  0.00  0.00    +0.000 A 
BRANCH  18  19
ATOM     19  N   UNL     1       6.330   4.922  18.969  0.00  0.00    +0.000 N 
ATOM     20  O   UNL     1       6.868   5.350  20.003  0.00  0.00    +0.000 OA
ATOM     21  O   UNL     1       6.902   4.286  18.068  0.00  0.00    +0.000 OA
ENDBRANCH  18  19
BRANCH  13  23
ATOM     22  C   UNL     1       3.775   2.396  20.560  0.00  0.00    +0.000 C 
ATOM     23  O   UNL     1       4.221   2.806  19.266  0.00  0.00    +0.000 OA
ENDBRANCH  13  23
ENDBRANCH   1  16
TORSDOF 4
ENDMDL
MODEL 8
REMARK VINA RESULT:      -7.8      2.310      4.046
REMARK  Name = 
REMARK  5 active torsions:
REMARK  status: ('A' for Active; 'I' for Inactive)
REMARK    1  A    between atoms: C_1  and  O_2
REMARK    2  A    between atoms: O_2  and  C_3
REMARK    3  A    between atoms: C_6  and  C_7
REMARK    4  A    between atoms: C_8  and  C_9
REMARK    5  A    between atoms: C_20  and  N_21
REMARK                            x       y       z     vdW  Elec       q    Type
REMARK                         _______ _______ _______ _____ _____    ______ ____
ROOT
ATOM      1  C   UNL     1       3.012   7.742  17.564  0.00  0.00    +0.000 C 
ATOM      2  C   UNL     1       2.519   8.879  18.086  0.00  0.00    +0.000 C 
ENDROOT
BRANCH   2   3
ATOM      3  C   UNL     1       1.621   8.936  19.235  0.00  0.00    +0.000 A 
ATOM      4  C   UNL     1       1.772   7.987  20.246  0.00  0.00    +0.000 A 
ATOM      5  C   UNL     1       1.106   8.146  21.457  0.00  0.00    +0.000 A 
ATOM      6  C   UNL     1       0.282   9.260  21.670  0.00  0.00    +0.000 A 
ATOM      7  C   UNL     1      -0.237   9.538  22.941  0.00  0.00    +0.000 A 
ATOM      8  C   UNL     1      -1.038  10.660  23.151  0.00  0.00    +0.000 A 
ATOM      9  C   UNL     1      -1.389  11.473  22.078  0.00  0.00    +0.000 A 
ATOM     10  C   UNL     1      -0.879  11.211  20.805  0.00  0.00    +0.000 A 
ATOM     11  C   UNL     1       0.009  10.142  20.599  0.00  0.00    +0.000 A 
ATOM     12  C   UNL     1       0.683   9.965  19.380  0.00  0.00    +0.000 A 
ENDBRANCH   2   3
BRANCH   1  16
ATOM     13  C   UNL     1       2.718   3.588  18.670  0.00  0.00    +0.000 A 
ATOM     14  C   UNL     1       1.625   4.252  18.098  0.00  0.00    +0.000 A 
ATOM     15  C   UNL     1       1.678   5.618  17.783  0.00  0.00    +0.000 A 
ATOM     16  C   UNL     1       2.835   6.359  18.047  0.00  0.00    +0.000 A 
ATOM     17  C   UNL     1       3.924   5.723  18.643  0.00  0.00    +0.000 A 
ATOM     18  C   UNL     1       3.868   4.348  18.910  0.00  0.00    +0.000 A 
BRANCH  18  19
ATOM     19  N   UNL     1       5.114   3.729  19.272  0.00  0.00    +0.000 N 
ATOM     20  O   UNL     1       5.070   2.783  20.075  0.00  0.00    +0.000 OA
ATOM     21  O   UNL     1       6.142   4.170  18.731  0.00  0.00    +0.000 OA
ENDBRANCH  18  19
BRANCH  13  23
ATOM     22  C   UNL     1       1.199   1.777  18.973  0.00  0.00    +0.000 C 
ATOM     23  O   UNL     1       2.541   2.245  18.836  0.00  0.00    +0.000 OA
ENDBRANCH  13  23
ENDBRANCH   1  16
TORSDOF 4
ENDMDL
MODEL 9
REMARK VINA RESULT:      -7.7      3.456      4.969
REMARK  Name = 
REMARK  5 active torsions:
REMARK  status: ('A' for Active; 'I' for Inactive)
REMARK    1  A    between atoms: C_1  and  O_2
REMARK    2  A    between atoms: O_2  and  C_3
REMARK    3  A    between atoms: C_6  and  C_7
REMARK    4  A    between atoms: C_8  and  C_9
REMARK    5  A    between atoms: C_20  and  N_21
REMARK                            x       y       z     vdW  Elec       q    Type
REMARK                         _______ _______ _______ _____ _____    ______ ____
ROOT
ATOM      1  C   UNL     1       7.377   5.317  17.621  0.00  0.00    +0.000 C 
ATOM      2  C   UNL     1       6.633   5.486  18.728  0.00  0.00    +0.000 C 
ENDROOT
BRANCH   2   3
ATOM      3  C   UNL     1       5.208   5.185  18.817  0.00  0.00    +0.000 A 
ATOM      4  C   UNL     1       4.304   6.071  18.231  0.00  0.00    +0.000 A 
ATOM      5  C   UNL     1       2.968   5.708  18.084  0.00  0.00    +0.000 A 
ATOM      6  C   UNL     1       2.525   4.453  18.520  0.00  0.00    +0.000 A 
ATOM      7  C   UNL     1       1.238   3.995  18.206  0.00  0.00    +0.000 A 
ATOM      8  C   UNL     1       0.810   2.736  18.624  0.00  0.00    +0.000 A 
ATOM      9  C   UNL     1       1.637   1.952  19.424  0.00  0.00    +0.000 A 
ATOM     10  C   UNL     1       2.922   2.393  19.745  0.00  0.00    +0.000 A 
ATOM     11  C   UNL     1       3.402   3.615  19.248  0.00  0.00    +0.000 A 
ATOM     12  C   UNL     1       4.745   3.998  19.394  0.00  0.00    +0.000 A 
ENDBRANCH   2   3
BRANCH   1  16
ATOM     13  C   UNL     1       6.064   4.009  13.731  0.00  0.00    +0.000 A 
ATOM     14  C   UNL     1       5.349   3.652  14.882  0.00  0.00    +0.000 A 
ATOM     15  C   UNL     1       5.789   4.018  16.164  0.00  0.00    +0.000 A 
ATOM     16  C   UNL     1       6.972   4.747  16.322  0.00  0.00    +0.000 A 
ATOM     17  C   UNL     1       7.714   5.087  15.191  0.00  0.00    +0.000 A 
ATOM     18  C   UNL     1       7.236   4.752  13.916  0.00  0.00    +0.000 A 
BRANCH  18  19
ATOM     19  N   UNL     1       7.917   5.366  12.810  0.00  0.00    +0.000 N 
ATOM     20  O   UNL     1       8.910   6.066  13.068  0.00  0.00    +0.000 OA
ATOM     21  O   UNL     1       7.479   5.127  11.673  0.00  0.00    +0.000 OA
ENDBRANCH  18  19
BRANCH  13  23
ATOM     22  C   UNL     1       5.839   2.403  11.985  0.00  0.00    +0.000 C 
ATOM     23  O   UNL     1       5.462   3.657  12.558  0.00  0.00    +0.000 OA
ENDBRANCH  13  23
ENDBRANCH   1  16
TORSDOF 4
ENDMDL
