MODEL 1
REMARK VINA RESULT:      -8.1      0.000      0.000
REMARK  Name = 
REMARK  9 active torsions:
REMARK  status: ('A' for Active; 'I' for Inactive)
REMARK    1  A    between atoms: C_2  and  O_3
REMARK    2  A    between atoms: C_2  and  C_4
REMARK    3  A    between atoms: C_4  and  C_5
REMARK    4  A    between atoms: C_5  and  C_6
REMARK    5  A    between atoms: C_7  and  C_8
REMARK    6  A    between atoms: C_8  and  C_9
REMARK    7  A    between atoms: C_12  and  C_13
REMARK    8  A    between atoms: C_16  and  N_17
REMARK    9  A    between atoms: C_23  and  C_24
REMARK                            x       y       z     vdW  Elec       q    Type
REMARK                         _______ _______ _______ _____ _____    ______ ____
ROOT
ATOM      1  C   UNL     1       4.956   3.654  18.036  0.00  0.00    +0.000 C 
ATOM      2  C   UNL     1       4.695   4.102  19.480  0.00  0.00    +0.000 C 
ATOM      3  O   UNL     1       3.787   5.193  19.535  0.00  0.00    +0.000 OA
ATOM      4  C   UNL     1       4.203   6.298  18.736  0.00  0.00    +0.000 C 
ATOM      5  O   UNL     1       4.432   5.936  17.372  0.00  0.00    +0.000 OA
ATOM      6  C   UNL     1       5.421   4.909  17.265  0.00  0.00    +0.000 C 
ENDROOT
BRANCH   4   7
ATOM      7  C   UNL     1       3.085   7.326  18.825  0.00  0.00    +0.000 A 
ATOM      8  C   UNL     1       2.275   7.389  19.973  0.00  0.00    +0.000 A 
ATOM      9  C   UNL     1       1.208   8.291  20.053  0.00  0.00    +0.000 A 
ATOM     10  C   UNL     1       0.932   9.133  18.970  0.00  0.00    +0.000 A 
ATOM     11  C   UNL     1       1.715   9.078  17.813  0.00  0.00    +0.000 A 
ATOM     12  C   UNL     1       2.784   8.177  17.746  0.00  0.00    +0.000 A 
BRANCH  10  13
ATOM     13  N   UNL     1      -0.191  10.075  19.043  0.00  0.00    +0.000 N 
ATOM     14  O   UNL     1      -0.815  10.314  18.000  0.00  0.00    +0.000 OA
ATOM     15  O   UNL     1      -0.450  10.584  20.141  0.00  0.00    +0.000 OA
ENDBRANCH  10  13
ENDBRANCH   4   7
BRANCH   6  16
ATOM     16  C   UNL     1       5.894   4.769  15.829  0.00  0.00    +0.000 A 
ATOM     17  C   UNL     1       5.284   3.972  14.855  0.00  0.00    +0.000 A 
ATOM     18  C   UNL     1       5.817   3.878  13.571  0.00  0.00    +0.000 A 
ATOM     19  C   UNL     1       6.998   4.540  13.300  0.00  0.00    +0.000 A 
ATOM     20  N   UNL     1       7.652   5.286  14.212  0.00  0.00    +0.000 NA
ATOM     21  C   UNL     1       7.082   5.392  15.438  0.00  0.00    +0.000 A 
ENDBRANCH   6  16
BRANCH   1  22
ATOM     22  C   UNL     1       3.726   2.869  17.495  0.00  0.00    +0.000 C 
BRANCH  22  24
ATOM     23  C   UNL     1       1.314   3.564  17.912  0.00  0.00    +0.000 C 
ATOM     24  C   UNL     1       2.454   3.610  17.202  0.00  0.00    +0.000 C 
BRANCH  23  25
ATOM     25  C   UNL     1       1.073   2.775  19.167  0.00  0.00    +0.000 C 
BRANCH  25  26
ATOM     26  C   UNL     1       0.796   3.725  20.332  0.00  0.00    +0.000 C 
BRANCH  26  28
ATOM     27  O   UNL     1       1.720   2.319  22.073  0.00  0.00    +0.000 OA
ATOM     28  C   UNL     1       1.672   3.404  21.515  0.00  0.00    +0.000 C 
BRANCH  28  29
ATOM     29  O   UNL     1       2.464   4.438  21.879  0.00  0.00    +0.000 OA
ATOM     30  H   UNL     1       2.634   4.495  22.839  0.00  0.00    +0.000 HD
ENDBRANCH  28  29
ENDBRANCH  26  28
ENDBRANCH  25  26
ENDBRANCH  23  25
ENDBRANCH  22  24
ENDBRANCH   1  22
TORSDOF 9
ENDMDL
MODEL 2
REMARK VINA RESULT:      -8.0      0.427      1.248
REMARK  Name = 
REMARK  9 active torsions:
REMARK  status: ('A' for Active; 'I' for Inactive)
REMARK    1  A    between atoms: C_2  and  O_3
REMARK    2  A    between atoms: C_2  and  C_4
REMARK    3  A    between atoms: C_4  and  C_5
REMARK    4  A    between atoms: C_5  and  C_6
REMARK    5  A    between atoms: C_7  and  C_8
REMARK    6  A    between atoms: C_8  and  C_9
REMARK    7  A    between atoms: C_12  and  C_13
REMARK    8  A    between atoms: C_16  and  N_17
REMARK    9  A    between atoms: C_23  and  C_24
REMARK                            x       y       z     vdW  Elec       q    Type
REMARK                         _______ _______ _______ _____ _____    ______ ____
ROOT
ATOM      1  C   UNL     1       4.881   3.787  18.204  0.00  0.00    +0.000 C 
ATOM      2  C   UNL     1       4.566   4.250  19.633  0.00  0.00    +0.000 C 
ATOM      3  O   UNL     1       3.631   5.318  19.646  0.00  0.00    +0.000 OA
ATOM      4  C   UNL     1       4.043   6.421  18.843  0.00  0.00    +0.000 C 
ATOM      5  O   UNL     1       4.320   6.046  17.492  0.00  0.00    +0.000 OA
ATOM      6  C   UNL     1       5.337   5.042  17.429  0.00  0.00    +0.000 C 
ENDROOT
BRANCH   4   7
ATOM      7  C   UNL     1       2.898   7.423  18.883  0.00  0.00    +0.000 A 
ATOM      8  C   UNL     1       2.693   8.302  17.804  0.00  0.00    +0.000 A 
ATOM      9  C   UNL     1       1.679   9.266  17.843  0.00  0.00    +0.000 A 
ATOM     10  C   UNL     1       0.866   9.369  18.978  0.00  0.00    +0.000 A 
ATOM     11  C   UNL     1       1.062   8.515  20.068  0.00  0.00    +0.000 A 
ATOM     12  C   UNL     1       2.073   7.549  20.015  0.00  0.00    +0.000 A 
BRANCH  10  13
ATOM     13  N   UNL     1      -0.193  10.383  19.029  0.00  0.00    +0.000 N 
ATOM     14  O   UNL     1      -0.306  11.048  20.069  0.00  0.00    +0.000 OA
ATOM     15  O   UNL     1      -0.917  10.516  18.036  0.00  0.00    +0.000 OA
ENDBRANCH  10  13
ENDBRANCH   4   7
BRANCH   6  16
ATOM     16  C   UNL     1       5.855   4.893  16.009  0.00  0.00    +0.000 A 
ATOM     17  C   UNL     1       5.225   4.165  14.995  0.00  0.00    +0.000 A 
ATOM     18  C   UNL     1       5.800   4.055  13.730  0.00  0.00    +0.000 A 
ATOM     19  C   UNL     1       7.039   4.627  13.520  0.00  0.00    +0.000 A 
ATOM     20  N   UNL     1       7.712   5.302  14.473  0.00  0.00    +0.000 NA
ATOM     21  C   UNL     1       7.103   5.429  15.678  0.00  0.00    +0.000 A 
ENDBRANCH   6  16
BRANCH   1  22
ATOM     22  C   UNL     1       3.686   2.965  17.640  0.00  0.00    +0.000 C 
BRANCH  22  24
ATOM     23  C   UNL     1       1.251   3.515  18.133  0.00  0.00    +0.000 C 
ATOM     24  C   UNL     1       2.371   3.649  17.402  0.00  0.00    +0.000 C 
BRANCH  23  25
ATOM     25  C   UNL     1       1.079   2.665  19.359  0.00  0.00    +0.000 C 
BRANCH  25  26
ATOM     26  C   UNL     1       0.938   3.558  20.593  0.00  0.00    +0.000 C 
BRANCH  26  28
ATOM     27  O   UNL     1       2.724   3.071  22.153  0.00  0.00    +0.000 OA
ATOM     28  C   UNL     1       1.565   2.916  21.803  0.00  0.00    +0.000 C 
BRANCH  28  29
ATOM     29  O   UNL     1       0.688   2.174  22.518  0.00  0.00    +0.000 OA
ATOM     30  H   UNL     1       0.276   1.445  22.015  0.00  0.00    +0.000 HD
ENDBRANCH  28  29
ENDBRANCH  26  28
ENDBRANCH  25  26
ENDBRANCH  23  25
ENDBRANCH  22  24
ENDBRANCH   1  22
TORSDOF 9
ENDMDL
MODEL 3
REMARK VINA RESULT:      -7.8      1.957      2.809
REMARK  Name = 
REMARK  9 active torsions:
REMARK  status: ('A' for Active; 'I' for Inactive)
REMARK    1  A    between atoms: C_2  and  O_3
REMARK    2  A    between atoms: C_2  and  C_4
REMARK    3  A    between atoms: C_4  and  C_5
REMARK    4  A    between atoms: C_5  and  C_6
REMARK    5  A    between atoms: C_7  and  C_8
REMARK    6  A    between atoms: C_8  and  C_9
REMARK    7  A    between atoms: C_12  and  C_13
REMARK    8  A    between atoms: C_16  and  N_17
REMARK    9  A    between atoms: C_23  and  C_24
REMARK                            x       y       z     vdW  Elec       q    Type
REMARK                         _______ _______ _______ _____ _____    ______ ____
ROOT
ATOM      1  C   UNL     1       2.570   4.919  19.407  0.00  0.00    +0.000 C 
ATOM      2  C   UNL     1       2.090   5.442  20.767  0.00  0.00    +0.000 C 
ATOM      3  O   UNL     1       1.399   6.677  20.640  0.00  0.00    +0.000 OA
ATOM      4  C   UNL     1       2.166   7.670  19.964  0.00  0.00    +0.000 C 
ATOM      5  O   UNL     1       2.613   7.239  18.676  0.00  0.00    +0.000 OA
ATOM      6  C   UNL     1       3.404   6.052  18.771  0.00  0.00    +0.000 C 
ENDROOT
BRANCH   4   7
ATOM      7  C   UNL     1       1.256   8.882  19.823  0.00  0.00    +0.000 A 
ATOM      8  C   UNL     1       0.495   9.322  20.921  0.00  0.00    +0.000 A 
ATOM      9  C   UNL     1      -0.388  10.401  20.799  0.00  0.00    +0.000 A 
ATOM     10  C   UNL     1      -0.528  11.043  19.563  0.00  0.00    +0.000 A 
ATOM     11  C   UNL     1       0.208  10.613  18.455  0.00  0.00    +0.000 A 
ATOM     12  C   UNL     1       1.093   9.538  18.590  0.00  0.00    +0.000 A 
BRANCH  10  13
ATOM     13  N   UNL     1      -1.459  12.169  19.426  0.00  0.00    +0.000 N 
ATOM     14  O   UNL     1      -1.176  13.057  18.609  0.00  0.00    +0.000 OA
ATOM     15  O   UNL     1      -2.472  12.174  20.136  0.00  0.00    +0.000 OA
ENDBRANCH  10  13
ENDBRANCH   4   7
BRANCH   6  16
ATOM     16  C   UNL     1       4.140   5.793  17.468  0.00  0.00    +0.000 A 
ATOM     17  C   UNL     1       4.422   4.530  16.939  0.00  0.00    +0.000 A 
ATOM     18  C   UNL     1       5.140   4.395  15.752  0.00  0.00    +0.000 A 
ATOM     19  C   UNL     1       5.621   5.535  15.143  0.00  0.00    +0.000 A 
ATOM     20  N   UNL     1       5.418   6.775  15.630  0.00  0.00    +0.000 NA
ATOM     21  C   UNL     1       4.678   6.874  16.763  0.00  0.00    +0.000 A 
ENDBRANCH   6  16
BRANCH   1  22
ATOM     22  C   UNL     1       1.364   4.349  18.604  0.00  0.00    +0.000 C 
BRANCH  22  24
ATOM     23  C   UNL     1       1.583   1.815  18.605  0.00  0.00    +0.000 C 
ATOM     24  C   UNL     1       0.905   2.945  18.868  0.00  0.00    +0.000 C 
BRANCH  23  25
ATOM     25  C   UNL     1       2.957   1.713  18.008  0.00  0.00    +0.000 C 
BRANCH  25  26
ATOM     26  C   UNL     1       3.916   1.081  19.018  0.00  0.00    +0.000 C 
BRANCH  26  28
ATOM     27  O   UNL     1       3.968   2.169  21.180  0.00  0.00    +0.000 OA
ATOM     28  C   UNL     1       4.380   2.093  20.033  0.00  0.00    +0.000 C 
BRANCH  28  29
ATOM     29  O   UNL     1       5.362   2.896  19.564  0.00  0.00    +0.000 OA
ATOM     30  H   UNL     1       5.886   2.506  18.838  0.00  0.00    +0.000 HD
ENDBRANCH  28  29
ENDBRANCH  26  28
ENDBRANCH  25  26
ENDBRANCH  23  25
ENDBRANCH  22  24
ENDBRANCH   1  22
TORSDOF 9
ENDMDL
MODEL 4
REMARK VINA RESULT:      -7.7      3.707      8.810
REMARK  Name = 
REMARK  9 active torsions:
REMARK  status: ('A' for Active; 'I' for Inactive)
REMARK    1  A    between atoms: C_2  and  O_3
REMARK    2  A    between atoms: C_2  and  C_4
REMARK    3  A    between atoms: C_4  and  C_5
REMARK    4  A    between atoms: C_5  and  C_6
REMARK    5  A    between atoms: C_7  and  C_8
REMARK    6  A    between atoms: C_8  and  C_9
REMARK    7  A    between atoms: C_12  and  C_13
REMARK    8  A    between atoms: C_16  and  N_17
REMARK    9  A    between atoms: C_23  and  C_24
REMARK                            x       y       z     vdW  Elec       q    Type
REMARK                         _______ _______ _______ _____ _____    ______ ____
ROOT
ATOM      1  C   UNL     1       0.776  10.347  18.606  0.00  0.00    +0.000 C 
ATOM      2  C   UNL     1       1.879   9.821  17.678  0.00  0.00    +0.000 C 
ATOM      3  O   UNL     1       2.060   8.419  17.820  0.00  0.00    +0.000 OA
ATOM      4  C   UNL     1       2.312   8.030  19.169  0.00  0.00    +0.000 C 
ATOM      5  O   UNL     1       1.294   8.473  20.069  0.00  0.00    +0.000 OA
ATOM      6  C   UNL     1       1.152   9.896  20.034  0.00  0.00    +0.000 C 
ENDROOT
BRANCH   4   7
ATOM      7  C   UNL     1       2.379   6.510  19.162  0.00  0.00    +0.000 A 
ATOM      8  C   UNL     1       2.009   5.784  20.309  0.00  0.00    +0.000 A 
ATOM      9  C   UNL     1       2.114   4.388  20.343  0.00  0.00    +0.000 A 
ATOM     10  C   UNL     1       2.608   3.705  19.226  0.00  0.00    +0.000 A 
ATOM     11  C   UNL     1       2.995   4.408  18.080  0.00  0.00    +0.000 A 
ATOM     12  C   UNL     1       2.879   5.802  18.054  0.00  0.00    +0.000 A 
BRANCH  10  13
ATOM     13  N   UNL     1       2.728   2.242  19.257  0.00  0.00    +0.000 N 
ATOM     14  O   UNL     1       1.689   1.580  19.386  0.00  0.00    +0.000 OA
ATOM     15  O   UNL     1       3.859   1.752  19.160  0.00  0.00    +0.000 OA
ENDBRANCH  10  13
ENDBRANCH   4   7
BRANCH   6  16
ATOM     16  C   UNL     1       0.323  10.380  21.210  0.00  0.00    +0.000 A 
ATOM     17  C   UNL     1      -0.234   9.559  22.196  0.00  0.00    +0.000 A 
ATOM     18  C   UNL     1      -1.015  10.096  23.217  0.00  0.00    +0.000 A 
ATOM     19  C   UNL     1      -1.279  11.450  23.199  0.00  0.00    +0.000 A 
ATOM     20  N   UNL     1      -0.805  12.282  22.251  0.00  0.00    +0.000 NA
ATOM     21  C   UNL     1      -0.012  11.734  21.297  0.00  0.00    +0.000 A 
ENDBRANCH   6  16
BRANCH   1  22
ATOM     22  C   UNL     1      -0.620   9.945  18.047  0.00  0.00    +0.000 C 
BRANCH  22  24
ATOM     23  C   UNL     1      -2.949  10.876  17.624  0.00  0.00    +0.000 C 
ATOM     24  C   UNL     1      -1.802  10.828  18.322  0.00  0.00    +0.000 C 
BRANCH  23  25
ATOM     25  C   UNL     1      -3.305  10.041  16.427  0.00  0.00    +0.000 C 
BRANCH  25  26
ATOM     26  C   UNL     1      -2.999  10.815  15.145  0.00  0.00    +0.000 C 
BRANCH  26  28
ATOM     27  O   UNL     1      -4.544   9.715  13.640  0.00  0.00    +0.000 OA
ATOM     28  C   UNL     1      -3.398  10.026  13.925  0.00  0.00    +0.000 C 
BRANCH  28  29
ATOM     29  O   UNL     1      -2.349   9.733  13.122  0.00  0.00    +0.000 OA
ATOM     30  H   UNL     1      -1.937   8.866  13.302  0.00  0.00    +0.000 HD
ENDBRANCH  28  29
ENDBRANCH  26  28
ENDBRANCH  25  26
ENDBRANCH  23  25
ENDBRANCH  22  24
ENDBRANCH   1  22
TORSDOF 9
ENDMDL
MODEL 5
REMARK VINA RESULT:      -7.6      2.012      2.995
REMARK  Name = 
REMARK  9 active torsions:
REMARK  status: ('A' for Active; 'I' for Inactive)
REMARK    1  A    between atoms: C_2  and  O_3
REMARK    2  A    between atoms: C_2  and  C_4
REMARK    3  A    between atoms: C_4  and  C_5
REMARK    4  A    between atoms: C_5  and  C_6
REMARK    5  A    between atoms: C_7  and  C_8
REMARK    6  A    between atoms: C_8  and  C_9
REMARK    7  A    between atoms: C_12  and  C_13
REMARK    8  A    between atoms: C_16  and  N_17
REMARK    9  A    between atoms: C_23  and  C_24
REMARK                            x       y       z     vdW  Elec       q    Type
REMARK                         _______ _______ _______ _____ _____    ______ ____
ROOT
ATOM      1  C   UNL     1       2.675   4.889  19.609  0.00  0.00    +0.000 C 
ATOM      2  C   UNL     1       1.934   5.388  20.857  0.00  0.00    +0.000 C 
ATOM      3  O   UNL     1       1.246   6.605  20.608  0.00  0.00    +0.000 OA
ATOM      4  C   UNL     1       2.099   7.624  20.092  0.00  0.00    +0.000 C 
ATOM      5  O   UNL     1       2.791   7.217  18.909  0.00  0.00    +0.000 OA
ATOM      6  C   UNL     1       3.582   6.050  19.146  0.00  0.00    +0.000 C 
ENDROOT
BRANCH   4   7
ATOM      7  C   UNL     1       1.198   8.813  19.787  0.00  0.00    +0.000 A 
ATOM      8  C   UNL     1       1.199   9.387  18.503  0.00  0.00    +0.000 A 
ATOM      9  C   UNL     1       0.418  10.513  18.217  0.00  0.00    +0.000 A 
ATOM     10  C   UNL     1      -0.364  11.086  19.225  0.00  0.00    +0.000 A 
ATOM     11  C   UNL     1      -0.370  10.540  20.513  0.00  0.00    +0.000 A 
ATOM     12  C   UNL     1       0.408   9.410  20.787  0.00  0.00    +0.000 A 
BRANCH  10  13
ATOM     13  N   UNL     1      -1.179  12.272  18.934  0.00  0.00    +0.000 N 
ATOM     14  O   UNL     1      -0.602  13.274  18.489  0.00  0.00    +0.000 OA
ATOM     15  O   UNL     1      -2.394  12.208  19.154  0.00  0.00    +0.000 OA
ENDBRANCH  10  13
ENDBRANCH   4   7
BRANCH   6  16
ATOM     16  C   UNL     1       4.557   5.823  18.003  0.00  0.00    +0.000 A 
ATOM     17  C   UNL     1       5.553   4.842  17.978  0.00  0.00    +0.000 A 
ATOM     18  C   UNL     1       6.427   4.738  16.897  0.00  0.00    +0.000 A 
ATOM     19  C   UNL     1       6.326   5.665  15.880  0.00  0.00    +0.000 A 
ATOM     20  N   UNL     1       5.415   6.657  15.872  0.00  0.00    +0.000 NA
ATOM     21  C   UNL     1       4.551   6.703  16.918  0.00  0.00    +0.000 A 
ENDBRANCH   6  16
BRANCH   1  22
ATOM     22  C   UNL     1       1.657   4.296  18.592  0.00  0.00    +0.000 C 
BRANCH  22  24
ATOM     23  C   UNL     1       2.752   2.256  17.537  0.00  0.00    +0.000 C 
ATOM     24  C   UNL     1       2.162   3.461  17.452  0.00  0.00    +0.000 C 
BRANCH  23  25
ATOM     25  C   UNL     1       3.016   1.475  18.792  0.00  0.00    +0.000 C 
BRANCH  25  26
ATOM     26  C   UNL     1       4.402   1.821  19.337  0.00  0.00    +0.000 C 
BRANCH  26  28
ATOM     27  O   UNL     1       3.467   2.257  21.527  0.00  0.00    +0.000 OA
ATOM     28  C   UNL     1       4.400   1.866  20.842  0.00  0.00    +0.000 C 
BRANCH  28  29
ATOM     29  O   UNL     1       5.535   1.369  21.385  0.00  0.00    +0.000 OA
ATOM     30  H   UNL     1       5.434   0.481  21.780  0.00  0.00    +0.000 HD
ENDBRANCH  28  29
ENDBRANCH  26  28
ENDBRANCH  25  26
ENDBRANCH  23  25
ENDBRANCH  22  24
ENDBRANCH   1  22
TORSDOF 9
ENDMDL
MODEL 6
REMARK VINA RESULT:      -7.6      2.619      5.386
REMARK  Name = 
REMARK  9 active torsions:
REMARK  status: ('A' for Active; 'I' for Inactive)
REMARK    1  A    between atoms: C_2  and  O_3
REMARK    2  A    between atoms: C_2  and  C_4
REMARK    3  A    between atoms: C_4  and  C_5
REMARK    4  A    between atoms: C_5  and  C_6
REMARK    5  A    between atoms: C_7  and  C_8
REMARK    6  A    between atoms: C_8  and  C_9
REMARK    7  A    between atoms: C_12  and  C_13
REMARK    8  A    between atoms: C_16  and  N_17
REMARK    9  A    between atoms: C_23  and  C_24
REMARK                            x       y       z     vdW  Elec       q    Type
REMARK                         _______ _______ _______ _____ _____    ______ ____
ROOT
ATOM      1  C   UNL     1       4.354   5.997  17.485  0.00  0.00    +0.000 C 
ATOM      2  C   UNL     1       4.196   7.437  16.978  0.00  0.00    +0.000 C 
ATOM      3  O   UNL     1       3.475   8.242  17.899  0.00  0.00    +0.000 OA
ATOM      4  C   UNL     1       2.205   7.689  18.238  0.00  0.00    +0.000 C 
ATOM      5  O   UNL     1       2.302   6.355  18.744  0.00  0.00    +0.000 OA
ATOM      6  C   UNL     1       2.931   5.485  17.799  0.00  0.00    +0.000 C 
ENDROOT
BRANCH   4   7
ATOM      7  C   UNL     1       1.614   8.608  19.297  0.00  0.00    +0.000 A 
ATOM      8  C   UNL     1       1.490   8.163  20.626  0.00  0.00    +0.000 A 
ATOM      9  C   UNL     1       0.901   8.973  21.604  0.00  0.00    +0.000 A 
ATOM     10  C   UNL     1       0.415  10.237  21.254  0.00  0.00    +0.000 A 
ATOM     11  C   UNL     1       0.515  10.694  19.936  0.00  0.00    +0.000 A 
ATOM     12  C   UNL     1       1.112   9.880  18.967  0.00  0.00    +0.000 A 
BRANCH  10  13
ATOM     13  N   UNL     1      -0.212  11.088  22.273  0.00  0.00    +0.000 N 
ATOM     14  O   UNL     1      -0.528  12.241  21.948  0.00  0.00    +0.000 OA
ATOM     15  O   UNL     1      -0.386  10.609  23.400  0.00  0.00    +0.000 OA
ENDBRANCH  10  13
ENDBRANCH   4   7
BRANCH   6  16
ATOM     16  C   UNL     1       2.732   4.032  18.194  0.00  0.00    +0.000 A 
ATOM     17  C   UNL     1       3.563   2.974  17.814  0.00  0.00    +0.000 A 
ATOM     18  C   UNL     1       3.275   1.665  18.196  0.00  0.00    +0.000 A 
ATOM     19  C   UNL     1       2.116   1.429  18.906  0.00  0.00    +0.000 A 
ATOM     20  N   UNL     1       1.256   2.404  19.262  0.00  0.00    +0.000 NA
ATOM     21  C   UNL     1       1.590   3.671  18.912  0.00  0.00    +0.000 A 
ENDBRANCH   6  16
BRANCH   1  22
ATOM     22  C   UNL     1       5.422   5.949  18.615  0.00  0.00    +0.000 C 
BRANCH  22  24
ATOM     23  C   UNL     1       7.198   4.556  17.440  0.00  0.00    +0.000 C 
ATOM     24  C   UNL     1       6.524   4.932  18.540  0.00  0.00    +0.000 C 
BRANCH  23  25
ATOM     25  C   UNL     1       7.009   5.089  16.049  0.00  0.00    +0.000 C 
BRANCH  25  26
ATOM     26  C   UNL     1       6.335   4.031  15.175  0.00  0.00    +0.000 C 
BRANCH  26  28
ATOM     27  O   UNL     1       6.143   3.625  12.796  0.00  0.00    +0.000 OA
ATOM     28  C   UNL     1       6.639   4.255  13.716  0.00  0.00    +0.000 C 
BRANCH  28  29
ATOM     29  O   UNL     1       7.492   5.285  13.510  0.00  0.00    +0.000 OA
ATOM     30  H   UNL     1       7.312   5.797  12.698  0.00  0.00    +0.000 HD
ENDBRANCH  28  29
ENDBRANCH  26  28
ENDBRANCH  25  26
ENDBRANCH  23  25
ENDBRANCH  22  24
ENDBRANCH   1  22
TORSDOF 9
ENDMDL
MODEL 7
REMARK VINA RESULT:      -7.6      3.882      8.985
REMARK  Name = 
REMARK  9 active torsions:
REMARK  status: ('A' for Active; 'I' for Inactive)
REMARK    1  A    between atoms: C_2  and  O_3
REMARK    2  A    between atoms: C_2  and  C_4
REMARK    3  A    between atoms: C_4  and  C_5
REMARK    4  A    between atoms: C_5  and  C_6
REMARK    5  A    between atoms: C_7  and  C_8
REMARK    6  A    between atoms: C_8  and  C_9
REMARK    7  A    between atoms: C_12  and  C_13
REMARK    8  A    between atoms: C_16  and  N_17
REMARK    9  A    between atoms: C_23  and  C_24
REMARK                            x       y       z     vdW  Elec       q    Type
REMARK                         _______ _______ _______ _____ _____    ______ ____
ROOT
ATOM      1  C   UNL     1       0.436  10.312  18.455  0.00  0.00    +0.000 C 
ATOM      2  C   UNL     1       1.603   9.802  17.599  0.00  0.00    +0.000 C 
ATOM      3  O   UNL     1       1.919   8.450  17.894  0.00  0.00    +0.000 OA
ATOM      4  C   UNL     1       2.183   8.234  19.278  0.00  0.00    +0.000 C 
ATOM      5  O   UNL     1       1.109   8.667  20.117  0.00  0.00    +0.000 OA
ATOM      6  C   UNL     1       0.828  10.056  19.927  0.00  0.00    +0.000 C 
ENDROOT
BRANCH   4   7
ATOM      7  C   UNL     1       2.400   6.737  19.438  0.00  0.00    +0.000 A 
ATOM      8  C   UNL     1       3.113   6.021  18.459  0.00  0.00    +0.000 A 
ATOM      9  C   UNL     1       3.279   4.634  18.559  0.00  0.00    +0.000 A 
ATOM     10  C   UNL     1       2.716   3.947  19.640  0.00  0.00    +0.000 A 
ATOM     11  C   UNL     1       1.991   4.637  20.617  0.00  0.00    +0.000 A 
ATOM     12  C   UNL     1       1.837   6.024  20.511  0.00  0.00    +0.000 A 
BRANCH  10  13
ATOM     13  N   UNL     1       2.878   2.492  19.747  0.00  0.00    +0.000 N 
ATOM     14  O   UNL     1       1.908   1.779  19.452  0.00  0.00    +0.000 OA
ATOM     15  O   UNL     1       3.970   2.058  20.130  0.00  0.00    +0.000 OA
ENDBRANCH  10  13
ENDBRANCH   4   7
BRANCH   6  16
ATOM     16  C   UNL     1      -0.067  10.579  21.037  0.00  0.00    +0.000 A 
ATOM     17  C   UNL     1      -0.762  11.791  21.007  0.00  0.00    +0.000 A 
ATOM     18  C   UNL     1      -1.529  12.203  22.095  0.00  0.00    +0.000 A 
ATOM     19  C   UNL     1      -1.536  11.416  23.229  0.00  0.00    +0.000 A 
ATOM     20  N   UNL     1      -0.851  10.260  23.330  0.00  0.00    +0.000 NA
ATOM     21  C   UNL     1      -0.150   9.867  22.236  0.00  0.00    +0.000 A 
ENDBRANCH   6  16
BRANCH   1  22
ATOM     22  C   UNL     1      -0.903   9.714  17.932  0.00  0.00    +0.000 C 
BRANCH  22  24
ATOM     23  C   UNL     1      -2.883  11.011  17.000  0.00  0.00    +0.000 C 
ATOM     24  C   UNL     1      -2.157  10.532  18.025  0.00  0.00    +0.000 C 
BRANCH  23  25
ATOM     25  C   UNL     1      -2.606  10.813  15.538  0.00  0.00    +0.000 C 
BRANCH  25  26
ATOM     26  C   UNL     1      -3.662   9.889  14.930  0.00  0.00    +0.000 C 
BRANCH  26  28
ATOM     27  O   UNL     1      -4.491  10.020  12.659  0.00  0.00    +0.000 OA
ATOM     28  C   UNL     1      -3.556   9.857  13.428  0.00  0.00    +0.000 C 
BRANCH  28  29
ATOM     29  O   UNL     1      -2.287   9.682  12.993  0.00  0.00    +0.000 OA
ATOM     30  H   UNL     1      -2.086  10.134  12.151  0.00  0.00    +0.000 HD
ENDBRANCH  28  29
ENDBRANCH  26  28
ENDBRANCH  25  26
ENDBRANCH  23  25
ENDBRANCH  22  24
ENDBRANCH   1  22
TORSDOF 9
ENDMDL
MODEL 8
REMARK VINA RESULT:      -7.6      3.940      9.038
REMARK  Name = 
REMARK  9 active torsions:
REMARK  status: ('A' for Active; 'I' for Inactive)
REMARK    1  A    between atoms: C_2  and  O_3
REMARK    2  A    between atoms: C_2  and  C_4
REMARK    3  A    between atoms: C_4  and  C_5
REMARK    4  A    between atoms: C_5  and  C_6
REMARK    5  A    between atoms: C_7  and  C_8
REMARK    6  A    between atoms: C_8  and  C_9
REMARK    7  A    between atoms: C_12  and  C_13
REMARK    8  A    between atoms: C_16  and  N_17
REMARK    9  A    between atoms: C_23  and  C_24
REMARK                            x       y       z     vdW  Elec       q    Type
REMARK                         _______ _______ _______ _____ _____    ______ ____
ROOT
ATOM      1  C   UNL     1       0.500  10.547  18.602  0.00  0.00    +0.000 C 
ATOM      2  C   UNL     1       1.586   9.947  17.699  0.00  0.00    +0.000 C 
ATOM      3  O   UNL     1       1.774   8.563  17.953  0.00  0.00    +0.000 OA
ATOM      4  C   UNL     1       2.055   8.287  19.324  0.00  0.00    +0.000 C 
ATOM      5  O   UNL     1       1.054   8.802  20.205  0.00  0.00    +0.000 OA
ATOM      6  C   UNL     1       0.907  10.217  20.055  0.00  0.00    +0.000 C 
ENDROOT
BRANCH   4   7
ATOM      7  C   UNL     1       2.127   6.772  19.443  0.00  0.00    +0.000 A 
ATOM      8  C   UNL     1       2.614   6.004  18.370  0.00  0.00    +0.000 A 
ATOM      9  C   UNL     1       2.640   4.606  18.438  0.00  0.00    +0.000 A 
ATOM     10  C   UNL     1       2.159   3.961  19.583  0.00  0.00    +0.000 A 
ATOM     11  C   UNL     1       1.656   4.704  20.656  0.00  0.00    +0.000 A 
ATOM     12  C   UNL     1       1.643   6.101  20.580  0.00  0.00    +0.000 A 
BRANCH  10  13
ATOM     13  N   UNL     1       2.174   2.495  19.658  0.00  0.00    +0.000 N 
ATOM     14  O   UNL     1       2.372   1.865  18.609  0.00  0.00    +0.000 OA
ATOM     15  O   UNL     1       1.983   1.969  20.760  0.00  0.00    +0.000 OA
ENDBRANCH  10  13
ENDBRANCH   4   7
BRANCH   6  16
ATOM     16  C   UNL     1       0.101  10.796  21.204  0.00  0.00    +0.000 A 
ATOM     17  C   UNL     1      -0.510  10.050  22.216  0.00  0.00    +0.000 A 
ATOM     18  C   UNL     1      -1.264  10.672  23.209  0.00  0.00    +0.000 A 
ATOM     19  C   UNL     1      -1.447  12.038  23.135  0.00  0.00    +0.000 A 
ATOM     20  N   UNL     1      -0.919  12.802  22.159  0.00  0.00    +0.000 NA
ATOM     21  C   UNL     1      -0.154  12.170  21.234  0.00  0.00    +0.000 A 
ENDBRANCH   6  16
BRANCH   1  22
ATOM     22  C   UNL     1      -0.906  10.098  18.108  0.00  0.00    +0.000 C 
BRANCH  22  24
ATOM     23  C   UNL     1      -2.597  11.203  16.561  0.00  0.00    +0.000 C 
ATOM     24  C   UNL     1      -1.913  11.140  17.717  0.00  0.00    +0.000 C 
BRANCH  23  25
ATOM     25  C   UNL     1      -2.515  10.232  15.419  0.00  0.00    +0.000 C 
BRANCH  25  26
ATOM     26  C   UNL     1      -3.868  10.148  14.711  0.00  0.00    +0.000 C 
BRANCH  26  28
ATOM     27  O   UNL     1      -4.612   9.748  12.442  0.00  0.00    +0.000 OA
ATOM     28  C   UNL     1      -3.698   9.833  13.248  0.00  0.00    +0.000 C 
BRANCH  28  29
ATOM     29  O   UNL     1      -2.402   9.702  12.886  0.00  0.00    +0.000 OA
ATOM     30  H   UNL     1      -1.917   9.009  13.374  0.00  0.00    +0.000 HD
ENDBRANCH  28  29
ENDBRANCH  26  28
ENDBRANCH  25  26
ENDBRANCH  23  25
ENDBRANCH  22  24
ENDBRANCH   1  22
TORSDOF 9
ENDMDL
MODEL 9
REMARK VINA RESULT:      -7.6      2.063      3.060
REMARK  Name = 
REMARK  9 active torsions:
REMARK  status: ('A' for Active; 'I' for Inactive)
REMARK    1  A    between atoms: C_2  and  O_3
REMARK    2  A    between atoms: C_2  and  C_4
REMARK    3  A    between atoms: C_4  and  C_5
REMARK    4  A    between atoms: C_5  and  C_6
REMARK    5  A    between atoms: C_7  and  C_8
REMARK    6  A    between atoms: C_8  and  C_9
REMARK    7  A    between atoms: C_12  and  C_13
REMARK    8  A    between atoms: C_16  and  N_17
REMARK    9  A    between atoms: C_23  and  C_24
REMARK                            x       y       z     vdW  Elec       q    Type
REMARK                         _______ _______ _______ _____ _____    ______ ____
ROOT
ATOM      1  C   UNL     1       2.586   4.941  19.609  0.00  0.00    +0.000 C 
ATOM      2  C   UNL     1       1.790   5.372  20.848  0.00  0.00    +0.000 C 
ATOM      3  O   UNL     1       1.123   6.609  20.639  0.00  0.00    +0.000 OA
ATOM      4  C   UNL     1       2.007   7.648  20.226  0.00  0.00    +0.000 C 
ATOM      5  O   UNL     1       2.751   7.305  19.055  0.00  0.00    +0.000 OA
ATOM      6  C   UNL     1       3.523   6.118  19.259  0.00  0.00    +0.000 C 
ENDROOT
BRANCH   4   7
ATOM      7  C   UNL     1       1.130   8.861  19.950  0.00  0.00    +0.000 A 
ATOM      8  C   UNL     1       1.142   9.465  18.680  0.00  0.00    +0.000 A 
ATOM      9  C   UNL     1       0.384  10.613  18.421  0.00  0.00    +0.000 A 
ATOM     10  C   UNL     1      -0.387  11.178  19.444  0.00  0.00    +0.000 A 
ATOM     11  C   UNL     1      -0.403  10.602  20.718  0.00  0.00    +0.000 A 
ATOM     12  C   UNL     1       0.353   9.451  20.964  0.00  0.00    +0.000 A 
BRANCH  10  13
ATOM     13  N   UNL     1      -1.177  12.386  19.182  0.00  0.00    +0.000 N 
ATOM     14  O   UNL     1      -0.729  13.205  18.366  0.00  0.00    +0.000 OA
ATOM     15  O   UNL     1      -2.244  12.525  19.792  0.00  0.00    +0.000 OA
ENDBRANCH  10  13
ENDBRANCH   4   7
BRANCH   6  16
ATOM     16  C   UNL     1       4.549   5.949  18.152  0.00  0.00    +0.000 A 
ATOM     17  C   UNL     1       4.411   6.429  16.846  0.00  0.00    +0.000 A 
ATOM     18  C   UNL     1       5.394   6.190  15.888  0.00  0.00    +0.000 A 
ATOM     19  C   UNL     1       6.478   5.412  16.240  0.00  0.00    +0.000 A 
ATOM     20  N   UNL     1       6.642   4.887  17.471  0.00  0.00    +0.000 NA
ATOM     21  C   UNL     1       5.689   5.177  18.392  0.00  0.00    +0.000 A 
ENDBRANCH   6  16
BRANCH   1  22
ATOM     22  C   UNL     1       1.614   4.419  18.512  0.00  0.00    +0.000 C 
BRANCH  22  24
ATOM     23  C   UNL     1       2.750   2.341  17.581  0.00  0.00    +0.000 C 
ATOM     24  C   UNL     1       2.144   3.531  17.424  0.00  0.00    +0.000 C 
BRANCH  23  25
ATOM     25  C   UNL     1       3.009   1.633  18.879  0.00  0.00    +0.000 C 
BRANCH  25  26
ATOM     26  C   UNL     1       4.430   1.931  19.359  0.00  0.00    +0.000 C 
BRANCH  26  28
ATOM     27  O   UNL     1       5.513   1.348  21.444  0.00  0.00    +0.000 OA
ATOM     28  C   UNL     1       4.539   1.790  20.855  0.00  0.00    +0.000 C 
BRANCH  28  29
ATOM     29  O   UNL     1       3.453   2.262  21.508  0.00  0.00    +0.000 OA
ATOM     30  H   UNL     1       3.155   1.700  22.249  0.00  0.00    +0.000 HD
ENDBRANCH  28  29
ENDBRANCH  26  28
ENDBRANCH  25  26
ENDBRANCH  23  25
ENDBRANCH  22  24
ENDBRANCH   1  22
TORSDOF 9
ENDMDL
