MODEL 1
REMARK VINA RESULT:      -7.0      0.000      0.000
REMARK  Name = 
REMARK  12 active torsions:
REMARK  status: ('A' for Active; 'I' for Inactive)
REMARK    1  A    between atoms: C_1  and  O_2
REMARK    2  A    between atoms: O_2  and  C_3
REMARK    3  A    between atoms: C_6  and  C_7
REMARK    4  A    between atoms: C_7  and  C_8
REMARK    5  A    between atoms: C_8  and  C_9
REMARK    6  A    between atoms: N_11  and  C_12
REMARK    7  A    between atoms: C_12  and  C_13
REMARK    8  A    between atoms: C_12  and  C_18
REMARK    9  A    between atoms: C_13  and  C_14
REMARK   10  A    between atoms: C_14  and  N_15
REMARK   11  A    between atoms: N_15  and  C_16
REMARK   12  A    between atoms: N_15  and  C_17
REMARK                            x       y       z     vdW  Elec       q    Type
REMARK                         _______ _______ _______ _____ _____    ______ ____
ROOT
ATOM      1  C   UNL     1       1.891   7.740  19.686  0.00  0.00    +0.000 C 
ATOM      2  O   UNL     1       1.759   7.161  20.760  0.00  0.00    +0.000 OA
ATOM      3  N   UNL     1       2.317   7.110  18.534  0.00  0.00    +0.000 N 
ATOM      4  H   UNL     1       2.452   7.660  17.699  0.00  0.00    +0.000 HD
ENDROOT
BRANCH   1   5
ATOM      5  C   UNL     1       1.533   9.198  19.479  0.00  0.00    +0.000 C 
BRANCH   5   6
ATOM      6  C   UNL     1       0.918   9.421  18.099  0.00  0.00    +0.000 C 
BRANCH   6  10
ATOM      7  C   UNL     1      -2.939  11.372  18.315  0.00  0.00    +0.000 A 
ATOM      8  C   UNL     1      -2.696  10.390  17.353  0.00  0.00    +0.000 A 
ATOM      9  C   UNL     1      -1.451   9.759  17.280  0.00  0.00    +0.000 A 
ATOM     10  C   UNL     1      -0.422  10.114  18.162  0.00  0.00    +0.000 A 
ATOM     11  C   UNL     1      -0.662  11.122  19.104  0.00  0.00    +0.000 A 
ATOM     12  C   UNL     1      -1.912  11.744  19.181  0.00  0.00    +0.000 A 
BRANCH   7  14
ATOM     13  C   UNL     1      -4.710  12.314  19.561  0.00  0.00    +0.000 C 
ATOM     14  O   UNL     1      -4.191  11.923  18.294  0.00  0.00    +0.000 OA
ENDBRANCH   7  14
ENDBRANCH   6  10
ENDBRANCH   5   6
ENDBRANCH   1   5
BRANCH   3  15
ATOM     15  C   UNL     1       2.724   5.711  18.509  0.00  0.00    +0.000 C 
BRANCH  15  16
ATOM     16  C   UNL     1       3.794   5.499  17.444  0.00  0.00    +0.000 A 
ATOM     17  C   UNL     1       4.469   6.602  16.894  0.00  0.00    +0.000 A 
ATOM     18  C   UNL     1       5.471   6.425  15.940  0.00  0.00    +0.000 A 
ATOM     19  C   UNL     1       5.808   5.140  15.520  0.00  0.00    +0.000 A 
ATOM     20 CL   UNL     1       7.048   4.919  14.346  0.00  0.00    +0.000 Cl
ATOM     21  C   UNL     1       5.150   4.033  16.045  0.00  0.00    +0.000 A 
ATOM     22  C   UNL     1       4.147   4.212  17.005  0.00  0.00    +0.000 A 
ENDBRANCH  15  16
BRANCH  15  23
ATOM     23  C   UNL     1       1.527   4.769  18.272  0.00  0.00    +0.000 C 
BRANCH  23  24
ATOM     24  C   UNL     1       1.184   3.947  19.523  0.00  0.00    +0.000 C 
BRANCH  24  25
ATOM     25  N   UNL     1       2.359   3.405  20.232  0.00  0.00    +0.000 NA
ATOM     26  C   UNL     1       2.102   3.167  21.654  0.00  0.00    +0.000 C 
ATOM     27  C   UNL     1       2.767   2.146  19.596  0.00  0.00    +0.000 C 
ENDBRANCH  24  25
ENDBRANCH  23  24
ENDBRANCH  15  23
ENDBRANCH   3  15
TORSDOF 9
ENDMDL
MODEL 2
REMARK VINA RESULT:      -7.0      3.953      8.069
REMARK  Name = 
REMARK  12 active torsions:
REMARK  status: ('A' for Active; 'I' for Inactive)
REMARK    1  A    between atoms: C_1  and  O_2
REMARK    2  A    between atoms: O_2  and  C_3
REMARK    3  A    between atoms: C_6  and  C_7
REMARK    4  A    between atoms: C_7  and  C_8
REMARK    5  A    between atoms: C_8  and  C_9
REMARK    6  A    between atoms: N_11  and  C_12
REMARK    7  A    between atoms: C_12  and  C_13
REMARK    8  A    between atoms: C_12  and  C_18
REMARK    9  A    between atoms: C_13  and  C_14
REMARK   10  A    between atoms: C_14  and  N_15
REMARK   11  A    between atoms: N_15  and  C_16
REMARK   12  A    between atoms: N_15  and  C_17
REMARK                            x       y       z     vdW  Elec       q    Type
REMARK                         _______ _______ _______ _____ _____    ______ ____
ROOT
ATOM      1  C   UNL     1       5.271   6.769  17.006  0.00  0.00    +0.000 C 
ATOM      2  O   UNL     1       4.926   7.232  15.923  0.00  0.00    +0.000 OA
ATOM      3  N   UNL     1       4.382   6.239  17.920  0.00  0.00    +0.000 N 
ATOM      4  H   UNL     1       4.732   5.923  18.813  0.00  0.00    +0.000 HD
ENDROOT
BRANCH   1   5
ATOM      5  C   UNL     1       6.719   6.654  17.437  0.00  0.00    +0.000 C 
BRANCH   5   6
ATOM      6  C   UNL     1       7.255   5.246  17.189  0.00  0.00    +0.000 C 
BRANCH   6  10
ATOM      7  C   UNL     1       6.329   3.832  13.205  0.00  0.00    +0.000 A 
ATOM      8  C   UNL     1       5.684   3.287  14.316  0.00  0.00    +0.000 A 
ATOM      9  C   UNL     1       5.983   3.741  15.604  0.00  0.00    +0.000 A 
ATOM     10  C   UNL     1       6.945   4.739  15.800  0.00  0.00    +0.000 A 
ATOM     11  C   UNL     1       7.610   5.261  14.683  0.00  0.00    +0.000 A 
ATOM     12  C   UNL     1       7.302   4.812  13.395  0.00  0.00    +0.000 A 
BRANCH   7  14
ATOM     13  C   UNL     1       4.562   3.313  11.725  0.00  0.00    +0.000 C 
ATOM     14  O   UNL     1       5.960   3.313  11.994  0.00  0.00    +0.000 OA
ENDBRANCH   7  14
ENDBRANCH   6  10
ENDBRANCH   5   6
ENDBRANCH   1   5
BRANCH   3  15
ATOM     15  C   UNL     1       2.939   6.256  17.714  0.00  0.00    +0.000 C 
BRANCH  15  16
ATOM     16  C   UNL     1       2.311   7.390  18.516  0.00  0.00    +0.000 A 
ATOM     17  C   UNL     1       1.909   8.571  17.869  0.00  0.00    +0.000 A 
ATOM     18  C   UNL     1       1.305   9.608  18.583  0.00  0.00    +0.000 A 
ATOM     19  C   UNL     1       1.102   9.477  19.954  0.00  0.00    +0.000 A 
ATOM     20 CL   UNL     1       0.353  10.753  20.835  0.00  0.00    +0.000 Cl
ATOM     21  C   UNL     1       1.497   8.320  20.617  0.00  0.00    +0.000 A 
ATOM     22  C   UNL     1       2.099   7.280  19.900  0.00  0.00    +0.000 A 
ENDBRANCH  15  16
BRANCH  15  23
ATOM     23  C   UNL     1       2.291   4.907  18.082  0.00  0.00    +0.000 C 
BRANCH  23  24
ATOM     24  C   UNL     1       3.340   3.811  18.326  0.00  0.00    +0.000 C 
BRANCH  24  25
ATOM     25  N   UNL     1       3.693   3.618  19.746  0.00  0.00    +0.000 NA
ATOM     26  C   UNL     1       2.533   3.699  20.634  0.00  0.00    +0.000 C 
ATOM     27  C   UNL     1       4.336   2.307  19.907  0.00  0.00    +0.000 C 
ENDBRANCH  24  25
ENDBRANCH  23  24
ENDBRANCH  15  23
ENDBRANCH   3  15
TORSDOF 9
ENDMDL
MODEL 3
REMARK VINA RESULT:      -6.9      6.125      9.142
REMARK  Name = 
REMARK  12 active torsions:
REMARK  status: ('A' for Active; 'I' for Inactive)
REMARK    1  A    between atoms: C_1  and  O_2
REMARK    2  A    between atoms: O_2  and  C_3
REMARK    3  A    between atoms: C_6  and  C_7
REMARK    4  A    between atoms: C_7  and  C_8
REMARK    5  A    between atoms: C_8  and  C_9
REMARK    6  A    between atoms: N_11  and  C_12
REMARK    7  A    between atoms: C_12  and  C_13
REMARK    8  A    between atoms: C_12  and  C_18
REMARK    9  A    between atoms: C_13  and  C_14
REMARK   10  A    between atoms: C_14  and  N_15
REMARK   11  A    between atoms: N_15  and  C_16
REMARK   12  A    between atoms: N_15  and  C_17
REMARK                            x       y       z     vdW  Elec       q    Type
REMARK                         _______ _______ _______ _____ _____    ______ ____
ROOT
ATOM      1  C   UNL     1       7.724   7.859  17.749  0.00  0.00    +0.000 C 
ATOM      2  O   UNL     1       8.137   6.937  18.446  0.00  0.00    +0.000 OA
ATOM      3  N   UNL     1       6.680   7.724  16.856  0.00  0.00    +0.000 N 
ATOM      4  H   UNL     1       6.428   8.512  16.278  0.00  0.00    +0.000 HD
ENDROOT
BRANCH   1   5
ATOM      5  C   UNL     1       8.261   9.273  17.839  0.00  0.00    +0.000 C 
BRANCH   5   6
ATOM      6  C   UNL     1       8.915   9.526  19.196  0.00  0.00    +0.000 C 
BRANCH   6  10
ATOM      7  C   UNL     1      11.498  12.998  19.165  0.00  0.00    +0.000 A 
ATOM      8  C   UNL     1      11.241  12.299  17.985  0.00  0.00    +0.000 A 
ATOM      9  C   UNL     1      10.408  11.176  17.993  0.00  0.00    +0.000 A 
ATOM     10  C   UNL     1       9.832  10.727  19.187  0.00  0.00    +0.000 A 
ATOM     11  C   UNL     1      10.119  11.415  20.373  0.00  0.00    +0.000 A 
ATOM     12  C   UNL     1      10.945  12.544  20.361  0.00  0.00    +0.000 A 
BRANCH   7  14
ATOM     13  C   UNL     1      11.705  15.285  18.612  0.00  0.00    +0.000 C 
ATOM     14  O   UNL     1      12.328  14.079  19.042  0.00  0.00    +0.000 OA
ENDBRANCH   7  14
ENDBRANCH   6  10
ENDBRANCH   5   6
ENDBRANCH   1   5
BRANCH   3  15
ATOM     15  C   UNL     1       6.024   6.448  16.602  0.00  0.00    +0.000 C 
BRANCH  15  16
ATOM     16  C   UNL     1       4.934   6.207  17.639  0.00  0.00    +0.000 A 
ATOM     17  C   UNL     1       5.131   5.265  18.663  0.00  0.00    +0.000 A 
ATOM     18  C   UNL     1       4.156   5.053  19.639  0.00  0.00    +0.000 A 
ATOM     19  C   UNL     1       2.968   5.778  19.599  0.00  0.00    +0.000 A 
ATOM     20 CL   UNL     1       1.766   5.522  20.804  0.00  0.00    +0.000 Cl
ATOM     21  C   UNL     1       2.747   6.713  18.592  0.00  0.00    +0.000 A 
ATOM     22  C   UNL     1       3.727   6.927  17.617  0.00  0.00    +0.000 A 
ENDBRANCH  15  16
BRANCH  15  23
ATOM     23  C   UNL     1       7.029   5.279  16.588  0.00  0.00    +0.000 C 
BRANCH  23  24
ATOM     24  C   UNL     1       6.661   4.215  15.543  0.00  0.00    +0.000 C 
BRANCH  24  25
ATOM     25  N   UNL     1       6.552   4.731  14.165  0.00  0.00    +0.000 NA
ATOM     26  C   UNL     1       7.820   5.257  13.656  0.00  0.00    +0.000 C 
ATOM     27  C   UNL     1       6.086   3.653  13.283  0.00  0.00    +0.000 C 
ENDBRANCH  24  25
ENDBRANCH  23  24
ENDBRANCH  15  23
ENDBRANCH   3  15
TORSDOF 9
ENDMDL
MODEL 4
REMARK VINA RESULT:      -6.9      0.793      1.333
REMARK  Name = 
REMARK  12 active torsions:
REMARK  status: ('A' for Active; 'I' for Inactive)
REMARK    1  A    between atoms: C_1  and  O_2
REMARK    2  A    between atoms: O_2  and  C_3
REMARK    3  A    between atoms: C_6  and  C_7
REMARK    4  A    between atoms: C_7  and  C_8
REMARK    5  A    between atoms: C_8  and  C_9
REMARK    6  A    between atoms: N_11  and  C_12
REMARK    7  A    between atoms: C_12  and  C_13
REMARK    8  A    between atoms: C_12  and  C_18
REMARK    9  A    between atoms: C_13  and  C_14
REMARK   10  A    between atoms: C_14  and  N_15
REMARK   11  A    between atoms: N_15  and  C_16
REMARK   12  A    between atoms: N_15  and  C_17
REMARK                            x       y       z     vdW  Elec       q    Type
REMARK                         _______ _______ _______ _____ _____    ______ ____
ROOT
ATOM      1  C   UNL     1       1.710   8.186  19.695  0.00  0.00    +0.000 C 
ATOM      2  O   UNL     1       1.502   7.716  20.809  0.00  0.00    +0.000 OA
ATOM      3  N   UNL     1       2.312   7.476  18.675  0.00  0.00    +0.000 N 
ATOM      4  H   UNL     1       2.498   7.944  17.800  0.00  0.00    +0.000 HD
ENDROOT
BRANCH   1   5
ATOM      5  C   UNL     1       1.265   9.574  19.282  0.00  0.00    +0.000 C 
BRANCH   5   6
ATOM      6  C   UNL     1       0.532   9.540  17.943  0.00  0.00    +0.000 C 
BRANCH   6  10
ATOM      7  C   UNL     1      -3.350  11.449  18.082  0.00  0.00    +0.000 A 
ATOM      8  C   UNL     1      -2.331  11.856  18.944  0.00  0.00    +0.000 A 
ATOM      9  C   UNL     1      -1.076  11.239  18.903  0.00  0.00    +0.000 A 
ATOM     10  C   UNL     1      -0.828  10.194  18.005  0.00  0.00    +0.000 A 
ATOM     11  C   UNL     1      -1.864   9.770  17.163  0.00  0.00    +0.000 A 
ATOM     12  C   UNL     1      -3.115  10.394  17.200  0.00  0.00    +0.000 A 
BRANCH   7  14
ATOM     13  C   UNL     1      -5.377  12.103  17.061  0.00  0.00    +0.000 C 
ATOM     14  O   UNL     1      -4.536  12.119  18.210  0.00  0.00    +0.000 OA
ENDBRANCH   7  14
ENDBRANCH   6  10
ENDBRANCH   5   6
ENDBRANCH   1   5
BRANCH   3  15
ATOM     15  C   UNL     1       2.828   6.125  18.856  0.00  0.00    +0.000 C 
BRANCH  15  16
ATOM     16  C   UNL     1       3.852   5.809  17.772  0.00  0.00    +0.000 A 
ATOM     17  C   UNL     1       4.697   6.821  17.285  0.00  0.00    +0.000 A 
ATOM     18  C   UNL     1       5.661   6.543  16.314  0.00  0.00    +0.000 A 
ATOM     19  C   UNL     1       5.787   5.249  15.815  0.00  0.00    +0.000 A 
ATOM     20 CL   UNL     1       6.978   4.903  14.621  0.00  0.00    +0.000 Cl
ATOM     21  C   UNL     1       4.958   4.232  16.278  0.00  0.00    +0.000 A 
ATOM     22  C   UNL     1       3.995   4.511  17.254  0.00  0.00    +0.000 A 
ENDBRANCH  15  16
BRANCH  15  23
ATOM     23  C   UNL     1       1.699   5.076  18.860  0.00  0.00    +0.000 C 
BRANCH  23  24
ATOM     24  C   UNL     1       1.632   4.307  20.188  0.00  0.00    +0.000 C 
BRANCH  24  25
ATOM     25  N   UNL     1       1.785   2.845  20.049  0.00  0.00    +0.000 NA
ATOM     26  C   UNL     1       1.257   2.339  18.781  0.00  0.00    +0.000 C 
ATOM     27  C   UNL     1       3.209   2.499  20.153  0.00  0.00    +0.000 C 
ENDBRANCH  24  25
ENDBRANCH  23  24
ENDBRANCH  15  23
ENDBRANCH   3  15
TORSDOF 9
ENDMDL
MODEL 5
REMARK VINA RESULT:      -6.9      4.041      7.582
REMARK  Name = 
REMARK  12 active torsions:
REMARK  status: ('A' for Active; 'I' for Inactive)
REMARK    1  A    between atoms: C_1  and  O_2
REMARK    2  A    between atoms: O_2  and  C_3
REMARK    3  A    between atoms: C_6  and  C_7
REMARK    4  A    between atoms: C_7  and  C_8
REMARK    5  A    between atoms: C_8  and  C_9
REMARK    6  A    between atoms: N_11  and  C_12
REMARK    7  A    between atoms: C_12  and  C_13
REMARK    8  A    between atoms: C_12  and  C_18
REMARK    9  A    between atoms: C_13  and  C_14
REMARK   10  A    between atoms: C_14  and  N_15
REMARK   11  A    between atoms: N_15  and  C_16
REMARK   12  A    between atoms: N_15  and  C_17
REMARK                            x       y       z     vdW  Elec       q    Type
REMARK                         _______ _______ _______ _____ _____    ______ ____
ROOT
ATOM      1  C   UNL     1       5.356   4.939  19.339  0.00  0.00    +0.000 C 
ATOM      2  O   UNL     1       5.010   3.839  18.919  0.00  0.00    +0.000 OA
ATOM      3  N   UNL     1       4.463   5.899  19.772  0.00  0.00    +0.000 N 
ATOM      4  H   UNL     1       4.816   6.800  20.056  0.00  0.00    +0.000 HD
ENDROOT
BRANCH   1   5
ATOM      5  C   UNL     1       6.806   5.348  19.502  0.00  0.00    +0.000 C 
BRANCH   5   6
ATOM      6  C   UNL     1       7.293   6.139  18.291  0.00  0.00    +0.000 C 
BRANCH   6  10
ATOM      7  C   UNL     1       5.738   4.662  14.532  0.00  0.00    +0.000 A 
ATOM      8  C   UNL     1       5.189   5.799  15.125  0.00  0.00    +0.000 A 
ATOM      9  C   UNL     1       5.688   6.278  16.341  0.00  0.00    +0.000 A 
ATOM     10  C   UNL     1       6.737   5.614  16.988  0.00  0.00    +0.000 A 
ATOM     11  C   UNL     1       7.264   4.456  16.402  0.00  0.00    +0.000 A 
ATOM     12  C   UNL     1       6.769   3.985  15.182  0.00  0.00    +0.000 A 
BRANCH   7  14
ATOM     13  C   UNL     1       5.941   3.378  12.560  0.00  0.00    +0.000 C 
ATOM     14  O   UNL     1       5.172   4.282  13.345  0.00  0.00    +0.000 OA
ENDBRANCH   7  14
ENDBRANCH   6  10
ENDBRANCH   5   6
ENDBRANCH   1   5
BRANCH   3  15
ATOM     15  C   UNL     1       3.018   5.720  19.694  0.00  0.00    +0.000 C 
BRANCH  15  16
ATOM     16  C   UNL     1       2.341   7.061  19.436  0.00  0.00    +0.000 A 
ATOM     17  C   UNL     1       2.347   7.617  18.146  0.00  0.00    +0.000 A 
ATOM     18  C   UNL     1       1.706   8.830  17.887  0.00  0.00    +0.000 A 
ATOM     19  C   UNL     1       1.054   9.502  18.917  0.00  0.00    +0.000 A 
ATOM     20 CL   UNL     1       0.258  10.995  18.597  0.00  0.00    +0.000 Cl
ATOM     21  C   UNL     1       1.039   8.974  20.204  0.00  0.00    +0.000 A 
ATOM     22  C   UNL     1       1.679   7.757  20.462  0.00  0.00    +0.000 A 
ENDBRANCH  15  16
BRANCH  15  23
ATOM     23  C   UNL     1       2.453   5.060  20.967  0.00  0.00    +0.000 C 
BRANCH  23  24
ATOM     24  C   UNL     1       1.656   3.785  20.650  0.00  0.00    +0.000 C 
BRANCH  24  25
ATOM     25  N   UNL     1       1.873   3.259  19.288  0.00  0.00    +0.000 NA
ATOM     26  C   UNL     1       2.531   1.952  19.285  0.00  0.00    +0.000 C 
ATOM     27  C   UNL     1       0.577   3.151  18.604  0.00  0.00    +0.000 C 
ENDBRANCH  24  25
ENDBRANCH  23  24
ENDBRANCH  15  23
ENDBRANCH   3  15
TORSDOF 9
ENDMDL
MODEL 6
REMARK VINA RESULT:      -6.9      2.019      2.529
REMARK  Name = 
REMARK  12 active torsions:
REMARK  status: ('A' for Active; 'I' for Inactive)
REMARK    1  A    between atoms: C_1  and  O_2
REMARK    2  A    between atoms: O_2  and  C_3
REMARK    3  A    between atoms: C_6  and  C_7
REMARK    4  A    between atoms: C_7  and  C_8
REMARK    5  A    between atoms: C_8  and  C_9
REMARK    6  A    between atoms: N_11  and  C_12
REMARK    7  A    between atoms: C_12  and  C_13
REMARK    8  A    between atoms: C_12  and  C_18
REMARK    9  A    between atoms: C_13  and  C_14
REMARK   10  A    between atoms: C_14  and  N_15
REMARK   11  A    between atoms: N_15  and  C_16
REMARK   12  A    between atoms: N_15  and  C_17
REMARK                            x       y       z     vdW  Elec       q    Type
REMARK                         _______ _______ _______ _____ _____    ______ ____
ROOT
ATOM      1  C   UNL     1       2.014   6.732  20.079  0.00  0.00    +0.000 C 
ATOM      2  O   UNL     1       1.783   5.929  20.978  0.00  0.00    +0.000 OA
ATOM      3  N   UNL     1       2.582   6.375  18.873  0.00  0.00    +0.000 N 
ATOM      4  H   UNL     1       2.791   7.098  18.200  0.00  0.00    +0.000 HD
ENDROOT
BRANCH   1   5
ATOM      5  C   UNL     1       1.635   8.197  20.157  0.00  0.00    +0.000 C 
BRANCH   5   6
ATOM      6  C   UNL     1       1.418   8.632  21.605  0.00  0.00    +0.000 C 
BRANCH   6  10
ATOM      7  C   UNL     1      -1.566  11.740  22.008  0.00  0.00    +0.000 A 
ATOM      8  C   UNL     1      -1.258  10.912  23.088  0.00  0.00    +0.000 A 
ATOM      9  C   UNL     1      -0.296   9.906  22.960  0.00  0.00    +0.000 A 
ATOM     10  C   UNL     1       0.363   9.705  21.741  0.00  0.00    +0.000 A 
ATOM     11  C   UNL     1       0.028  10.519  20.652  0.00  0.00    +0.000 A 
ATOM     12  C   UNL     1      -0.928  11.531  20.786  0.00  0.00    +0.000 A 
BRANCH   7  14
ATOM     13  C   UNL     1      -3.214  12.568  23.484  0.00  0.00    +0.000 C 
ATOM     14  O   UNL     1      -2.523  12.689  22.245  0.00  0.00    +0.000 OA
ENDBRANCH   7  14
ENDBRANCH   6  10
ENDBRANCH   5   6
ENDBRANCH   1   5
BRANCH   3  15
ATOM     15  C   UNL     1       3.034   5.019  18.588  0.00  0.00    +0.000 C 
BRANCH  15  16
ATOM     16  C   UNL     1       4.038   5.035  17.441  0.00  0.00    +0.000 A 
ATOM     17  C   UNL     1       4.465   6.258  16.895  0.00  0.00    +0.000 A 
ATOM     18  C   UNL     1       5.406   6.292  15.865  0.00  0.00    +0.000 A 
ATOM     19  C   UNL     1       5.928   5.101  15.365  0.00  0.00    +0.000 A 
ATOM     20 CL   UNL     1       7.093   5.142  14.098  0.00  0.00    +0.000 Cl
ATOM     21  C   UNL     1       5.517   3.879  15.885  0.00  0.00    +0.000 A 
ATOM     22  C   UNL     1       4.576   3.846  16.920  0.00  0.00    +0.000 A 
ENDBRANCH  15  16
BRANCH  15  23
ATOM     23  C   UNL     1       1.856   4.078  18.266  0.00  0.00    +0.000 C 
BRANCH  23  24
ATOM     24  C   UNL     1       1.856   2.829  19.160  0.00  0.00    +0.000 C 
BRANCH  24  25
ATOM     25  N   UNL     1       2.825   2.880  20.272  0.00  0.00    +0.000 NA
ATOM     26  C   UNL     1       2.231   2.506  21.557  0.00  0.00    +0.000 C 
ATOM     27  C   UNL     1       3.946   1.979  19.975  0.00  0.00    +0.000 C 
ENDBRANCH  24  25
ENDBRANCH  23  24
ENDBRANCH  15  23
ENDBRANCH   3  15
TORSDOF 9
ENDMDL
MODEL 7
REMARK VINA RESULT:      -6.9      5.689      8.139
REMARK  Name = 
REMARK  12 active torsions:
REMARK  status: ('A' for Active; 'I' for Inactive)
REMARK    1  A    between atoms: C_1  and  O_2
REMARK    2  A    between atoms: O_2  and  C_3
REMARK    3  A    between atoms: C_6  and  C_7
REMARK    4  A    between atoms: C_7  and  C_8
REMARK    5  A    between atoms: C_8  and  C_9
REMARK    6  A    between atoms: N_11  and  C_12
REMARK    7  A    between atoms: C_12  and  C_13
REMARK    8  A    between atoms: C_12  and  C_18
REMARK    9  A    between atoms: C_13  and  C_14
REMARK   10  A    between atoms: C_14  and  N_15
REMARK   11  A    between atoms: N_15  and  C_16
REMARK   12  A    between atoms: N_15  and  C_17
REMARK                            x       y       z     vdW  Elec       q    Type
REMARK                         _______ _______ _______ _____ _____    ______ ____
ROOT
ATOM      1  C   UNL     1       7.763   7.794  17.912  0.00  0.00    +0.000 C 
ATOM      2  O   UNL     1       8.287   7.089  18.769  0.00  0.00    +0.000 OA
ATOM      3  N   UNL     1       6.664   7.400  17.176  0.00  0.00    +0.000 N 
ATOM      4  H   UNL     1       6.318   8.012  16.451  0.00  0.00    +0.000 HD
ENDROOT
BRANCH   1   5
ATOM      5  C   UNL     1       8.214   9.209  17.612  0.00  0.00    +0.000 C 
BRANCH   5   6
ATOM      6  C   UNL     1       8.999   9.796  18.783  0.00  0.00    +0.000 C 
BRANCH   6  10
ATOM      7  C   UNL     1      10.663  13.704  17.956  0.00  0.00    +0.000 A 
ATOM      8  C   UNL     1       9.501  13.577  18.719  0.00  0.00    +0.000 A 
ATOM      9  C   UNL     1       8.960  12.316  18.986  0.00  0.00    +0.000 A 
ATOM     10  C   UNL     1       9.569  11.161  18.479  0.00  0.00    +0.000 A 
ATOM     11  C   UNL     1      10.717  11.297  17.689  0.00  0.00    +0.000 A 
ATOM     12  C   UNL     1      11.261  12.559  17.431  0.00  0.00    +0.000 A 
BRANCH   7  14
ATOM     13  C   UNL     1      10.646  15.945  18.702  0.00  0.00    +0.000 C 
ATOM     14  O   UNL     1      11.102  14.984  17.755  0.00  0.00    +0.000 OA
ENDBRANCH   7  14
ENDBRANCH   6  10
ENDBRANCH   5   6
ENDBRANCH   1   5
BRANCH   3  15
ATOM     15  C   UNL     1       6.073   6.073  17.295  0.00  0.00    +0.000 C 
BRANCH  15  16
ATOM     16  C   UNL     1       6.187   5.330  15.969  0.00  0.00    +0.000 A 
ATOM     17  C   UNL     1       5.145   4.490  15.540  0.00  0.00    +0.000 A 
ATOM     18  C   UNL     1       5.220   3.826  14.315  0.00  0.00    +0.000 A 
ATOM     19  C   UNL     1       6.341   3.991  13.506  0.00  0.00    +0.000 A 
ATOM     20 CL   UNL     1       6.433   3.176  11.991  0.00  0.00    +0.000 Cl
ATOM     21  C   UNL     1       7.387   4.813  13.911  0.00  0.00    +0.000 A 
ATOM     22  C   UNL     1       7.310   5.481  15.138  0.00  0.00    +0.000 A 
ENDBRANCH  15  16
BRANCH  15  23
ATOM     23  C   UNL     1       4.604   6.139  17.757  0.00  0.00    +0.000 C 
BRANCH  23  24
ATOM     24  C   UNL     1       4.319   5.168  18.913  0.00  0.00    +0.000 C 
BRANCH  24  25
ATOM     25  N   UNL     1       3.369   5.685  19.917  0.00  0.00    +0.000 NA
ATOM     26  C   UNL     1       2.470   6.705  19.372  0.00  0.00    +0.000 C 
ATOM     27  C   UNL     1       2.572   4.569  20.444  0.00  0.00    +0.000 C 
ENDBRANCH  24  25
ENDBRANCH  23  24
ENDBRANCH  15  23
ENDBRANCH   3  15
TORSDOF 9
ENDMDL
MODEL 8
REMARK VINA RESULT:      -6.8      1.335      1.608
REMARK  Name = 
REMARK  12 active torsions:
REMARK  status: ('A' for Active; 'I' for Inactive)
REMARK    1  A    between atoms: C_1  and  O_2
REMARK    2  A    between atoms: O_2  and  C_3
REMARK    3  A    between atoms: C_6  and  C_7
REMARK    4  A    between atoms: C_7  and  C_8
REMARK    5  A    between atoms: C_8  and  C_9
REMARK    6  A    between atoms: N_11  and  C_12
REMARK    7  A    between atoms: C_12  and  C_13
REMARK    8  A    between atoms: C_12  and  C_18
REMARK    9  A    between atoms: C_13  and  C_14
REMARK   10  A    between atoms: C_14  and  N_15
REMARK   11  A    between atoms: N_15  and  C_16
REMARK   12  A    between atoms: N_15  and  C_17
REMARK                            x       y       z     vdW  Elec       q    Type
REMARK                         _______ _______ _______ _____ _____    ______ ____
ROOT
ATOM      1  C   UNL     1       2.035   8.407  17.985  0.00  0.00    +0.000 C 
ATOM      2  O   UNL     1       2.941   9.223  18.122  0.00  0.00    +0.000 OA
ATOM      3  N   UNL     1       2.180   7.062  18.260  0.00  0.00    +0.000 N 
ATOM      4  H   UNL     1       1.406   6.441  18.075  0.00  0.00    +0.000 HD
ENDROOT
BRANCH   1   5
ATOM      5  C   UNL     1       0.629   8.789  17.570  0.00  0.00    +0.000 C 
BRANCH   5   6
ATOM      6  C   UNL     1       0.133   9.998  18.360  0.00  0.00    +0.000 C 
BRANCH   6  10
ATOM      7  C   UNL     1      -3.910  11.130  17.310  0.00  0.00    +0.000 A 
ATOM      8  C   UNL     1      -3.195  10.238  16.509  0.00  0.00    +0.000 A 
ATOM      9  C   UNL     1      -1.888   9.872  16.845  0.00  0.00    +0.000 A 
ATOM     10  C   UNL     1      -1.272  10.407  17.983  0.00  0.00    +0.000 A 
ATOM     11  C   UNL     1      -1.983  11.325  18.765  0.00  0.00    +0.000 A 
ATOM     12  C   UNL     1      -3.294  11.682  18.432  0.00  0.00    +0.000 A 
BRANCH   7  14
ATOM     13  C   UNL     1      -5.902  12.339  17.697  0.00  0.00    +0.000 C 
ATOM     14  O   UNL     1      -5.178  11.419  16.886  0.00  0.00    +0.000 OA
ENDBRANCH   7  14
ENDBRANCH   6  10
ENDBRANCH   5   6
ENDBRANCH   1   5
BRANCH   3  15
ATOM     15  C   UNL     1       3.451   6.475  18.663  0.00  0.00    +0.000 C 
BRANCH  15  16
ATOM     16  C   UNL     1       4.117   5.802  17.468  0.00  0.00    +0.000 A 
ATOM     17  C   UNL     1       4.800   6.576  16.515  0.00  0.00    +0.000 A 
ATOM     18  C   UNL     1       5.440   5.975  15.430  0.00  0.00    +0.000 A 
ATOM     19  C   UNL     1       5.400   4.590  15.284  0.00  0.00    +0.000 A 
ATOM     20 CL   UNL     1       6.194   3.846  13.950  0.00  0.00    +0.000 Cl
ATOM     21  C   UNL     1       4.726   3.803  16.212  0.00  0.00    +0.000 A 
ATOM     22  C   UNL     1       4.087   4.407  17.301  0.00  0.00    +0.000 A 
ENDBRANCH  15  16
BRANCH  15  23
ATOM     23  C   UNL     1       3.279   5.474  19.823  0.00  0.00    +0.000 C 
BRANCH  23  24
ATOM     24  C   UNL     1       1.865   5.522  20.421  0.00  0.00    +0.000 C 
BRANCH  24  25
ATOM     25  N   UNL     1       1.274   4.195  20.684  0.00  0.00    +0.000 NA
ATOM     26  C   UNL     1       1.086   3.408  19.464  0.00  0.00    +0.000 C 
ATOM     27  C   UNL     1       2.144   3.456  21.608  0.00  0.00    +0.000 C 
ENDBRANCH  24  25
ENDBRANCH  23  24
ENDBRANCH  15  23
ENDBRANCH   3  15
TORSDOF 9
ENDMDL
MODEL 9
REMARK VINA RESULT:      -6.8      6.172      9.076
REMARK  Name = 
REMARK  12 active torsions:
REMARK  status: ('A' for Active; 'I' for Inactive)
REMARK    1  A    between atoms: C_1  and  O_2
REMARK    2  A    between atoms: O_2  and  C_3
REMARK    3  A    between atoms: C_6  and  C_7
REMARK    4  A    between atoms: C_7  and  C_8
REMARK    5  A    between atoms: C_8  and  C_9
REMARK    6  A    between atoms: N_11  and  C_12
REMARK    7  A    between atoms: C_12  and  C_13
REMARK    8  A    between atoms: C_12  and  C_18
REMARK    9  A    between atoms: C_13  and  C_14
REMARK   10  A    between atoms: C_14  and  N_15
REMARK   11  A    between atoms: N_15  and  C_16
REMARK   12  A    between atoms: N_15  and  C_17
REMARK                            x       y       z     vdW  Elec       q    Type
REMARK                         _______ _______ _______ _____ _____    ______ ____
ROOT
ATOM      1  C   UNL     1       7.710   8.030  17.787  0.00  0.00    +0.000 C 
ATOM      2  O   UNL     1       8.083   7.096  18.490  0.00  0.00    +0.000 OA
ATOM      3  N   UNL     1       6.675   7.927  16.878  0.00  0.00    +0.000 N 
ATOM      4  H   UNL     1       6.457   8.723  16.297  0.00  0.00    +0.000 HD
ENDROOT
BRANCH   1   5
ATOM      5  C   UNL     1       8.288   9.427  17.886  0.00  0.00    +0.000 C 
BRANCH   5   6
ATOM      6  C   UNL     1       9.085   9.601  19.177  0.00  0.00    +0.000 C 
BRANCH   6  10
ATOM      7  C   UNL     1      11.497  13.194  19.209  0.00  0.00    +0.000 A 
ATOM      8  C   UNL     1      11.011  12.658  20.403  0.00  0.00    +0.000 A 
ATOM      9  C   UNL     1      10.230  11.498  20.395  0.00  0.00    +0.000 A 
ATOM     10  C   UNL     1       9.912  10.865  19.187  0.00  0.00    +0.000 A 
ATOM     11  C   UNL     1      10.377  11.425  17.991  0.00  0.00    +0.000 A 
ATOM     12  C   UNL     1      11.166  12.579  18.002  0.00  0.00    +0.000 A 
BRANCH   7  14
ATOM     13  C   UNL     1      11.945  15.371  18.411  0.00  0.00    +0.000 C 
ATOM     14  O   UNL     1      12.248  14.331  19.334  0.00  0.00    +0.000 OA
ENDBRANCH   7  14
ENDBRANCH   6  10
ENDBRANCH   5   6
ENDBRANCH   1   5
BRANCH   3  15
ATOM     15  C   UNL     1       5.984   6.672  16.613  0.00  0.00    +0.000 C 
BRANCH  15  16
ATOM     16  C   UNL     1       4.909   6.437  17.668  0.00  0.00    +0.000 A 
ATOM     17  C   UNL     1       3.716   7.179  17.635  0.00  0.00    +0.000 A 
ATOM     18  C   UNL     1       2.709   6.956  18.575  0.00  0.00    +0.000 A 
ATOM     19  C   UNL     1       2.886   5.991  19.564  0.00  0.00    +0.000 A 
ATOM     20 CL   UNL     1       1.642   5.712  20.721  0.00  0.00    +0.000 Cl
ATOM     21  C   UNL     1       4.060   5.248  19.620  0.00  0.00    +0.000 A 
ATOM     22  C   UNL     1       5.068   5.470  18.675  0.00  0.00    +0.000 A 
ENDBRANCH  15  16
BRANCH  15  23
ATOM     23  C   UNL     1       6.960   5.480  16.557  0.00  0.00    +0.000 C 
BRANCH  23  24
ATOM     24  C   UNL     1       7.196   4.995  15.119  0.00  0.00    +0.000 C 
BRANCH  24  25
ATOM     25  N   UNL     1       6.520   3.725  14.791  0.00  0.00    +0.000 NA
ATOM     26  C   UNL     1       5.331   3.488  15.612  0.00  0.00    +0.000 C 
ATOM     27  C   UNL     1       6.135   3.739  13.373  0.00  0.00    +0.000 C 
ENDBRANCH  24  25
ENDBRANCH  23  24
ENDBRANCH  15  23
ENDBRANCH   3  15
TORSDOF 9
ENDMDL
