MODEL 1
REMARK VINA RESULT:      -9.1      0.000      0.000
REMARK  Name = 
REMARK  6 active torsions:
REMARK  status: ('A' for Active; 'I' for Inactive)
REMARK    1  A    between atoms: C_2  and  C_22
REMARK    2  A    between atoms: N_3  and  C_4
REMARK    3  A    between atoms: C_4  and  C_5
REMARK    4  A    between atoms: C_5  and  C_6
REMARK    5  A    between atoms: C_5  and  N_12
REMARK    6  A    between atoms: N_24  and  C_25
REMARK                            x       y       z     vdW  Elec       q    Type
REMARK                         _______ _______ _______ _____ _____    ______ ____
ROOT
ATOM      1  C   UNL     1       3.493   5.307  17.398  0.00  0.00    +0.000 C 
ENDROOT
BRANCH   1   2
ATOM      2  N   UNL     1       3.381   6.439  18.341  0.00  0.00    +0.000 NA
ATOM      3  C   UNL     1       3.384   6.114  19.771  0.00  0.00    +0.000 C 
ATOM      4  C   UNL     1       2.041   6.307  20.475  0.00  0.00    +0.000 C 
ATOM      5  C   UNL     1       1.599   7.728  20.280  0.00  0.00    +0.000 A 
ATOM      6  C   UNL     1       0.948   8.436  21.292  0.00  0.00    +0.000 A 
ATOM      7  C   UNL     1       0.571   9.759  21.079  0.00  0.00    +0.000 A 
ATOM      8  C   UNL     1       0.828  10.370  19.852  0.00  0.00    +0.000 A 
ATOM      9  C   UNL     1       1.462   9.658  18.831  0.00  0.00    +0.000 A 
ATOM     10  C   UNL     1       1.863   8.334  19.041  0.00  0.00    +0.000 A 
ATOM     11  C   UNL     1       2.471   7.513  17.921  0.00  0.00    +0.000 C 
ENDBRANCH   1   2
BRANCH   1  12
ATOM     12  C   UNL     1       2.892   4.009  17.930  0.00  0.00    +0.000 A 
ATOM     13  C   UNL     1       1.501   3.853  18.026  0.00  0.00    +0.000 A 
ATOM     14  C   UNL     1       0.953   2.716  18.616  0.00  0.00    +0.000 A 
ATOM     15  C   UNL     1       1.816   1.739  19.073  0.00  0.00    +0.000 A 
ATOM     16  N   UNL     1       3.158   1.821  18.966  0.00  0.00    +0.000 NA
ATOM     17  C   UNL     1       3.660   2.947  18.399  0.00  0.00    +0.000 A 
ENDBRANCH   1  12
BRANCH   1  18
ATOM     18  C   UNL     1       4.972   5.193  16.901  0.00  0.00    +0.000 C 
BRANCH  18  21
ATOM     19  O   UNL     1       7.521   6.181  15.930  0.00  0.00    +0.000 OA
ATOM     20  C   UNL     1       7.090   6.470  17.036  0.00  0.00    +0.000 C 
ATOM     21  N   UNL     1       5.925   6.018  17.607  0.00  0.00    +0.000 N 
ATOM     22  H   UNL     1       5.670   6.448  18.495  0.00  0.00    +0.000 HD
BRANCH  20  23
ATOM     23  C   UNL     1       7.857   7.449  17.940  0.00  0.00    +0.000 C 
ATOM     24  O   UNL     1       8.428   6.992  18.922  0.00  0.00    +0.000 OA
ATOM     25  N   UNL     1       7.753   8.758  17.523  0.00  0.00    +0.000 N 
ATOM     26  H   UNL     1       7.103   8.921  16.758  0.00  0.00    +0.000 HD
BRANCH  25  27
ATOM     27  C   UNL     1       8.389   9.863  18.112  0.00  0.00    +0.000 A 
ATOM     28  C   UNL     1       9.138   9.760  19.288  0.00  0.00    +0.000 A 
ATOM     29  C   UNL     1       9.743  10.886  19.847  0.00  0.00    +0.000 A 
ATOM     30  C   UNL     1       9.601  12.128  19.233  0.00  0.00    +0.000 A 
ATOM     31  C   UNL     1       8.872  12.237  18.049  0.00  0.00    +0.000 A 
ATOM     32  C   UNL     1       8.279  11.105  17.481  0.00  0.00    +0.000 A 
ENDBRANCH  25  27
ENDBRANCH  20  23
ENDBRANCH  18  21
ENDBRANCH   1  18
TORSDOF 6
ENDMDL
MODEL 2
REMARK VINA RESULT:      -8.9      2.445      4.239
REMARK  Name = 
REMARK  6 active torsions:
REMARK  status: ('A' for Active; 'I' for Inactive)
REMARK    1  A    between atoms: C_2  and  C_22
REMARK    2  A    between atoms: N_3  and  C_4
REMARK    3  A    between atoms: C_4  and  C_5
REMARK    4  A    between atoms: C_5  and  C_6
REMARK    5  A    between atoms: C_5  and  N_12
REMARK    6  A    between atoms: N_24  and  C_25
REMARK                            x       y       z     vdW  Elec       q    Type
REMARK                         _______ _______ _______ _____ _____    ______ ____
ROOT
ATOM      1  C   UNL     1       6.431   6.055  18.315  0.00  0.00    +0.000 C 
ENDROOT
BRANCH   1   2
ATOM      2  N   UNL     1       5.506   5.308  19.194  0.00  0.00    +0.000 NA
ATOM      3  C   UNL     1       5.587   3.845  19.153  0.00  0.00    +0.000 C 
ATOM      4  C   UNL     1       4.397   3.155  18.487  0.00  0.00    +0.000 C 
ATOM      5  C   UNL     1       3.143   3.571  19.200  0.00  0.00    +0.000 A 
ATOM      6  C   UNL     1       2.094   2.676  19.417  0.00  0.00    +0.000 A 
ATOM      7  C   UNL     1       0.955   3.096  20.099  0.00  0.00    +0.000 A 
ATOM      8  C   UNL     1       0.857   4.412  20.550  0.00  0.00    +0.000 A 
ATOM      9  C   UNL     1       1.897   5.315  20.318  0.00  0.00    +0.000 A 
ATOM     10  C   UNL     1       3.055   4.899  19.651  0.00  0.00    +0.000 A 
ATOM     11  C   UNL     1       4.157   5.880  19.309  0.00  0.00    +0.000 C 
ENDBRANCH   1   2
BRANCH   1  12
ATOM     12  C   UNL     1       6.374   5.613  16.856  0.00  0.00    +0.000 A 
ATOM     13  C   UNL     1       5.233   5.862  16.078  0.00  0.00    +0.000 A 
ATOM     14  C   UNL     1       5.134   5.361  14.782  0.00  0.00    +0.000 A 
ATOM     15  C   UNL     1       6.201   4.642  14.278  0.00  0.00    +0.000 A 
ATOM     16  N   UNL     1       7.336   4.412  14.969  0.00  0.00    +0.000 NA
ATOM     17  C   UNL     1       7.395   4.901  16.232  0.00  0.00    +0.000 A 
ENDBRANCH   1  12
BRANCH   1  18
ATOM     18  C   UNL     1       7.861   6.051  18.951  0.00  0.00    +0.000 C 
BRANCH  18  21
ATOM     19  O   UNL     1       7.802   8.309  17.131  0.00  0.00    +0.000 OA
ATOM     20  C   UNL     1       8.329   8.373  18.231  0.00  0.00    +0.000 C 
ATOM     21  N   UNL     1       8.454   7.353  19.143  0.00  0.00    +0.000 N 
ATOM     22  H   UNL     1       8.828   7.616  20.054  0.00  0.00    +0.000 HD
BRANCH  20  23
ATOM     23  C   UNL     1       8.922   9.700  18.734  0.00  0.00    +0.000 C 
ATOM     24  O   UNL     1       8.998   9.869  19.944  0.00  0.00    +0.000 OA
ATOM     25  N   UNL     1       9.257  10.559  17.711  0.00  0.00    +0.000 N 
ATOM     26  H   UNL     1       8.970  10.264  16.781  0.00  0.00    +0.000 HD
BRANCH  25  27
ATOM     27  C   UNL     1       9.869  11.815  17.857  0.00  0.00    +0.000 A 
ATOM     28  C   UNL     1       9.146  13.012  17.828  0.00  0.00    +0.000 A 
ATOM     29  C   UNL     1       9.795  14.238  17.963  0.00  0.00    +0.000 A 
ATOM     30  C   UNL     1      11.177  14.279  18.128  0.00  0.00    +0.000 A 
ATOM     31  C   UNL     1      11.905  13.090  18.178  0.00  0.00    +0.000 A 
ATOM     32  C   UNL     1      11.251  11.859  18.058  0.00  0.00    +0.000 A 
ENDBRANCH  25  27
ENDBRANCH  20  23
ENDBRANCH  18  21
ENDBRANCH   1  18
TORSDOF 6
ENDMDL
MODEL 3
REMARK VINA RESULT:      -8.8      2.692      4.761
REMARK  Name = 
REMARK  6 active torsions:
REMARK  status: ('A' for Active; 'I' for Inactive)
REMARK    1  A    between atoms: C_2  and  C_22
REMARK    2  A    between atoms: N_3  and  C_4
REMARK    3  A    between atoms: C_4  and  C_5
REMARK    4  A    between atoms: C_5  and  C_6
REMARK    5  A    between atoms: C_5  and  N_12
REMARK    6  A    between atoms: N_24  and  C_25
REMARK                            x       y       z     vdW  Elec       q    Type
REMARK                         _______ _______ _______ _____ _____    ______ ____
ROOT
ATOM      1  C   UNL     1       5.744   5.785  15.659  0.00  0.00    +0.000 C 
ENDROOT
BRANCH   1   2
ATOM      2  N   UNL     1       4.570   5.230  16.367  0.00  0.00    +0.000 NA
ATOM      3  C   UNL     1       3.862   6.129  17.282  0.00  0.00    +0.000 C 
ATOM      4  C   UNL     1       4.032   5.800  18.765  0.00  0.00    +0.000 C 
ATOM      5  C   UNL     1       3.583   4.387  18.995  0.00  0.00    +0.000 A 
ATOM      6  C   UNL     1       2.897   4.018  20.155  0.00  0.00    +0.000 A 
ATOM      7  C   UNL     1       2.480   2.700  20.323  0.00  0.00    +0.000 A 
ATOM      8  C   UNL     1       2.761   1.748  19.343  0.00  0.00    +0.000 A 
ATOM      9  C   UNL     1       3.463   2.110  18.191  0.00  0.00    +0.000 A 
ATOM     10  C   UNL     1       3.870   3.436  18.002  0.00  0.00    +0.000 A 
ATOM     11  C   UNL     1       4.710   3.834  16.805  0.00  0.00    +0.000 C 
ENDBRANCH   1   2
BRANCH   1  12
ATOM     12  C   UNL     1       6.076   5.052  14.363  0.00  0.00    +0.000 A 
ATOM     13  C   UNL     1       5.158   4.155  13.794  0.00  0.00    +0.000 A 
ATOM     14  C   UNL     1       5.503   3.401  12.675  0.00  0.00    +0.000 A 
ATOM     15  C   UNL     1       6.758   3.585  12.127  0.00  0.00    +0.000 A 
ATOM     16  N   UNL     1       7.661   4.464  12.609  0.00  0.00    +0.000 NA
ATOM     17  C   UNL     1       7.299   5.172  13.708  0.00  0.00    +0.000 A 
ENDBRANCH   1  12
BRANCH   1  18
ATOM     18  C   UNL     1       6.935   5.920  16.664  0.00  0.00    +0.000 C 
BRANCH  18  21
ATOM     19  O   UNL     1       8.360   6.787  19.038  0.00  0.00    +0.000 OA
ATOM     20  C   UNL     1       7.990   7.572  18.178  0.00  0.00    +0.000 C 
ATOM     21  N   UNL     1       7.269   7.272  17.047  0.00  0.00    +0.000 N 
ATOM     22  H   UNL     1       7.141   8.037  16.387  0.00  0.00    +0.000 HD
BRANCH  20  23
ATOM     23  C   UNL     1       8.340   9.066  18.283  0.00  0.00    +0.000 C 
ATOM     24  O   UNL     1       7.848   9.827  17.460  0.00  0.00    +0.000 OA
ATOM     25  N   UNL     1       9.227   9.338  19.302  0.00  0.00    +0.000 N 
ATOM     26  H   UNL     1       9.617   8.523  19.769  0.00  0.00    +0.000 HD
BRANCH  25  27
ATOM     27  C   UNL     1       9.685  10.612  19.676  0.00  0.00    +0.000 A 
ATOM     28  C   UNL     1       9.307  11.224  20.876  0.00  0.00    +0.000 A 
ATOM     29  C   UNL     1       9.775  12.496  21.203  0.00  0.00    +0.000 A 
ATOM     30  C   UNL     1      10.625  13.169  20.330  0.00  0.00    +0.000 A 
ATOM     31  C   UNL     1      11.024  12.559  19.141  0.00  0.00    +0.000 A 
ATOM     32  C   UNL     1      10.567  11.277  18.820  0.00  0.00    +0.000 A 
ENDBRANCH  25  27
ENDBRANCH  20  23
ENDBRANCH  18  21
ENDBRANCH   1  18
TORSDOF 6
ENDMDL
MODEL 4
REMARK VINA RESULT:      -8.8      2.679      4.848
REMARK  Name = 
REMARK  6 active torsions:
REMARK  status: ('A' for Active; 'I' for Inactive)
REMARK    1  A    between atoms: C_2  and  C_22
REMARK    2  A    between atoms: N_3  and  C_4
REMARK    3  A    between atoms: C_4  and  C_5
REMARK    4  A    between atoms: C_5  and  C_6
REMARK    5  A    between atoms: C_5  and  N_12
REMARK    6  A    between atoms: N_24  and  C_25
REMARK                            x       y       z     vdW  Elec       q    Type
REMARK                         _______ _______ _______ _____ _____    ______ ____
ROOT
ATOM      1  C   UNL     1       5.782   5.736  15.720  0.00  0.00    +0.000 C 
ENDROOT
BRANCH   1   2
ATOM      2  N   UNL     1       4.586   5.211  16.413  0.00  0.00    +0.000 NA
ATOM      3  C   UNL     1       3.889   6.128  17.320  0.00  0.00    +0.000 C 
ATOM      4  C   UNL     1       4.034   5.795  18.805  0.00  0.00    +0.000 C 
ATOM      5  C   UNL     1       3.547   4.394  19.030  0.00  0.00    +0.000 A 
ATOM      6  C   UNL     1       2.838   4.043  20.181  0.00  0.00    +0.000 A 
ATOM      7  C   UNL     1       2.387   2.736  20.344  0.00  0.00    +0.000 A 
ATOM      8  C   UNL     1       2.655   1.777  19.368  0.00  0.00    +0.000 A 
ATOM      9  C   UNL     1       3.380   2.121  18.225  0.00  0.00    +0.000 A 
ATOM     10  C   UNL     1       3.822   3.436  18.040  0.00  0.00    +0.000 A 
ATOM     11  C   UNL     1       4.686   3.813  16.854  0.00  0.00    +0.000 C 
ENDBRANCH   1   2
BRANCH   1  12
ATOM     12  C   UNL     1       6.138   4.966  14.452  0.00  0.00    +0.000 A 
ATOM     13  C   UNL     1       7.373   5.168  13.817  0.00  0.00    +0.000 A 
ATOM     14  C   UNL     1       7.655   4.552  12.600  0.00  0.00    +0.000 A 
ATOM     15  C   UNL     1       6.699   3.717  12.056  0.00  0.00    +0.000 A 
ATOM     16  N   UNL     1       5.514   3.456  12.646  0.00  0.00    +0.000 NA
ATOM     17  C   UNL     1       5.265   4.082  13.823  0.00  0.00    +0.000 A 
ENDBRANCH   1  12
BRANCH   1  18
ATOM     18  C   UNL     1       6.950   5.888  16.750  0.00  0.00    +0.000 C 
BRANCH  18  21
ATOM     19  O   UNL     1       8.371   6.805  19.107  0.00  0.00    +0.000 OA
ATOM     20  C   UNL     1       8.009   7.570  18.226  0.00  0.00    +0.000 C 
ATOM     21  N   UNL     1       7.291   7.246  17.100  0.00  0.00    +0.000 N 
ATOM     22  H   UNL     1       7.171   7.996  16.420  0.00  0.00    +0.000 HD
BRANCH  20  23
ATOM     23  C   UNL     1       8.369   9.063  18.295  0.00  0.00    +0.000 C 
ATOM     24  O   UNL     1       7.899   9.805  17.442  0.00  0.00    +0.000 OA
ATOM     25  N   UNL     1       9.239   9.358  19.323  0.00  0.00    +0.000 N 
ATOM     26  H   UNL     1       9.613   8.554  19.821  0.00  0.00    +0.000 HD
BRANCH  25  27
ATOM     27  C   UNL     1       9.700  10.638  19.670  0.00  0.00    +0.000 A 
ATOM     28  C   UNL     1      10.496  11.408  18.816  0.00  0.00    +0.000 A 
ATOM     29  C   UNL     1      10.944  12.670  19.206  0.00  0.00    +0.000 A 
ATOM     30  C   UNL     1      10.600  13.173  20.458  0.00  0.00    +0.000 A 
ATOM     31  C   UNL     1       9.789  12.422  21.309  0.00  0.00    +0.000 A 
ATOM     32  C   UNL     1       9.328  11.163  20.911  0.00  0.00    +0.000 A 
ENDBRANCH  25  27
ENDBRANCH  20  23
ENDBRANCH  18  21
ENDBRANCH   1  18
TORSDOF 6
ENDMDL
MODEL 5
REMARK VINA RESULT:      -8.8      3.489      4.784
REMARK  Name = 
REMARK  6 active torsions:
REMARK  status: ('A' for Active; 'I' for Inactive)
REMARK    1  A    between atoms: C_2  and  C_22
REMARK    2  A    between atoms: N_3  and  C_4
REMARK    3  A    between atoms: C_4  and  C_5
REMARK    4  A    between atoms: C_5  and  C_6
REMARK    5  A    between atoms: C_5  and  N_12
REMARK    6  A    between atoms: N_24  and  C_25
REMARK                            x       y       z     vdW  Elec       q    Type
REMARK                         _______ _______ _______ _____ _____    ______ ____
ROOT
ATOM      1  C   UNL     1       2.650   5.876  18.834  0.00  0.00    +0.000 C 
ENDROOT
BRANCH   1   2
ATOM      2  N   UNL     1       1.724   7.025  18.926  0.00  0.00    +0.000 NA
ATOM      3  C   UNL     1       1.572   7.852  17.724  0.00  0.00    +0.000 C 
ATOM      4  C   UNL     1       2.195   9.244  17.820  0.00  0.00    +0.000 C 
ATOM      5  C   UNL     1       1.599   9.954  19.001  0.00  0.00    +0.000 A 
ATOM      6  C   UNL     1       1.316  11.321  18.965  0.00  0.00    +0.000 A 
ATOM      7  C   UNL     1       0.746  11.938  20.075  0.00  0.00    +0.000 A 
ATOM      8  C   UNL     1       0.474  11.197  21.225  0.00  0.00    +0.000 A 
ATOM      9  C   UNL     1       0.774   9.834  21.270  0.00  0.00    +0.000 A 
ATOM     10  C   UNL     1       1.329   9.197  20.154  0.00  0.00    +0.000 A 
ATOM     11  C   UNL     1       1.745   7.741  20.208  0.00  0.00    +0.000 C 
ENDBRANCH   1   2
BRANCH   1  12
ATOM     12  C   UNL     1       2.244   4.696  19.711  0.00  0.00    +0.000 A 
ATOM     13  C   UNL     1       1.401   3.691  19.212  0.00  0.00    +0.000 A 
ATOM     14  C   UNL     1       0.938   2.674  20.043  0.00  0.00    +0.000 A 
ATOM     15  C   UNL     1       1.359   2.667  21.360  0.00  0.00    +0.000 A 
ATOM     16  N   UNL     1       2.202   3.583  21.877  0.00  0.00    +0.000 NA
ATOM     17  C   UNL     1       2.623   4.568  21.045  0.00  0.00    +0.000 A 
ENDBRANCH   1  12
BRANCH   1  18
ATOM     18  C   UNL     1       4.117   6.379  19.042  0.00  0.00    +0.000 C 
BRANCH  18  21
ATOM     19  O   UNL     1       6.154   4.317  19.152  0.00  0.00    +0.000 OA
ATOM     20  C   UNL     1       5.951   4.978  18.145  0.00  0.00    +0.000 C 
ATOM     21  N   UNL     1       5.050   6.006  18.005  0.00  0.00    +0.000 N 
ATOM     22  H   UNL     1       4.940   6.374  17.061  0.00  0.00    +0.000 HD
BRANCH  20  23
ATOM     23  C   UNL     1       6.727   4.684  16.850  0.00  0.00    +0.000 C 
ATOM     24  O   UNL     1       7.905   4.368  16.949  0.00  0.00    +0.000 OA
ATOM     25  N   UNL     1       5.966   4.868  15.716  0.00  0.00    +0.000 N 
ATOM     26  H   UNL     1       5.046   5.276  15.869  0.00  0.00    +0.000 HD
BRANCH  25  27
ATOM     27  C   UNL     1       6.381   4.623  14.397  0.00  0.00    +0.000 A 
ATOM     28  C   UNL     1       5.783   3.651  13.588  0.00  0.00    +0.000 A 
ATOM     29  C   UNL     1       6.235   3.431  12.288  0.00  0.00    +0.000 A 
ATOM     30  C   UNL     1       7.294   4.181  11.784  0.00  0.00    +0.000 A 
ATOM     31  C   UNL     1       7.884   5.167  12.575  0.00  0.00    +0.000 A 
ATOM     32  C   UNL     1       7.420   5.398  13.874  0.00  0.00    +0.000 A 
ENDBRANCH  25  27
ENDBRANCH  20  23
ENDBRANCH  18  21
ENDBRANCH   1  18
TORSDOF 6
ENDMDL
MODEL 6
REMARK VINA RESULT:      -8.8      3.613      7.532
REMARK  Name = 
REMARK  6 active torsions:
REMARK  status: ('A' for Active; 'I' for Inactive)
REMARK    1  A    between atoms: C_2  and  C_22
REMARK    2  A    between atoms: N_3  and  C_4
REMARK    3  A    between atoms: C_4  and  C_5
REMARK    4  A    between atoms: C_5  and  C_6
REMARK    5  A    between atoms: C_5  and  N_12
REMARK    6  A    between atoms: N_24  and  C_25
REMARK                            x       y       z     vdW  Elec       q    Type
REMARK                         _______ _______ _______ _____ _____    ______ ____
ROOT
ATOM      1  C   UNL     1       3.684   6.486  17.319  0.00  0.00    +0.000 C 
ENDROOT
BRANCH   1   2
ATOM      2  N   UNL     1       3.529   5.902  18.668  0.00  0.00    +0.000 NA
ATOM      3  C   UNL     1       4.716   5.278  19.261  0.00  0.00    +0.000 C 
ATOM      4  C   UNL     1       4.657   3.754  19.360  0.00  0.00    +0.000 C 
ATOM      5  C   UNL     1       3.438   3.373  20.149  0.00  0.00    +0.000 A 
ATOM      6  C   UNL     1       3.452   2.300  21.043  0.00  0.00    +0.000 A 
ATOM      7  C   UNL     1       2.306   1.991  21.770  0.00  0.00    +0.000 A 
ATOM      8  C   UNL     1       1.143   2.740  21.594  0.00  0.00    +0.000 A 
ATOM      9  C   UNL     1       1.121   3.802  20.687  0.00  0.00    +0.000 A 
ATOM     10  C   UNL     1       2.273   4.135  19.965  0.00  0.00    +0.000 A 
ATOM     11  C   UNL     1       2.249   5.224  18.911  0.00  0.00    +0.000 C 
ENDBRANCH   1   2
BRANCH   1  12
ATOM     12  C   UNL     1       4.945   6.021  16.596  0.00  0.00    +0.000 A 
ATOM     13  C   UNL     1       4.921   4.878  15.782  0.00  0.00    +0.000 A 
ATOM     14  C   UNL     1       6.094   4.388  15.212  0.00  0.00    +0.000 A 
ATOM     15  C   UNL     1       7.269   5.076  15.446  0.00  0.00    +0.000 A 
ATOM     16  N   UNL     1       7.338   6.203  16.184  0.00  0.00    +0.000 NA
ATOM     17  C   UNL     1       6.181   6.646  16.736  0.00  0.00    +0.000 A 
ENDBRANCH   1  12
BRANCH   1  18
ATOM     18  C   UNL     1       3.507   8.038  17.405  0.00  0.00    +0.000 C 
BRANCH  18  21
ATOM     19  O   UNL     1       2.543  10.763  17.653  0.00  0.00    +0.000 OA
ATOM     20  C   UNL     1       1.892   9.804  18.040  0.00  0.00    +0.000 C 
ATOM     21  N   UNL     1       2.277   8.485  18.014  0.00  0.00    +0.000 N 
ATOM     22  H   UNL     1       1.561   7.810  18.280  0.00  0.00    +0.000 HD
BRANCH  20  23
ATOM     23  C   UNL     1       0.478  10.002  18.611  0.00  0.00    +0.000 C 
ATOM     24  O   UNL     1       0.307   9.786  19.803  0.00  0.00    +0.000 OA
ATOM     25  N   UNL     1      -0.441  10.367  17.651  0.00  0.00    +0.000 N 
ATOM     26  H   UNL     1      -0.102  10.348  16.692  0.00  0.00    +0.000 HD
BRANCH  25  27
ATOM     27  C   UNL     1      -1.793  10.673  17.879  0.00  0.00    +0.000 A 
ATOM     28  C   UNL     1      -2.197  11.789  18.619  0.00  0.00    +0.000 A 
ATOM     29  C   UNL     1      -3.551  12.048  18.834  0.00  0.00    +0.000 A 
ATOM     30  C   UNL     1      -4.514  11.190  18.310  0.00  0.00    +0.000 A 
ATOM     31  C   UNL     1      -4.122  10.086  17.553  0.00  0.00    +0.000 A 
ATOM     32  C   UNL     1      -2.765   9.835  17.326  0.00  0.00    +0.000 A 
ENDBRANCH  25  27
ENDBRANCH  20  23
ENDBRANCH  18  21
ENDBRANCH   1  18
TORSDOF 6
ENDMDL
MODEL 7
REMARK VINA RESULT:      -8.8      3.731      6.805
REMARK  Name = 
REMARK  6 active torsions:
REMARK  status: ('A' for Active; 'I' for Inactive)
REMARK    1  A    between atoms: C_2  and  C_22
REMARK    2  A    between atoms: N_3  and  C_4
REMARK    3  A    between atoms: C_4  and  C_5
REMARK    4  A    between atoms: C_5  and  C_6
REMARK    5  A    between atoms: C_5  and  N_12
REMARK    6  A    between atoms: N_24  and  C_25
REMARK                            x       y       z     vdW  Elec       q    Type
REMARK                         _______ _______ _______ _____ _____    ______ ____
ROOT
ATOM      1  C   UNL     1       4.188   5.580  16.609  0.00  0.00    +0.000 C 
ENDROOT
BRANCH   1   2
ATOM      2  N   UNL     1       3.712   4.422  17.395  0.00  0.00    +0.000 NA
ATOM      3  C   UNL     1       2.412   3.857  17.021  0.00  0.00    +0.000 C 
ATOM      4  C   UNL     1       1.289   4.110  18.027  0.00  0.00    +0.000 C 
ATOM      5  C   UNL     1       1.712   3.567  19.361  0.00  0.00    +0.000 A 
ATOM      6  C   UNL     1       0.803   2.942  20.217  0.00  0.00    +0.000 A 
ATOM      7  C   UNL     1       1.239   2.435  21.438  0.00  0.00    +0.000 A 
ATOM      8  C   UNL     1       2.576   2.566  21.813  0.00  0.00    +0.000 A 
ATOM      9  C   UNL     1       3.484   3.208  20.967  0.00  0.00    +0.000 A 
ATOM     10  C   UNL     1       3.062   3.704  19.728  0.00  0.00    +0.000 A 
ATOM     11  C   UNL     1       4.005   4.482  18.833  0.00  0.00    +0.000 C 
ENDBRANCH   1   2
BRANCH   1  12
ATOM     12  C   UNL     1       5.327   5.241  15.652  0.00  0.00    +0.000 A 
ATOM     13  C   UNL     1       5.105   4.403  14.548  0.00  0.00    +0.000 A 
ATOM     14  C   UNL     1       6.165   4.001  13.738  0.00  0.00    +0.000 A 
ATOM     15  C   UNL     1       7.429   4.474  14.036  0.00  0.00    +0.000 A 
ATOM     16  N   UNL     1       7.688   5.314  15.059  0.00  0.00    +0.000 NA
ATOM     17  C   UNL     1       6.636   5.675  15.836  0.00  0.00    +0.000 A 
ENDBRANCH   1  12
BRANCH   1  18
ATOM     18  C   UNL     1       4.475   6.776  17.577  0.00  0.00    +0.000 C 
BRANCH  18  21
ATOM     19  O   UNL     1       2.295   7.169  19.450  0.00  0.00    +0.000 OA
ATOM     20  C   UNL     1       2.514   7.947  18.534  0.00  0.00    +0.000 C 
ATOM     21  N   UNL     1       3.484   7.827  17.568  0.00  0.00    +0.000 N 
ATOM     22  H   UNL     1       3.591   8.626  16.945  0.00  0.00    +0.000 HD
BRANCH  20  23
ATOM     23  C   UNL     1       1.678   9.229  18.383  0.00  0.00    +0.000 C 
ATOM     24  O   UNL     1       1.986  10.011  17.494  0.00  0.00    +0.000 OA
ATOM     25  N   UNL     1       0.689   9.339  19.337  0.00  0.00    +0.000 N 
ATOM     26  H   UNL     1       0.711   8.635  20.071  0.00  0.00    +0.000 HD
BRANCH  25  27
ATOM     27  C   UNL     1      -0.264  10.367  19.420  0.00  0.00    +0.000 A 
ATOM     28  C   UNL     1      -0.208  11.369  20.394  0.00  0.00    +0.000 A 
ATOM     29  C   UNL     1      -1.184  12.363  20.449  0.00  0.00    +0.000 A 
ATOM     30  C   UNL     1      -2.228  12.363  19.528  0.00  0.00    +0.000 A 
ATOM     31  C   UNL     1      -2.283  11.380  18.541  0.00  0.00    +0.000 A 
ATOM     32  C   UNL     1      -1.296  10.392  18.476  0.00  0.00    +0.000 A 
ENDBRANCH  25  27
ENDBRANCH  20  23
ENDBRANCH  18  21
ENDBRANCH   1  18
TORSDOF 6
ENDMDL
MODEL 8
REMARK VINA RESULT:      -8.7      3.467      4.721
REMARK  Name = 
REMARK  6 active torsions:
REMARK  status: ('A' for Active; 'I' for Inactive)
REMARK    1  A    between atoms: C_2  and  C_22
REMARK    2  A    between atoms: N_3  and  C_4
REMARK    3  A    between atoms: C_4  and  C_5
REMARK    4  A    between atoms: C_5  and  C_6
REMARK    5  A    between atoms: C_5  and  N_12
REMARK    6  A    between atoms: N_24  and  C_25
REMARK                            x       y       z     vdW  Elec       q    Type
REMARK                         _______ _______ _______ _____ _____    ______ ____
ROOT
ATOM      1  C   UNL     1       2.819   5.588  18.865  0.00  0.00    +0.000 C 
ENDROOT
BRANCH   1   2
ATOM      2  N   UNL     1       1.826   6.675  19.012  0.00  0.00    +0.000 NA
ATOM      3  C   UNL     1       1.503   7.445  17.807  0.00  0.00    +0.000 C 
ATOM      4  C   UNL     1       2.032   8.879  17.801  0.00  0.00    +0.000 C 
ATOM      5  C   UNL     1       1.502   9.589  19.012  0.00  0.00    +0.000 A 
ATOM      6  C   UNL     1       1.120  10.931  18.963  0.00  0.00    +0.000 A 
ATOM      7  C   UNL     1       0.615  11.549  20.104  0.00  0.00    +0.000 A 
ATOM      8  C   UNL     1       0.507  10.833  21.296  0.00  0.00    +0.000 A 
ATOM      9  C   UNL     1       0.905   9.496  21.353  0.00  0.00    +0.000 A 
ATOM     10  C   UNL     1       1.396   8.858  20.207  0.00  0.00    +0.000 A 
ATOM     11  C   UNL     1       1.918   7.437  20.265  0.00  0.00    +0.000 C 
ENDBRANCH   1   2
BRANCH   1  12
ATOM     12  C   UNL     1       2.535   4.381  19.753  0.00  0.00    +0.000 A 
ATOM     13  C   UNL     1       1.257   4.177  20.295  0.00  0.00    +0.000 A 
ATOM     14  C   UNL     1       1.024   3.140  21.196  0.00  0.00    +0.000 A 
ATOM     15  C   UNL     1       2.078   2.304  21.513  0.00  0.00    +0.000 A 
ATOM     16  N   UNL     1       3.313   2.431  20.987  0.00  0.00    +0.000 NA
ATOM     17  C   UNL     1       3.510   3.459  20.124  0.00  0.00    +0.000 A 
ENDBRANCH   1  12
BRANCH   1  18
ATOM     18  C   UNL     1       4.259   6.185  19.002  0.00  0.00    +0.000 C 
BRANCH  18  21
ATOM     19  O   UNL     1       6.616   4.503  19.172  0.00  0.00    +0.000 OA
ATOM     20  C   UNL     1       6.242   4.994  18.118  0.00  0.00    +0.000 C 
ATOM     21  N   UNL     1       5.173   5.839  17.940  0.00  0.00    +0.000 N 
ATOM     22  H   UNL     1       4.944   6.065  16.973  0.00  0.00    +0.000 HD
BRANCH  20  23
ATOM     23  C   UNL     1       6.971   4.669  16.804  0.00  0.00    +0.000 C 
ATOM     24  O   UNL     1       8.119   4.249  16.876  0.00  0.00    +0.000 OA
ATOM     25  N   UNL     1       6.214   4.948  15.687  0.00  0.00    +0.000 N 
ATOM     26  H   UNL     1       5.336   5.429  15.865  0.00  0.00    +0.000 HD
BRANCH  25  27
ATOM     27  C   UNL     1       6.589   4.704  14.356  0.00  0.00    +0.000 A 
ATOM     28  C   UNL     1       7.613   5.414  13.721  0.00  0.00    +0.000 A 
ATOM     29  C   UNL     1       7.944   5.148  12.392  0.00  0.00    +0.000 A 
ATOM     30  C   UNL     1       7.251   4.170  11.685  0.00  0.00    +0.000 A 
ATOM     31  C   UNL     1       6.242   3.442  12.316  0.00  0.00    +0.000 A 
ATOM     32  C   UNL     1       5.920   3.698  13.653  0.00  0.00    +0.000 A 
ENDBRANCH  25  27
ENDBRANCH  20  23
ENDBRANCH  18  21
ENDBRANCH   1  18
TORSDOF 6
ENDMDL
MODEL 9
REMARK VINA RESULT:      -8.7      1.219      1.607
REMARK  Name = 
REMARK  6 active torsions:
REMARK  status: ('A' for Active; 'I' for Inactive)
REMARK    1  A    between atoms: C_2  and  C_22
REMARK    2  A    between atoms: N_3  and  C_4
REMARK    3  A    between atoms: C_4  and  C_5
REMARK    4  A    between atoms: C_5  and  C_6
REMARK    5  A    between atoms: C_5  and  N_12
REMARK    6  A    between atoms: N_24  and  C_25
REMARK                            x       y       z     vdW  Elec       q    Type
REMARK                         _______ _______ _______ _____ _____    ______ ____
ROOT
ATOM      1  C   UNL     1       4.390   5.659  17.150  0.00  0.00    +0.000 C 
ENDROOT
BRANCH   1   2
ATOM      2  N   UNL     1       3.985   6.754  18.057  0.00  0.00    +0.000 NA
ATOM      3  C   UNL     1       3.823   6.415  19.474  0.00  0.00    +0.000 C 
ATOM      4  C   UNL     1       2.377   6.412  19.971  0.00  0.00    +0.000 C 
ATOM      5  C   UNL     1       1.777   7.761  19.701  0.00  0.00    +0.000 A 
ATOM      6  C   UNL     1       0.892   8.360  20.601  0.00  0.00    +0.000 A 
ATOM      7  C   UNL     1       0.371   9.620  20.324  0.00  0.00    +0.000 A 
ATOM      8  C   UNL     1       0.718  10.275  19.142  0.00  0.00    +0.000 A 
ATOM      9  C   UNL     1       1.588   9.671  18.232  0.00  0.00    +0.000 A 
ATOM     10  C   UNL     1       2.134   8.412  18.509  0.00  0.00    +0.000 A 
ATOM     11  C   UNL     1       3.007   7.697  17.498  0.00  0.00    +0.000 C 
ENDBRANCH   1   2
BRANCH   1  12
ATOM     12  C   UNL     1       3.960   4.277  17.634  0.00  0.00    +0.000 A 
ATOM     13  C   UNL     1       2.728   3.733  17.238  0.00  0.00    +0.000 A 
ATOM     14  C   UNL     1       2.284   2.524  17.766  0.00  0.00    +0.000 A 
ATOM     15  C   UNL     1       3.102   1.865  18.664  0.00  0.00    +0.000 A 
ATOM     16  N   UNL     1       4.312   2.323  19.043  0.00  0.00    +0.000 NA
ATOM     17  C   UNL     1       4.710   3.510  18.521  0.00  0.00    +0.000 A 
ENDBRANCH   1  12
BRANCH   1  18
ATOM     18  C   UNL     1       5.913   5.798  16.821  0.00  0.00    +0.000 C 
BRANCH  18  21
ATOM     19  O   UNL     1       8.025   6.443  18.703  0.00  0.00    +0.000 OA
ATOM     20  C   UNL     1       7.520   7.286  17.977  0.00  0.00    +0.000 C 
ATOM     21  N   UNL     1       6.487   7.095  17.092  0.00  0.00    +0.000 N 
ATOM     22  H   UNL     1       6.266   7.889  16.491  0.00  0.00    +0.000 HD
BRANCH  20  23
ATOM     23  C   UNL     1       8.048   8.730  17.976  0.00  0.00    +0.000 C 
ATOM     24  O   UNL     1       7.696   9.467  17.065  0.00  0.00    +0.000 OA
ATOM     25  N   UNL     1       8.910   8.986  19.020  0.00  0.00    +0.000 N 
ATOM     26  H   UNL     1       9.173   8.177  19.578  0.00  0.00    +0.000 HD
BRANCH  25  27
ATOM     27  C   UNL     1       9.505  10.225  19.313  0.00  0.00    +0.000 A 
ATOM     28  C   UNL     1      10.237  10.949  18.367  0.00  0.00    +0.000 A 
ATOM     29  C   UNL     1      10.823  12.169  18.704  0.00  0.00    +0.000 A 
ATOM     30  C   UNL     1      10.681  12.676  19.993  0.00  0.00    +0.000 A 
ATOM     31  C   UNL     1       9.936  11.970  20.938  0.00  0.00    +0.000 A 
ATOM     32  C   UNL     1       9.336  10.754  20.595  0.00  0.00    +0.000 A 
ENDBRANCH  25  27
ENDBRANCH  20  23
ENDBRANCH  18  21
ENDBRANCH   1  18
TORSDOF 6
ENDMDL
