MODEL 1
REMARK VINA RESULT:      -7.9      0.000      0.000
REMARK  Name = 
REMARK  0 active torsions:
REMARK  status: ('A' for Active; 'I' for Inactive)
REMARK                            x       y       z     vdW  Elec       q    Type
REMARK                         _______ _______ _______ _____ _____    ______ ____
ROOT
ATOM      1  O   UNL     1       2.375   3.295  16.571  0.00  0.00    +0.000 OA
ATOM      2  C   UNL     1       3.078   3.273  17.571  0.00  0.00    +0.000 C 
ATOM      3  C   UNL     1       2.580   2.736  18.895  0.00  0.00    +0.000 C 
ATOM      4  C   UNL     1       1.325   3.452  19.441  0.00  0.00    +0.000 C 
ATOM      5  C   UNL     1       1.038   2.928  20.840  0.00  0.00    +0.000 C 
ATOM      6  C   UNL     1       2.001   3.396  21.651  0.00  0.00    +0.000 C 
ATOM      7  C   UNL     1       2.949   4.195  20.790  0.00  0.00    +0.000 C 
ATOM      8  C   UNL     1       1.904   4.812  19.850  0.00  0.00    +0.000 C 
ATOM      9  C   UNL     1       3.668   3.162  19.900  0.00  0.00    +0.000 C 
ATOM     10  C   UNL     1       4.769   3.731  19.067  0.00  0.00    +0.000 C 
ATOM     11  O   UNL     1       5.845   4.038  19.560  0.00  0.00    +0.000 OA
ATOM     12  N   UNL     1       4.356   3.758  17.759  0.00  0.00    +0.000 N 
ATOM     13  C   UNL     1       5.152   4.132  16.687  0.00  0.00    +0.000 A 
ATOM     14  N   UNL     1       4.950   3.804  15.431  0.00  0.00    +0.000 NA
ATOM     15  C   UNL     1       5.998   4.239  14.641  0.00  0.00    +0.000 A 
ATOM     16  C   UNL     1       6.967   4.963  15.295  0.00  0.00    +0.000 A 
ATOM     17  S   UNL     1       6.554   5.101  16.946  0.00  0.00    +0.000 S 
ENDROOT
TORSDOF 0
ENDMDL
MODEL 2
REMARK VINA RESULT:      -7.7      2.171      3.064
REMARK  Name = 
REMARK  0 active torsions:
REMARK  status: ('A' for Active; 'I' for Inactive)
REMARK                            x       y       z     vdW  Elec       q    Type
REMARK                         _______ _______ _______ _____ _____    ______ ____
ROOT
ATOM      1  O   UNL     1       5.286   2.910  19.858  0.00  0.00    +0.000 OA
ATOM      2  C   UNL     1       4.423   3.708  19.524  0.00  0.00    +0.000 C 
ATOM      3  C   UNL     1       2.953   3.466  19.789  0.00  0.00    +0.000 C 
ATOM      4  C   UNL     1       2.400   2.164  19.167  0.00  0.00    +0.000 C 
ATOM      5  C   UNL     1       0.892   2.134  19.368  0.00  0.00    +0.000 C 
ATOM      6  C   UNL     1       0.359   3.074  18.570  0.00  0.00    +0.000 C 
ATOM      7  C   UNL     1       1.509   3.756  17.869  0.00  0.00    +0.000 C 
ATOM      8  C   UNL     1       2.396   2.519  17.674  0.00  0.00    +0.000 C 
ATOM      9  C   UNL     1       2.243   4.557  18.964  0.00  0.00    +0.000 C 
ATOM     10  C   UNL     1       3.337   5.435  18.452  0.00  0.00    +0.000 C 
ATOM     11  O   UNL     1       3.091   6.481  17.868  0.00  0.00    +0.000 OA
ATOM     12  N   UNL     1       4.541   4.886  18.813  0.00  0.00    +0.000 N 
ATOM     13  C   UNL     1       5.775   5.477  18.594  0.00  0.00    +0.000 A 
ATOM     14  N   UNL     1       6.882   5.205  19.249  0.00  0.00    +0.000 NA
ATOM     15  C   UNL     1       7.896   6.062  18.863  0.00  0.00    +0.000 A 
ATOM     16  C   UNL     1       7.573   6.943  17.857  0.00  0.00    +0.000 A 
ATOM     17  S   UNL     1       5.951   6.692  17.384  0.00  0.00    +0.000 S 
ENDROOT
TORSDOF 0
ENDMDL
MODEL 3
REMARK VINA RESULT:      -7.4      2.080      2.210
REMARK  Name = 
REMARK  0 active torsions:
REMARK  status: ('A' for Active; 'I' for Inactive)
REMARK                            x       y       z     vdW  Elec       q    Type
REMARK                         _______ _______ _______ _____ _____    ______ ____
ROOT
ATOM      1  O   UNL     1       2.671   6.569  18.085  0.00  0.00    +0.000 OA
ATOM      2  C   UNL     1       3.117   5.484  18.430  0.00  0.00    +0.000 C 
ATOM      3  C   UNL     1       2.220   4.312  18.762  0.00  0.00    +0.000 C 
ATOM      4  C   UNL     1       1.209   4.584  19.898  0.00  0.00    +0.000 C 
ATOM      5  C   UNL     1       0.496   3.283  20.234  0.00  0.00    +0.000 C 
ATOM      6  C   UNL     1       1.387   2.480  20.839  0.00  0.00    +0.000 C 
ATOM      7  C   UNL     1       2.699   3.225  20.870  0.00  0.00    +0.000 C 
ATOM      8  C   UNL     1       2.133   4.629  21.122  0.00  0.00    +0.000 C 
ATOM      9  C   UNL     1       3.174   3.286  19.404  0.00  0.00    +0.000 C 
ATOM     10  C   UNL     1       4.542   3.858  19.226  0.00  0.00    +0.000 C 
ATOM     11  O   UNL     1       5.541   3.213  19.511  0.00  0.00    +0.000 OA
ATOM     12  N   UNL     1       4.423   5.104  18.667  0.00  0.00    +0.000 N 
ATOM     13  C   UNL     1       5.489   5.895  18.267  0.00  0.00    +0.000 A 
ATOM     14  N   UNL     1       5.431   6.875  17.394  0.00  0.00    +0.000 NA
ATOM     15  C   UNL     1       6.696   7.371  17.136  0.00  0.00    +0.000 A 
ATOM     16  C   UNL     1       7.711   6.807  17.873  0.00  0.00    +0.000 A 
ATOM     17  S   UNL     1       7.061   5.621  18.917  0.00  0.00    +0.000 S 
ENDROOT
TORSDOF 0
ENDMDL
MODEL 4
REMARK VINA RESULT:      -7.1      1.913      5.576
REMARK  Name = 
REMARK  0 active torsions:
REMARK  status: ('A' for Active; 'I' for Inactive)
REMARK                            x       y       z     vdW  Elec       q    Type
REMARK                         _______ _______ _______ _____ _____    ______ ____
ROOT
ATOM      1  O   UNL     1       5.757   4.472  19.862  0.00  0.00    +0.000 OA
ATOM      2  C   UNL     1       5.222   4.119  18.822  0.00  0.00    +0.000 C 
ATOM      3  C   UNL     1       5.969   4.073  17.506  0.00  0.00    +0.000 C 
ATOM      4  C   UNL     1       6.580   5.424  17.073  0.00  0.00    +0.000 C 
ATOM      5  C   UNL     1       7.149   5.271  15.671  0.00  0.00    +0.000 C 
ATOM      6  C   UNL     1       6.113   5.149  14.826  0.00  0.00    +0.000 C 
ATOM      7  C   UNL     1       4.857   5.181  15.664  0.00  0.00    +0.000 C 
ATOM      8  C   UNL     1       5.323   6.219  16.694  0.00  0.00    +0.000 C 
ATOM      9  C   UNL     1       4.859   3.859  16.458  0.00  0.00    +0.000 C 
ATOM     10  C   UNL     1       3.615   3.617  17.249  0.00  0.00    +0.000 C 
ATOM     11  O   UNL     1       2.575   3.276  16.705  0.00  0.00    +0.000 OA
ATOM     12  N   UNL     1       3.906   3.782  18.579  0.00  0.00    +0.000 N 
ATOM     13  C   UNL     1       3.018   3.542  19.616  0.00  0.00    +0.000 A 
ATOM     14  N   UNL     1       3.347   3.300  20.865  0.00  0.00    +0.000 NA
ATOM     15  C   UNL     1       2.226   2.983  21.609  0.00  0.00    +0.000 A 
ATOM     16  C   UNL     1       1.030   3.054  20.933  0.00  0.00    +0.000 A 
ATOM     17  S   UNL     1       1.321   3.529  19.318  0.00  0.00    +0.000 S 
ENDROOT
TORSDOF 0
ENDMDL
MODEL 5
REMARK VINA RESULT:      -7.1      1.213      1.335
REMARK  Name = 
REMARK  0 active torsions:
REMARK  status: ('A' for Active; 'I' for Inactive)
REMARK                            x       y       z     vdW  Elec       q    Type
REMARK                         _______ _______ _______ _____ _____    ______ ____
ROOT
ATOM      1  O   UNL     1       3.841   1.726  17.393  0.00  0.00    +0.000 OA
ATOM      2  C   UNL     1       3.896   2.732  18.085  0.00  0.00    +0.000 C 
ATOM      3  C   UNL     1       3.366   2.765  19.503  0.00  0.00    +0.000 C 
ATOM      4  C   UNL     1       1.870   2.405  19.633  0.00  0.00    +0.000 C 
ATOM      5  C   UNL     1       1.439   2.639  21.073  0.00  0.00    +0.000 C 
ATOM      6  C   UNL     1       1.426   3.966  21.279  0.00  0.00    +0.000 C 
ATOM      7  C   UNL     1       1.885   4.614  19.995  0.00  0.00    +0.000 C 
ATOM      8  C   UNL     1       1.204   3.644  19.020  0.00  0.00    +0.000 C 
ATOM      9  C   UNL     1       3.381   4.262  19.868  0.00  0.00    +0.000 C 
ATOM     10  C   UNL     1       4.075   4.936  18.730  0.00  0.00    +0.000 C 
ATOM     11  O   UNL     1       4.370   6.122  18.780  0.00  0.00    +0.000 OA
ATOM     12  N   UNL     1       4.334   4.000  17.762  0.00  0.00    +0.000 N 
ATOM     13  C   UNL     1       5.054   4.242  16.603  0.00  0.00    +0.000 A 
ATOM     14  N   UNL     1       5.655   3.332  15.870  0.00  0.00    +0.000 NA
ATOM     15  C   UNL     1       6.383   3.927  14.857  0.00  0.00    +0.000 A 
ATOM     16  C   UNL     1       6.275   5.296  14.780  0.00  0.00    +0.000 A 
ATOM     17  S   UNL     1       5.234   5.852  16.015  0.00  0.00    +0.000 S 
ENDROOT
TORSDOF 0
ENDMDL
MODEL 6
REMARK VINA RESULT:      -6.9      1.472      2.382
REMARK  Name = 
REMARK  0 active torsions:
REMARK  status: ('A' for Active; 'I' for Inactive)
REMARK                            x       y       z     vdW  Elec       q    Type
REMARK                         _______ _______ _______ _____ _____    ______ ____
ROOT
ATOM      1  O   UNL     1       5.338   2.662  19.777  0.00  0.00    +0.000 OA
ATOM      2  C   UNL     1       4.508   3.516  19.504  0.00  0.00    +0.000 C 
ATOM      3  C   UNL     1       3.256   3.716  20.330  0.00  0.00    +0.000 C 
ATOM      4  C   UNL     1       2.357   2.464  20.439  0.00  0.00    +0.000 C 
ATOM      5  C   UNL     1       1.068   2.853  21.147  0.00  0.00    +0.000 C 
ATOM      6  C   UNL     1       0.365   3.630  20.308  0.00  0.00    +0.000 C 
ATOM      7  C   UNL     1       1.198   3.793  19.059  0.00  0.00    +0.000 C 
ATOM      8  C   UNL     1       1.786   2.376  19.017  0.00  0.00    +0.000 C 
ATOM      9  C   UNL     1       2.397   4.669  19.475  0.00  0.00    +0.000 C 
ATOM     10  C   UNL     1       3.278   5.080  18.342  0.00  0.00    +0.000 C 
ATOM     11  O   UNL     1       2.933   5.947  17.552  0.00  0.00    +0.000 OA
ATOM     12  N   UNL     1       4.456   4.383  18.431  0.00  0.00    +0.000 N 
ATOM     13  C   UNL     1       5.552   4.576  17.605  0.00  0.00    +0.000 A 
ATOM     14  N   UNL     1       6.792   4.243  17.886  0.00  0.00    +0.000 NA
ATOM     15  C   UNL     1       7.650   4.688  16.898  0.00  0.00    +0.000 A 
ATOM     16  C   UNL     1       7.046   5.302  15.826  0.00  0.00    +0.000 A 
ATOM     17  S   UNL     1       5.355   5.324  16.065  0.00  0.00    +0.000 S 
ENDROOT
TORSDOF 0
ENDMDL
MODEL 7
REMARK VINA RESULT:      -6.8      1.290      1.312
REMARK  Name = 
REMARK  0 active torsions:
REMARK  status: ('A' for Active; 'I' for Inactive)
REMARK                            x       y       z     vdW  Elec       q    Type
REMARK                         _______ _______ _______ _____ _____    ______ ____
ROOT
ATOM      1  O   UNL     1       2.158   5.344  17.505  0.00  0.00    +0.000 OA
ATOM      2  C   UNL     1       2.742   4.490  18.155  0.00  0.00    +0.000 C 
ATOM      3  C   UNL     1       2.004   3.468  18.992  0.00  0.00    +0.000 C 
ATOM      4  C   UNL     1       1.083   4.076  20.073  0.00  0.00    +0.000 C 
ATOM      5  C   UNL     1       0.540   2.947  20.937  0.00  0.00    +0.000 C 
ATOM      6  C   UNL     1       1.560   2.475  21.672  0.00  0.00    +0.000 C 
ATOM      7  C   UNL     1       2.787   3.258  21.272  0.00  0.00    +0.000 C 
ATOM      8  C   UNL     1       2.108   4.621  21.075  0.00  0.00    +0.000 C 
ATOM      9  C   UNL     1       3.112   2.807  19.833  0.00  0.00    +0.000 C 
ATOM     10  C   UNL     1       4.393   3.355  19.294  0.00  0.00    +0.000 C 
ATOM     11  O   UNL     1       5.474   2.920  19.662  0.00  0.00    +0.000 OA
ATOM     12  N   UNL     1       4.096   4.301  18.346  0.00  0.00    +0.000 N 
ATOM     13  C   UNL     1       5.034   4.954  17.562  0.00  0.00    +0.000 A 
ATOM     14  N   UNL     1       4.795   5.541  16.411  0.00  0.00    +0.000 NA
ATOM     15  C   UNL     1       5.973   5.983  15.838  0.00  0.00    +0.000 A 
ATOM     16  C   UNL     1       7.105   5.790  16.595  0.00  0.00    +0.000 A 
ATOM     17  S   UNL     1       6.681   5.031  18.065  0.00  0.00    +0.000 S 
ENDROOT
TORSDOF 0
ENDMDL
MODEL 8
REMARK VINA RESULT:      -6.8      1.223      2.492
REMARK  Name = 
REMARK  0 active torsions:
REMARK  status: ('A' for Active; 'I' for Inactive)
REMARK                            x       y       z     vdW  Elec       q    Type
REMARK                         _______ _______ _______ _____ _____    ______ ____
ROOT
ATOM      1  O   UNL     1       5.082   5.468  19.756  0.00  0.00    +0.000 OA
ATOM      2  C   UNL     1       4.193   5.001  19.059  0.00  0.00    +0.000 C 
ATOM      3  C   UNL     1       2.784   4.803  19.573  0.00  0.00    +0.000 C 
ATOM      4  C   UNL     1       2.682   3.894  20.818  0.00  0.00    +0.000 C 
ATOM      5  C   UNL     1       1.211   3.651  21.122  0.00  0.00    +0.000 C 
ATOM      6  C   UNL     1       0.726   2.855  20.154  0.00  0.00    +0.000 C 
ATOM      7  C   UNL     1       1.857   2.601  19.187  0.00  0.00    +0.000 C 
ATOM      8  C   UNL     1       2.994   2.518  20.216  0.00  0.00    +0.000 C 
ATOM      9  C   UNL     1       2.108   3.950  18.483  0.00  0.00    +0.000 C 
ATOM     10  C   UNL     1       3.099   3.883  17.367  0.00  0.00    +0.000 C 
ATOM     11  O   UNL     1       2.808   3.387  16.289  0.00  0.00    +0.000 OA
ATOM     12  N   UNL     1       4.253   4.503  17.773  0.00  0.00    +0.000 N 
ATOM     13  C   UNL     1       5.359   4.721  16.965  0.00  0.00    +0.000 A 
ATOM     14  N   UNL     1       6.289   5.626  17.167  0.00  0.00    +0.000 NA
ATOM     15  C   UNL     1       7.176   5.655  16.107  0.00  0.00    +0.000 A 
ATOM     16  C   UNL     1       6.955   4.715  15.128  0.00  0.00    +0.000 A 
ATOM     17  S   UNL     1       5.595   3.771  15.547  0.00  0.00    +0.000 S 
ENDROOT
TORSDOF 0
ENDMDL
MODEL 9
REMARK VINA RESULT:      -6.6      1.995      2.642
REMARK  Name = 
REMARK  0 active torsions:
REMARK  status: ('A' for Active; 'I' for Inactive)
REMARK                            x       y       z     vdW  Elec       q    Type
REMARK                         _______ _______ _______ _____ _____    ______ ____
ROOT
ATOM      1  O   UNL     1       3.009   6.655  19.165  0.00  0.00    +0.000 OA
ATOM      2  C   UNL     1       3.084   5.622  18.517  0.00  0.00    +0.000 C 
ATOM      3  C   UNL     1       1.918   4.666  18.386  0.00  0.00    +0.000 C 
ATOM      4  C   UNL     1       1.382   4.127  19.730  0.00  0.00    +0.000 C 
ATOM      5  C   UNL     1       0.334   3.062  19.441  0.00  0.00    +0.000 C 
ATOM      6  C   UNL     1       0.975   1.990  18.945  0.00  0.00    +0.000 C 
ATOM      7  C   UNL     1       2.438   2.352  18.865  0.00  0.00    +0.000 C 
ATOM      8  C   UNL     1       2.516   3.183  20.153  0.00  0.00    +0.000 C 
ATOM      9  C   UNL     1       2.541   3.409  17.747  0.00  0.00    +0.000 C 
ATOM     10  C   UNL     1       3.940   3.798  17.399  0.00  0.00    +0.000 C 
ATOM     11  O   UNL     1       4.661   3.057  16.748  0.00  0.00    +0.000 OA
ATOM     12  N   UNL     1       4.168   5.067  17.868  0.00  0.00    +0.000 N 
ATOM     13  C   UNL     1       5.326   5.795  17.643  0.00  0.00    +0.000 A 
ATOM     14  N   UNL     1       5.436   7.102  17.716  0.00  0.00    +0.000 NA
ATOM     15  C   UNL     1       6.695   7.507  17.313  0.00  0.00    +0.000 A 
ATOM     16  C   UNL     1       7.568   6.491  16.999  0.00  0.00    +0.000 A 
ATOM     17  S   UNL     1       6.787   4.987  17.213  0.00  0.00    +0.000 S 
ENDROOT
TORSDOF 0
ENDMDL
