MODEL 1
REMARK VINA RESULT:      -8.0      0.000      0.000
REMARK  Name = 
REMARK  8 active torsions:
REMARK  status: ('A' for Active; 'I' for Inactive)
REMARK    1  A    between atoms: C_1  and  C_2
REMARK    2  A    between atoms: C_4  and  C_5
REMARK    3  A    between atoms: N_13  and  C_14
REMARK    4  A    between atoms: C_14  and  C_15
REMARK    5  A    between atoms: C_15  and  N_16
REMARK    6  A    between atoms: N_19  and  C_20
REMARK    7  A    between atoms: N_19  and  C_21
REMARK    8  A    between atoms: C_22  and  C_23
REMARK                            x       y       z     vdW  Elec       q    Type
REMARK                         _______ _______ _______ _____ _____    ______ ____
ROOT
ATOM      1  C   UNL     1       3.871   2.645  20.114  0.00  0.00    +0.000 C 
ATOM      2  C   UNL     1       3.900   3.897  19.285  0.00  0.00    +0.000 A 
ATOM      3  N   UNL     1       4.689   3.848  18.197  0.00  0.00    +0.000 NA
ATOM      4  C   UNL     1       4.693   4.921  17.392  0.00  0.00    +0.000 A 
ATOM      5  N   UNL     1       3.954   6.025  17.596  0.00  0.00    +0.000 NA
ATOM      6  C   UNL     1       3.186   6.075  18.699  0.00  0.00    +0.000 A 
ATOM      7  N   UNL     1       2.396   7.208  18.926  0.00  0.00    +0.000 N 
ATOM      8  C   UNL     1       3.131   5.012  19.602  0.00  0.00    +0.000 A 
ATOM      9  C   UNL     1       2.256   5.011  20.821  0.00  0.00    +0.000 C 
ATOM     10  H   UNL     1       2.612   7.613  19.833  0.00  0.00    +0.000 HD
ENDROOT
BRANCH   4  11
ATOM     11  C   UNL     1       5.542   4.860  16.196  0.00  0.00    +0.000 A 
ATOM     12  C   UNL     1       5.197   4.128  15.050  0.00  0.00    +0.000 A 
ATOM     13  C   UNL     1       6.052   4.088  13.948  0.00  0.00    +0.000 A 
ATOM     14  C   UNL     1       7.244   4.789  14.012  0.00  0.00    +0.000 A 
ATOM     15  N   UNL     1       7.622   5.515  15.083  0.00  0.00    +0.000 NA
ATOM     16  C   UNL     1       6.762   5.532  16.135  0.00  0.00    +0.000 A 
ENDBRANCH   4  11
BRANCH   7  17
ATOM     17  C   UNL     1       2.294   8.227  17.881  0.00  0.00    +0.000 C 
BRANCH  17  18
ATOM     18  C   UNL     1       1.604   9.482  18.441  0.00  0.00    +0.000 C 
BRANCH  18  19
ATOM     19  N   UNL     1       0.294   9.714  17.855  0.00  0.00    +0.000 N 
ATOM     20  C   UNL     1      -0.625  10.529  18.454  0.00  0.00    +0.000 C 
ATOM     21  O   UNL     1      -0.357  11.117  19.499  0.00  0.00    +0.000 OA
ATOM     22  N   UNL     1      -1.847  10.654  17.817  0.00  0.00    +0.000 N 
ATOM     23  C   UNL     1      -2.227  10.106  16.522  0.00  0.00    +0.000 C 
ATOM     24  C   UNL     1      -2.865  11.482  18.449  0.00  0.00    +0.000 C 
ATOM     25  H   UNL     1       0.030   9.121  17.090  0.00  0.00    +0.000 HD
ENDBRANCH  18  19
ENDBRANCH  17  18
ENDBRANCH   7  17
TORSDOF 4
ENDMDL
MODEL 2
REMARK VINA RESULT:      -7.8      1.591      2.027
REMARK  Name = 
REMARK  8 active torsions:
REMARK  status: ('A' for Active; 'I' for Inactive)
REMARK    1  A    between atoms: C_1  and  C_2
REMARK    2  A    between atoms: C_4  and  C_5
REMARK    3  A    between atoms: N_13  and  C_14
REMARK    4  A    between atoms: C_14  and  C_15
REMARK    5  A    between atoms: C_15  and  N_16
REMARK    6  A    between atoms: N_19  and  C_20
REMARK    7  A    between atoms: N_19  and  C_21
REMARK    8  A    between atoms: C_22  and  C_23
REMARK                            x       y       z     vdW  Elec       q    Type
REMARK                         _______ _______ _______ _____ _____    ______ ____
ROOT
ATOM      1  C   UNL     1       3.654   2.749  20.106  0.00  0.00    +0.000 C 
ATOM      2  C   UNL     1       3.730   4.001  19.280  0.00  0.00    +0.000 A 
ATOM      3  N   UNL     1       4.544   3.937  18.211  0.00  0.00    +0.000 NA
ATOM      4  C   UNL     1       4.590   5.011  17.409  0.00  0.00    +0.000 A 
ATOM      5  N   UNL     1       3.870   6.131  17.598  0.00  0.00    +0.000 NA
ATOM      6  C   UNL     1       3.078   6.195  18.682  0.00  0.00    +0.000 A 
ATOM      7  N   UNL     1       2.306   7.344  18.893  0.00  0.00    +0.000 N 
ATOM      8  C   UNL     1       2.977   5.132  19.581  0.00  0.00    +0.000 A 
ATOM      9  C   UNL     1       2.073   5.147  20.779  0.00  0.00    +0.000 C 
ATOM     10  H   UNL     1       2.510   7.743  19.805  0.00  0.00    +0.000 HD
ENDROOT
BRANCH   4  11
ATOM     11  C   UNL     1       5.466   4.934  16.234  0.00  0.00    +0.000 A 
ATOM     12  C   UNL     1       5.164   4.159  15.104  0.00  0.00    +0.000 A 
ATOM     13  C   UNL     1       6.043   4.106  14.022  0.00  0.00    +0.000 A 
ATOM     14  C   UNL     1       7.217   4.838  14.090  0.00  0.00    +0.000 A 
ATOM     15  N   UNL     1       7.554   5.605  15.145  0.00  0.00    +0.000 NA
ATOM     16  C   UNL     1       6.671   5.634  16.178  0.00  0.00    +0.000 A 
ENDBRANCH   4  11
BRANCH   7  17
ATOM     17  C   UNL     1       2.252   8.367  17.848  0.00  0.00    +0.000 C 
BRANCH  17  18
ATOM     18  C   UNL     1       1.434   9.572  18.339  0.00  0.00    +0.000 C 
BRANCH  18  19
ATOM     19  N   UNL     1       1.185   9.540  19.772  0.00  0.00    +0.000 N 
ATOM     20  C   UNL     1       0.186  10.277  20.343  0.00  0.00    +0.000 C 
ATOM     21  O   UNL     1      -0.557  10.971  19.652  0.00  0.00    +0.000 OA
ATOM     22  N   UNL     1       0.060  10.186  21.717  0.00  0.00    +0.000 N 
ATOM     23  C   UNL     1       0.799   9.307  22.615  0.00  0.00    +0.000 C 
ATOM     24  C   UNL     1      -0.968  10.989  22.364  0.00  0.00    +0.000 C 
ATOM     25  H   UNL     1       1.881   9.095  20.340  0.00  0.00    +0.000 HD
ENDBRANCH  18  19
ENDBRANCH  17  18
ENDBRANCH   7  17
TORSDOF 4
ENDMDL
MODEL 3
REMARK VINA RESULT:      -7.8      2.915      6.923
REMARK  Name = 
REMARK  8 active torsions:
REMARK  status: ('A' for Active; 'I' for Inactive)
REMARK    1  A    between atoms: C_1  and  C_2
REMARK    2  A    between atoms: C_4  and  C_5
REMARK    3  A    between atoms: N_13  and  C_14
REMARK    4  A    between atoms: C_14  and  C_15
REMARK    5  A    between atoms: C_15  and  N_16
REMARK    6  A    between atoms: N_19  and  C_20
REMARK    7  A    between atoms: N_19  and  C_21
REMARK    8  A    between atoms: C_22  and  C_23
REMARK                            x       y       z     vdW  Elec       q    Type
REMARK                         _______ _______ _______ _____ _____    ______ ____
ROOT
ATOM      1  C   UNL     1       2.400   2.873  21.476  0.00  0.00    +0.000 C 
ATOM      2  C   UNL     1       2.720   3.599  20.201  0.00  0.00    +0.000 A 
ATOM      3  N   UNL     1       2.327   4.884  20.156  0.00  0.00    +0.000 NA
ATOM      4  C   UNL     1       2.651   5.589  19.062  0.00  0.00    +0.000 A 
ATOM      5  N   UNL     1       3.349   5.097  18.023  0.00  0.00    +0.000 NA
ATOM      6  C   UNL     1       3.718   3.806  18.065  0.00  0.00    +0.000 A 
ATOM      7  N   UNL     1       4.459   3.274  17.003  0.00  0.00    +0.000 N 
ATOM      8  C   UNL     1       3.411   2.991  19.157  0.00  0.00    +0.000 A 
ATOM      9  C   UNL     1       3.839   1.556  19.262  0.00  0.00    +0.000 C 
ATOM     10  H   UNL     1       3.984   2.466  16.611  0.00  0.00    +0.000 HD
ENDROOT
BRANCH   4  11
ATOM     11  C   UNL     1       2.236   6.996  19.022  0.00  0.00    +0.000 A 
ATOM     12  C   UNL     1       2.292   7.777  17.859  0.00  0.00    +0.000 A 
ATOM     13  C   UNL     1       1.904   9.117  17.881  0.00  0.00    +0.000 A 
ATOM     14  C   UNL     1       1.459   9.654  19.078  0.00  0.00    +0.000 A 
ATOM     15  N   UNL     1       1.377   8.949  20.224  0.00  0.00    +0.000 NA
ATOM     16  C   UNL     1       1.761   7.647  20.161  0.00  0.00    +0.000 A 
ENDBRANCH   4  11
BRANCH   7  17
ATOM     17  C   UNL     1       4.957   4.175  15.963  0.00  0.00    +0.000 C 
BRANCH  17  18
ATOM     18  C   UNL     1       6.494   4.181  15.970  0.00  0.00    +0.000 C 
BRANCH  18  19
ATOM     19  N   UNL     1       7.051   4.765  17.180  0.00  0.00    +0.000 N 
ATOM     20  C   UNL     1       7.352   6.096  17.260  0.00  0.00    +0.000 C 
ATOM     21  O   UNL     1       7.130   6.849  16.314  0.00  0.00    +0.000 OA
ATOM     22  N   UNL     1       7.900   6.534  18.452  0.00  0.00    +0.000 N 
ATOM     23  C   UNL     1       8.090   5.761  19.673  0.00  0.00    +0.000 C 
ATOM     24  C   UNL     1       8.271   7.938  18.559  0.00  0.00    +0.000 C 
ATOM     25  H   UNL     1       7.365   4.126  17.886  0.00  0.00    +0.000 HD
ENDBRANCH  18  19
ENDBRANCH  17  18
ENDBRANCH   7  17
TORSDOF 4
ENDMDL
MODEL 4
REMARK VINA RESULT:      -7.7      1.720      2.105
REMARK  Name = 
REMARK  8 active torsions:
REMARK  status: ('A' for Active; 'I' for Inactive)
REMARK    1  A    between atoms: C_1  and  C_2
REMARK    2  A    between atoms: C_4  and  C_5
REMARK    3  A    between atoms: N_13  and  C_14
REMARK    4  A    between atoms: C_14  and  C_15
REMARK    5  A    between atoms: C_15  and  N_16
REMARK    6  A    between atoms: N_19  and  C_20
REMARK    7  A    between atoms: N_19  and  C_21
REMARK    8  A    between atoms: C_22  and  C_23
REMARK                            x       y       z     vdW  Elec       q    Type
REMARK                         _______ _______ _______ _____ _____    ______ ____
ROOT
ATOM      1  C   UNL     1       2.758   2.571  19.542  0.00  0.00    +0.000 C 
ATOM      2  C   UNL     1       3.117   3.891  18.922  0.00  0.00    +0.000 A 
ATOM      3  N   UNL     1       4.033   3.835  17.940  0.00  0.00    +0.000 NA
ATOM      4  C   UNL     1       4.333   4.983  17.313  0.00  0.00    +0.000 A 
ATOM      5  N   UNL     1       3.771   6.171  17.596  0.00  0.00    +0.000 NA
ATOM      6  C   UNL     1       2.873   6.222  18.595  0.00  0.00    +0.000 A 
ATOM      7  N   UNL     1       2.261   7.443  18.898  0.00  0.00    +0.000 N 
ATOM      8  C   UNL     1       2.510   5.081  19.313  0.00  0.00    +0.000 A 
ATOM      9  C   UNL     1       1.482   5.087  20.407  0.00  0.00    +0.000 C 
ATOM     10  H   UNL     1       2.412   7.681  19.875  0.00  0.00    +0.000 HD
ENDROOT
BRANCH   4  11
ATOM     11  C   UNL     1       5.322   4.918  16.230  0.00  0.00    +0.000 A 
ATOM     12  C   UNL     1       5.131   4.160  15.065  0.00  0.00    +0.000 A 
ATOM     13  C   UNL     1       6.113   4.117  14.075  0.00  0.00    +0.000 A 
ATOM     14  C   UNL     1       7.277   4.843  14.270  0.00  0.00    +0.000 A 
ATOM     15  N   UNL     1       7.510   5.594  15.364  0.00  0.00    +0.000 NA
ATOM     16  C   UNL     1       6.529   5.613  16.304  0.00  0.00    +0.000 A 
ENDBRANCH   4  11
BRANCH   7  17
ATOM     17  C   UNL     1       2.484   8.590  18.016  0.00  0.00    +0.000 C 
BRANCH  17  18
ATOM     18  C   UNL     1       1.257   9.515  18.042  0.00  0.00    +0.000 C 
BRANCH  18  19
ATOM     19  N   UNL     1       1.612  10.922  18.130  0.00  0.00    +0.000 N 
ATOM     20  C   UNL     1       1.380  11.650  19.263  0.00  0.00    +0.000 C 
ATOM     21  O   UNL     1       0.888  11.124  20.259  0.00  0.00    +0.000 OA
ATOM     22  N   UNL     1       1.737  12.986  19.222  0.00  0.00    +0.000 N 
ATOM     23  C   UNL     1       2.435  13.680  18.148  0.00  0.00    +0.000 C 
ATOM     24  C   UNL     1       1.466  13.802  20.398  0.00  0.00    +0.000 C 
ATOM     25  H   UNL     1       1.872  11.376  17.274  0.00  0.00    +0.000 HD
ENDBRANCH  18  19
ENDBRANCH  17  18
ENDBRANCH   7  17
TORSDOF 4
ENDMDL
MODEL 5
REMARK VINA RESULT:      -7.7      2.821      7.021
REMARK  Name = 
REMARK  8 active torsions:
REMARK  status: ('A' for Active; 'I' for Inactive)
REMARK    1  A    between atoms: C_1  and  C_2
REMARK    2  A    between atoms: C_4  and  C_5
REMARK    3  A    between atoms: N_13  and  C_14
REMARK    4  A    between atoms: C_14  and  C_15
REMARK    5  A    between atoms: C_15  and  N_16
REMARK    6  A    between atoms: N_19  and  C_20
REMARK    7  A    between atoms: N_19  and  C_21
REMARK    8  A    between atoms: C_22  and  C_23
REMARK                            x       y       z     vdW  Elec       q    Type
REMARK                         _______ _______ _______ _____ _____    ______ ____
ROOT
ATOM      1  C   UNL     1       1.586   2.739  20.385  0.00  0.00    +0.000 C 
ATOM      2  C   UNL     1       2.531   3.745  19.791  0.00  0.00    +0.000 A 
ATOM      3  N   UNL     1       2.039   4.990  19.662  0.00  0.00    +0.000 NA
ATOM      4  C   UNL     1       2.872   5.934  19.199  0.00  0.00    +0.000 A 
ATOM      5  N   UNL     1       4.157   5.717  18.870  0.00  0.00    +0.000 NA
ATOM      6  C   UNL     1       4.634   4.465  18.980  0.00  0.00    +0.000 A 
ATOM      7  N   UNL     1       5.973   4.217  18.660  0.00  0.00    +0.000 N 
ATOM      8  C   UNL     1       3.836   3.415  19.439  0.00  0.00    +0.000 A 
ATOM      9  C   UNL     1       4.341   2.013  19.616  0.00  0.00    +0.000 C 
ATOM     10  H   UNL     1       6.038   3.497  17.945  0.00  0.00    +0.000 HD
ENDROOT
BRANCH   4  11
ATOM     11  C   UNL     1       2.339   7.296  19.074  0.00  0.00    +0.000 A 
ATOM     12  C   UNL     1       2.440   8.052  17.896  0.00  0.00    +0.000 A 
ATOM     13  C   UNL     1       1.933   9.350  17.838  0.00  0.00    +0.000 A 
ATOM     14  C   UNL     1       1.326   9.872  18.969  0.00  0.00    +0.000 A 
ATOM     15  N   UNL     1       1.194   9.189  20.123  0.00  0.00    +0.000 NA
ATOM     16  C   UNL     1       1.697   7.927  20.139  0.00  0.00    +0.000 A 
ENDBRANCH   4  11
BRANCH   7  17
ATOM     17  C   UNL     1       6.860   5.347  18.380  0.00  0.00    +0.000 C 
BRANCH  17  18
ATOM     18  C   UNL     1       6.272   6.205  17.249  0.00  0.00    +0.000 C 
BRANCH  18  19
ATOM     19  N   UNL     1       6.769   5.826  15.936  0.00  0.00    +0.000 N 
ATOM     20  C   UNL     1       6.125   4.900  15.164  0.00  0.00    +0.000 C 
ATOM     21  O   UNL     1       5.080   4.378  15.549  0.00  0.00    +0.000 OA
ATOM     22  N   UNL     1       6.705   4.601  13.945  0.00  0.00    +0.000 N 
ATOM     23  C   UNL     1       7.864   5.243  13.338  0.00  0.00    +0.000 C 
ATOM     24  C   UNL     1       6.068   3.588  13.115  0.00  0.00    +0.000 C 
ATOM     25  H   UNL     1       7.691   6.140  15.695  0.00  0.00    +0.000 HD
ENDBRANCH  18  19
ENDBRANCH  17  18
ENDBRANCH   7  17
TORSDOF 4
ENDMDL
MODEL 6
REMARK VINA RESULT:      -7.7      1.597      1.948
REMARK  Name = 
REMARK  8 active torsions:
REMARK  status: ('A' for Active; 'I' for Inactive)
REMARK    1  A    between atoms: C_1  and  C_2
REMARK    2  A    between atoms: C_4  and  C_5
REMARK    3  A    between atoms: N_13  and  C_14
REMARK    4  A    between atoms: C_14  and  C_15
REMARK    5  A    between atoms: C_15  and  N_16
REMARK    6  A    between atoms: N_19  and  C_20
REMARK    7  A    between atoms: N_19  and  C_21
REMARK    8  A    between atoms: C_22  and  C_23
REMARK                            x       y       z     vdW  Elec       q    Type
REMARK                         _______ _______ _______ _____ _____    ______ ____
ROOT
ATOM      1  C   UNL     1       2.621   2.364  19.254  0.00  0.00    +0.000 C 
ATOM      2  C   UNL     1       3.033   3.711  18.730  0.00  0.00    +0.000 A 
ATOM      3  N   UNL     1       3.962   3.690  17.758  0.00  0.00    +0.000 NA
ATOM      4  C   UNL     1       4.310   4.867  17.216  0.00  0.00    +0.000 A 
ATOM      5  N   UNL     1       3.783   6.051  17.572  0.00  0.00    +0.000 NA
ATOM      6  C   UNL     1       2.873   6.065  18.560  0.00  0.00    +0.000 A 
ATOM      7  N   UNL     1       2.298   7.284  18.939  0.00  0.00    +0.000 N 
ATOM      8  C   UNL     1       2.461   4.891  19.194  0.00  0.00    +0.000 A 
ATOM      9  C   UNL     1       1.418   4.858  20.272  0.00  0.00    +0.000 C 
ATOM     10  H   UNL     1       2.442   7.449  19.931  0.00  0.00    +0.000 HD
ENDROOT
BRANCH   4  11
ATOM     11  C   UNL     1       5.311   4.841  16.143  0.00  0.00    +0.000 A 
ATOM     12  C   UNL     1       5.169   4.068  14.981  0.00  0.00    +0.000 A 
ATOM     13  C   UNL     1       6.162   4.065  14.002  0.00  0.00    +0.000 A 
ATOM     14  C   UNL     1       7.288   4.846  14.203  0.00  0.00    +0.000 A 
ATOM     15  N   UNL     1       7.475   5.614  15.295  0.00  0.00    +0.000 NA
ATOM     16  C   UNL     1       6.484   5.592  16.225  0.00  0.00    +0.000 A 
ENDBRANCH   4  11
BRANCH   7  17
ATOM     17  C   UNL     1       2.572   8.479  18.140  0.00  0.00    +0.000 C 
BRANCH  17  18
ATOM     18  C   UNL     1       1.277   9.281  17.938  0.00  0.00    +0.000 C 
BRANCH  18  19
ATOM     19  N   UNL     1       1.149  10.390  18.870  0.00  0.00    +0.000 N 
ATOM     20  C   UNL     1       0.505  10.251  20.067  0.00  0.00    +0.000 C 
ATOM     21  O   UNL     1       0.039   9.165  20.408  0.00  0.00    +0.000 OA
ATOM     22  N   UNL     1       0.423  11.382  20.860  0.00  0.00    +0.000 N 
ATOM     23  C   UNL     1       1.043  12.678  20.614  0.00  0.00    +0.000 C 
ATOM     24  C   UNL     1      -0.291  11.279  22.125  0.00  0.00    +0.000 C 
ATOM     25  H   UNL     1       1.397  11.299  18.525  0.00  0.00    +0.000 HD
ENDBRANCH  18  19
ENDBRANCH  17  18
ENDBRANCH   7  17
TORSDOF 4
ENDMDL
MODEL 7
REMARK VINA RESULT:      -7.6      2.989      6.989
REMARK  Name = 
REMARK  8 active torsions:
REMARK  status: ('A' for Active; 'I' for Inactive)
REMARK    1  A    between atoms: C_1  and  C_2
REMARK    2  A    between atoms: C_4  and  C_5
REMARK    3  A    between atoms: N_13  and  C_14
REMARK    4  A    between atoms: C_14  and  C_15
REMARK    5  A    between atoms: C_15  and  N_16
REMARK    6  A    between atoms: N_19  and  C_20
REMARK    7  A    between atoms: N_19  and  C_21
REMARK    8  A    between atoms: C_22  and  C_23
REMARK                            x       y       z     vdW  Elec       q    Type
REMARK                         _______ _______ _______ _____ _____    ______ ____
ROOT
ATOM      1  C   UNL     1       2.389   2.830  20.444  0.00  0.00    +0.000 C 
ATOM      2  C   UNL     1       2.758   3.743  19.309  0.00  0.00    +0.000 A 
ATOM      3  N   UNL     1       2.359   5.020  19.445  0.00  0.00    +0.000 NA
ATOM      4  C   UNL     1       2.726   5.884  18.487  0.00  0.00    +0.000 A 
ATOM      5  N   UNL     1       3.470   5.557  17.416  0.00  0.00    +0.000 NA
ATOM      6  C   UNL     1       3.844   4.274  17.275  0.00  0.00    +0.000 A 
ATOM      7  N   UNL     1       4.633   3.911  16.177  0.00  0.00    +0.000 N 
ATOM      8  C   UNL     1       3.496   3.302  18.215  0.00  0.00    +0.000 A 
ATOM      9  C   UNL     1       3.928   1.868  18.118  0.00  0.00    +0.000 C 
ATOM     10  H   UNL     1       4.180   3.173  15.646  0.00  0.00    +0.000 HD
ENDROOT
BRANCH   4  11
ATOM     11  C   UNL     1       2.304   7.281  18.645  0.00  0.00    +0.000 A 
ATOM     12  C   UNL     1       1.764   7.786  19.836  0.00  0.00    +0.000 A 
ATOM     13  C   UNL     1       1.360   9.119  19.926  0.00  0.00    +0.000 A 
ATOM     14  C   UNL     1       1.509   9.928  18.812  0.00  0.00    +0.000 A 
ATOM     15  N   UNL     1       2.029   9.499  17.645  0.00  0.00    +0.000 NA
ATOM     16  C   UNL     1       2.414   8.196  17.598  0.00  0.00    +0.000 A 
ENDBRANCH   4  11
BRANCH   7  17
ATOM     17  C   UNL     1       5.170   4.960  15.309  0.00  0.00    +0.000 C 
BRANCH  17  18
ATOM     18  C   UNL     1       6.704   4.978  15.400  0.00  0.00    +0.000 C 
BRANCH  18  19
ATOM     19  N   UNL     1       7.197   5.872  16.437  0.00  0.00    +0.000 N 
ATOM     20  C   UNL     1       7.467   5.425  17.700  0.00  0.00    +0.000 C 
ATOM     21  O   UNL     1       7.328   4.238  17.990  0.00  0.00    +0.000 OA
ATOM     22  N   UNL     1       7.907   6.371  18.608  0.00  0.00    +0.000 N 
ATOM     23  C   UNL     1       8.223   7.768  18.343  0.00  0.00    +0.000 C 
ATOM     24  C   UNL     1       8.165   5.938  19.975  0.00  0.00    +0.000 C 
ATOM     25  H   UNL     1       7.166   6.854  16.237  0.00  0.00    +0.000 HD
ENDBRANCH  18  19
ENDBRANCH  17  18
ENDBRANCH   7  17
TORSDOF 4
ENDMDL
MODEL 8
REMARK VINA RESULT:      -7.6      2.798      7.110
REMARK  Name = 
REMARK  8 active torsions:
REMARK  status: ('A' for Active; 'I' for Inactive)
REMARK    1  A    between atoms: C_1  and  C_2
REMARK    2  A    between atoms: C_4  and  C_5
REMARK    3  A    between atoms: N_13  and  C_14
REMARK    4  A    between atoms: C_14  and  C_15
REMARK    5  A    between atoms: C_15  and  N_16
REMARK    6  A    between atoms: N_19  and  C_20
REMARK    7  A    between atoms: N_19  and  C_21
REMARK    8  A    between atoms: C_22  and  C_23
REMARK                            x       y       z     vdW  Elec       q    Type
REMARK                         _______ _______ _______ _____ _____    ______ ____
ROOT
ATOM      1  C   UNL     1       1.778   2.627  20.811  0.00  0.00    +0.000 C 
ATOM      2  C   UNL     1       2.625   3.680  20.154  0.00  0.00    +0.000 A 
ATOM      3  N   UNL     1       2.079   4.908  20.104  0.00  0.00    +0.000 NA
ATOM      4  C   UNL     1       2.829   5.893  19.586  0.00  0.00    +0.000 A 
ATOM      5  N   UNL     1       4.083   5.731  19.129  0.00  0.00    +0.000 NA
ATOM      6  C   UNL     1       4.611   4.496  19.161  0.00  0.00    +0.000 A 
ATOM      7  N   UNL     1       5.921   4.304  18.706  0.00  0.00    +0.000 N 
ATOM      8  C   UNL     1       3.900   3.407  19.669  0.00  0.00    +0.000 A 
ATOM      9  C   UNL     1       4.468   2.021  19.761  0.00  0.00    +0.000 C 
ATOM     10  H   UNL     1       5.940   3.603  17.970  0.00  0.00    +0.000 HD
ENDROOT
BRANCH   4  11
ATOM     11  C   UNL     1       2.239   7.236  19.547  0.00  0.00    +0.000 A 
ATOM     12  C   UNL     1       1.563   7.806  20.636  0.00  0.00    +0.000 A 
ATOM     13  C   UNL     1       1.003   9.080  20.539  0.00  0.00    +0.000 A 
ATOM     14  C   UNL     1       1.133   9.767  19.343  0.00  0.00    +0.000 A 
ATOM     15  N   UNL     1       1.778   9.272  18.268  0.00  0.00    +0.000 NA
ATOM     16  C   UNL     1       2.312   8.030  18.403  0.00  0.00    +0.000 A 
ENDBRANCH   4  11
BRANCH   7  17
ATOM     17  C   UNL     1       6.736   5.472  18.370  0.00  0.00    +0.000 C 
BRANCH  17  18
ATOM     18  C   UNL     1       6.099   6.234  17.197  0.00  0.00    +0.000 C 
BRANCH  18  19
ATOM     19  N   UNL     1       6.642   5.840  15.907  0.00  0.00    +0.000 N 
ATOM     20  C   UNL     1       6.049   4.874  15.143  0.00  0.00    +0.000 C 
ATOM     21  O   UNL     1       5.013   4.327  15.515  0.00  0.00    +0.000 OA
ATOM     22  N   UNL     1       6.670   4.566  13.946  0.00  0.00    +0.000 N 
ATOM     23  C   UNL     1       7.822   5.232  13.352  0.00  0.00    +0.000 C 
ATOM     24  C   UNL     1       6.088   3.512  13.126  0.00  0.00    +0.000 C 
ATOM     25  H   UNL     1       7.559   6.180  15.681  0.00  0.00    +0.000 HD
ENDBRANCH  18  19
ENDBRANCH  17  18
ENDBRANCH   7  17
TORSDOF 4
ENDMDL
MODEL 9
REMARK VINA RESULT:      -7.5      1.140      1.186
REMARK  Name = 
REMARK  8 active torsions:
REMARK  status: ('A' for Active; 'I' for Inactive)
REMARK    1  A    between atoms: C_1  and  C_2
REMARK    2  A    between atoms: C_4  and  C_5
REMARK    3  A    between atoms: N_13  and  C_14
REMARK    4  A    between atoms: C_14  and  C_15
REMARK    5  A    between atoms: C_15  and  N_16
REMARK    6  A    between atoms: N_19  and  C_20
REMARK    7  A    between atoms: N_19  and  C_21
REMARK    8  A    between atoms: C_22  and  C_23
REMARK                            x       y       z     vdW  Elec       q    Type
REMARK                         _______ _______ _______ _____ _____    ______ ____
ROOT
ATOM      1  C   UNL     1       3.766   2.844  20.246  0.00  0.00    +0.000 C 
ATOM      2  C   UNL     1       3.764   4.047  19.347  0.00  0.00    +0.000 A 
ATOM      3  N   UNL     1       4.592   3.977  18.290  0.00  0.00    +0.000 NA
ATOM      4  C   UNL     1       4.572   5.002  17.425  0.00  0.00    +0.000 A 
ATOM      5  N   UNL     1       3.775   6.078  17.542  0.00  0.00    +0.000 NA
ATOM      6  C   UNL     1       2.968   6.152  18.614  0.00  0.00    +0.000 A 
ATOM      7  N   UNL     1       2.117   7.254  18.751  0.00  0.00    +0.000 N 
ATOM      8  C   UNL     1       2.932   5.139  19.575  0.00  0.00    +0.000 A 
ATOM      9  C   UNL     1       2.016   5.163  20.763  0.00  0.00    +0.000 C 
ATOM     10  H   UNL     1       2.282   7.720  19.638  0.00  0.00    +0.000 HD
ENDROOT
BRANCH   4  11
ATOM     11  C   UNL     1       5.465   4.916  16.263  0.00  0.00    +0.000 A 
ATOM     12  C   UNL     1       5.133   4.215  15.094  0.00  0.00    +0.000 A 
ATOM     13  C   UNL     1       6.027   4.149  14.025  0.00  0.00    +0.000 A 
ATOM     14  C   UNL     1       7.248   4.793  14.146  0.00  0.00    +0.000 A 
ATOM     15  N   UNL     1       7.616   5.487  15.242  0.00  0.00    +0.000 NA
ATOM     16  C   UNL     1       6.716   5.532  16.259  0.00  0.00    +0.000 A 
ENDBRANCH   4  11
BRANCH   7  17
ATOM     17  C   UNL     1       2.004   8.207  17.646  0.00  0.00    +0.000 C 
BRANCH  17  18
ATOM     18  C   UNL     1       2.417   9.609  18.121  0.00  0.00    +0.000 C 
BRANCH  18  19
ATOM     19  N   UNL     1       1.288  10.516  18.255  0.00  0.00    +0.000 N 
ATOM     20  C   UNL     1       0.579  10.612  19.420  0.00  0.00    +0.000 C 
ATOM     21  O   UNL     1       0.899   9.950  20.406  0.00  0.00    +0.000 OA
ATOM     22  N   UNL     1      -0.490  11.489  19.422  0.00  0.00    +0.000 N 
ATOM     23  C   UNL     1      -0.880  12.407  18.360  0.00  0.00    +0.000 C 
ATOM     24  C   UNL     1      -1.292  11.586  20.634  0.00  0.00    +0.000 C 
ATOM     25  H   UNL     1       0.944  10.936  17.412  0.00  0.00    +0.000 HD
ENDBRANCH  18  19
ENDBRANCH  17  18
ENDBRANCH   7  17
TORSDOF 4
ENDMDL
