MODEL 1
REMARK VINA RESULT:      -9.2      0.000      0.000
REMARK  Name = 
REMARK  2 active torsions:
REMARK  status: ('A' for Active; 'I' for Inactive)
REMARK    1  A    between atoms: C_14  and  C_15
REMARK    2  A    between atoms: C_19  and  N_20
REMARK                            x       y       z     vdW  Elec       q    Type
REMARK                         _______ _______ _______ _____ _____    ______ ____
ROOT
ATOM      1  N   UNL     1       2.224   2.801  21.816  0.00  0.00    +0.000 NA
ATOM      2  C   UNL     1       2.563   3.809  21.081  0.00  0.00    +0.000 C 
ATOM      3  N   UNL     1       1.970   5.039  21.185  0.00  0.00    +0.000 N 
ATOM      4  C   UNL     1       2.177   6.010  20.263  0.00  0.00    +0.000 A 
ATOM      5  C   UNL     1       2.947   5.760  19.158  0.00  0.00    +0.000 A 
ATOM      6  S   UNL     1       2.948   7.043  18.056  0.00  0.00    +0.000 S 
ATOM      7  C   UNL     1       2.007   8.025  19.112  0.00  0.00    +0.000 A 
ATOM      8  C   UNL     1       1.600   9.351  18.869  0.00  0.00    +0.000 A 
ATOM      9  C   UNL     1       0.842  10.006  19.835  0.00  0.00    +0.000 A 
ATOM     10  C   UNL     1       0.497   9.361  21.013  0.00  0.00    +0.000 A 
ATOM     11 CL   UNL     1      -0.428  10.194  22.201  0.00  0.00    +0.000 Cl
ATOM     12  C   UNL     1       0.890   8.040  21.253  0.00  0.00    +0.000 A 
ATOM     13  C   UNL     1       1.657   7.344  20.285  0.00  0.00    +0.000 A 
ATOM     14  C   UNL     1       3.638   4.451  18.965  0.00  0.00    +0.000 C 
ATOM     15  N   UNL     1       3.576   3.652  20.176  0.00  0.00    +0.000 N 
ATOM     16  H   UNL     1       1.417   3.048  22.392  0.00  0.00    +0.000 HD
ATOM     17  H   UNL     1       1.306   5.164  21.937  0.00  0.00    +0.000 HD
ATOM     18  H   UNL     1       4.464   3.442  20.614  0.00  0.00    +0.000 HD
ENDROOT
BRANCH  14  19
ATOM     19  C   UNL     1       5.065   4.619  18.457  0.00  0.00    +0.000 A 
ATOM     20  C   UNL     1       6.078   5.178  19.258  0.00  0.00    +0.000 A 
ATOM     21  C   UNL     1       7.316   5.528  18.708  0.00  0.00    +0.000 A 
ATOM     22  C   UNL     1       7.566   5.328  17.353  0.00  0.00    +0.000 A 
ATOM     23  C   UNL     1       6.571   4.753  16.548  0.00  0.00    +0.000 A 
ATOM     24  C   UNL     1       5.338   4.373  17.101  0.00  0.00    +0.000 A 
BRANCH  23  25
ATOM     25  N   UNL     1       6.805   4.574  15.114  0.00  0.00    +0.000 N 
ATOM     26  O   UNL     1       6.248   3.624  14.548  0.00  0.00    +0.000 OA
ATOM     27  O   UNL     1       7.566   5.376  14.548  0.00  0.00    +0.000 OA
ENDBRANCH  23  25
ENDBRANCH  14  19
TORSDOF 2
ENDMDL
MODEL 2
REMARK VINA RESULT:      -9.0      1.837      2.096
REMARK  Name = 
REMARK  2 active torsions:
REMARK  status: ('A' for Active; 'I' for Inactive)
REMARK    1  A    between atoms: C_14  and  C_15
REMARK    2  A    between atoms: C_19  and  N_20
REMARK                            x       y       z     vdW  Elec       q    Type
REMARK                         _______ _______ _______ _____ _____    ______ ____
ROOT
ATOM      1  N   UNL     1       2.100   3.145  21.773  0.00  0.00    +0.000 NA
ATOM      2  C   UNL     1       2.374   4.148  21.005  0.00  0.00    +0.000 C 
ATOM      3  N   UNL     1       1.852   5.398  21.200  0.00  0.00    +0.000 N 
ATOM      4  C   UNL     1       1.967   6.372  20.264  0.00  0.00    +0.000 A 
ATOM      5  C   UNL     1       2.562   6.106  19.059  0.00  0.00    +0.000 A 
ATOM      6  S   UNL     1       2.460   7.401  17.977  0.00  0.00    +0.000 S 
ATOM      7  C   UNL     1       1.718   8.407  19.162  0.00  0.00    +0.000 A 
ATOM      8  C   UNL     1       1.336   9.750  18.989  0.00  0.00    +0.000 A 
ATOM      9  C   UNL     1       0.749  10.423  20.057  0.00  0.00    +0.000 A 
ATOM     10  C   UNL     1       0.547   9.778  21.267  0.00  0.00    +0.000 A 
ATOM     11 CL   UNL     1      -0.166  10.631  22.579  0.00  0.00    +0.000 Cl
ATOM     12  C   UNL     1       0.916   8.438  21.440  0.00  0.00    +0.000 A 
ATOM     13  C   UNL     1       1.510   7.726  20.368  0.00  0.00    +0.000 A 
ATOM     14  C   UNL     1       3.165   4.773  18.762  0.00  0.00    +0.000 C 
ATOM     15  N   UNL     1       3.241   3.962  19.965  0.00  0.00    +0.000 N 
ATOM     16  H   UNL     1       1.394   3.416  22.459  0.00  0.00    +0.000 HD
ATOM     17  H   UNL     1       1.307   5.540  22.038  0.00  0.00    +0.000 HD
ATOM     18  H   UNL     1       4.173   3.712  20.271  0.00  0.00    +0.000 HD
ENDROOT
BRANCH  14  19
ATOM     19  C   UNL     1       4.511   4.891  18.059  0.00  0.00    +0.000 A 
ATOM     20  C   UNL     1       4.755   4.285  16.813  0.00  0.00    +0.000 A 
ATOM     21  C   UNL     1       6.051   4.214  16.290  0.00  0.00    +0.000 A 
ATOM     22  C   UNL     1       7.125   4.744  17.000  0.00  0.00    +0.000 A 
ATOM     23  C   UNL     1       6.893   5.368  18.235  0.00  0.00    +0.000 A 
ATOM     24  C   UNL     1       5.591   5.468  18.749  0.00  0.00    +0.000 A 
BRANCH  23  25
ATOM     25  N   UNL     1       8.018   5.893  19.010  0.00  0.00    +0.000 N 
ATOM     26  O   UNL     1       8.539   5.151  19.855  0.00  0.00    +0.000 OA
ATOM     27  O   UNL     1       8.377   7.062  18.791  0.00  0.00    +0.000 OA
ENDBRANCH  23  25
ENDBRANCH  14  19
TORSDOF 2
ENDMDL
MODEL 3
REMARK VINA RESULT:      -8.5      1.779      2.083
REMARK  Name = 
REMARK  2 active torsions:
REMARK  status: ('A' for Active; 'I' for Inactive)
REMARK    1  A    between atoms: C_14  and  C_15
REMARK    2  A    between atoms: C_19  and  N_20
REMARK                            x       y       z     vdW  Elec       q    Type
REMARK                         _______ _______ _______ _____ _____    ______ ____
ROOT
ATOM      1  N   UNL     1       2.244   3.492  21.510  0.00  0.00    +0.000 NA
ATOM      2  C   UNL     1       2.463   4.477  20.703  0.00  0.00    +0.000 C 
ATOM      3  N   UNL     1       1.964   5.735  20.910  0.00  0.00    +0.000 N 
ATOM      4  C   UNL     1       2.012   6.688  19.948  0.00  0.00    +0.000 A 
ATOM      5  C   UNL     1       2.513   6.393  18.708  0.00  0.00    +0.000 A 
ATOM      6  S   UNL     1       2.336   7.666  17.609  0.00  0.00    +0.000 S 
ATOM      7  C   UNL     1       1.691   8.701  18.826  0.00  0.00    +0.000 A 
ATOM      8  C   UNL     1       1.304  10.043  18.653  0.00  0.00    +0.000 A 
ATOM      9  C   UNL     1       0.804  10.742  19.748  0.00  0.00    +0.000 A 
ATOM     10  C   UNL     1       0.691  10.123  20.983  0.00  0.00    +0.000 A 
ATOM     11 CL   UNL     1       0.085  11.009  22.328  0.00  0.00    +0.000 Cl
ATOM     12  C   UNL     1       1.066   8.786  21.156  0.00  0.00    +0.000 A 
ATOM     13  C   UNL     1       1.572   8.047  20.058  0.00  0.00    +0.000 A 
ATOM     14  C   UNL     1       3.084   5.051  18.393  0.00  0.00    +0.000 C 
ATOM     15  N   UNL     1       3.248   4.264  19.604  0.00  0.00    +0.000 N 
ATOM     16  H   UNL     1       1.593   3.783  22.242  0.00  0.00    +0.000 HD
ATOM     17  H   UNL     1       1.485   5.898  21.785  0.00  0.00    +0.000 HD
ATOM     18  H   UNL     1       4.199   4.014  19.843  0.00  0.00    +0.000 HD
ENDROOT
BRANCH  14  19
ATOM     19  C   UNL     1       4.374   5.144  17.588  0.00  0.00    +0.000 A 
ATOM     20  C   UNL     1       4.705   4.198  16.600  0.00  0.00    +0.000 A 
ATOM     21  C   UNL     1       5.983   4.171  16.031  0.00  0.00    +0.000 A 
ATOM     22  C   UNL     1       6.952   5.085  16.436  0.00  0.00    +0.000 A 
ATOM     23  C   UNL     1       6.630   6.045  17.406  0.00  0.00    +0.000 A 
ATOM     24  C   UNL     1       5.341   6.095  17.958  0.00  0.00    +0.000 A 
BRANCH  23  25
ATOM     25  N   UNL     1       7.652   6.985  17.871  0.00  0.00    +0.000 N 
ATOM     26  O   UNL     1       7.882   7.984  17.175  0.00  0.00    +0.000 OA
ATOM     27  O   UNL     1       8.245   6.719  18.929  0.00  0.00    +0.000 OA
ENDBRANCH  23  25
ENDBRANCH  14  19
TORSDOF 2
ENDMDL
MODEL 4
REMARK VINA RESULT:      -7.9      4.125      6.594
REMARK  Name = 
REMARK  2 active torsions:
REMARK  status: ('A' for Active; 'I' for Inactive)
REMARK    1  A    between atoms: C_14  and  C_15
REMARK    2  A    between atoms: C_19  and  N_20
REMARK                            x       y       z     vdW  Elec       q    Type
REMARK                         _______ _______ _______ _____ _____    ______ ____
ROOT
ATOM      1  N   UNL     1       0.971   1.980  18.219  0.00  0.00    +0.000 NA
ATOM      2  C   UNL     1       1.775   2.990  18.152  0.00  0.00    +0.000 C 
ATOM      3  N   UNL     1       2.766   3.091  17.212  0.00  0.00    +0.000 N 
ATOM      4  C   UNL     1       3.734   4.035  17.296  0.00  0.00    +0.000 A 
ATOM      5  C   UNL     1       3.781   4.883  18.371  0.00  0.00    +0.000 A 
ATOM      6  S   UNL     1       5.152   5.873  18.366  0.00  0.00    +0.000 S 
ATOM      7  C   UNL     1       5.653   5.267  16.834  0.00  0.00    +0.000 A 
ATOM      8  C   UNL     1       6.790   5.677  16.112  0.00  0.00    +0.000 A 
ATOM      9  C   UNL     1       7.049   5.085  14.879  0.00  0.00    +0.000 A 
ATOM     10  C   UNL     1       6.201   4.111  14.376  0.00  0.00    +0.000 A 
ATOM     11 CL   UNL     1       6.531   3.402  12.843  0.00  0.00    +0.000 Cl
ATOM     12  C   UNL     1       5.076   3.693  15.096  0.00  0.00    +0.000 A 
ATOM     13  C   UNL     1       4.789   4.273  16.357  0.00  0.00    +0.000 A 
ATOM     14  C   UNL     1       2.740   4.849  19.440  0.00  0.00    +0.000 C 
ATOM     15  N   UNL     1       1.618   4.016  19.042  0.00  0.00    +0.000 N 
ATOM     16  H   UNL     1       1.249   1.269  17.540  0.00  0.00    +0.000 HD
ATOM     17  H   UNL     1       2.790   2.379  16.495  0.00  0.00    +0.000 HD
ATOM     18  H   UNL     1       0.729   4.489  18.942  0.00  0.00    +0.000 HD
ENDROOT
BRANCH  14  19
ATOM     19  C   UNL     1       2.299   6.245  19.863  0.00  0.00    +0.000 A 
ATOM     20  C   UNL     1       1.629   6.477  21.078  0.00  0.00    +0.000 A 
ATOM     21  C   UNL     1       1.038   7.717  21.346  0.00  0.00    +0.000 A 
ATOM     22  C   UNL     1       1.104   8.745  20.409  0.00  0.00    +0.000 A 
ATOM     23  C   UNL     1       1.785   8.532  19.202  0.00  0.00    +0.000 A 
ATOM     24  C   UNL     1       2.405   7.301  18.941  0.00  0.00    +0.000 A 
BRANCH  23  25
ATOM     25  N   UNL     1       1.827   9.591  18.191  0.00  0.00    +0.000 N 
ATOM     26  O   UNL     1       2.286   9.311  17.075  0.00  0.00    +0.000 OA
ATOM     27  O   UNL     1       1.418  10.718  18.516  0.00  0.00    +0.000 OA
ENDBRANCH  23  25
ENDBRANCH  14  19
TORSDOF 2
ENDMDL
MODEL 5
REMARK VINA RESULT:      -7.7      4.861      7.505
REMARK  Name = 
REMARK  2 active torsions:
REMARK  status: ('A' for Active; 'I' for Inactive)
REMARK    1  A    between atoms: C_14  and  C_15
REMARK    2  A    between atoms: C_19  and  N_20
REMARK                            x       y       z     vdW  Elec       q    Type
REMARK                         _______ _______ _______ _____ _____    ______ ____
ROOT
ATOM      1  N   UNL     1       0.559   9.553  23.621  0.00  0.00    +0.000 NA
ATOM      2  C   UNL     1       0.724   9.275  22.369  0.00  0.00    +0.000 C 
ATOM      3  N   UNL     1       1.207   8.071  21.931  0.00  0.00    +0.000 N 
ATOM      4  C   UNL     1       1.584   7.882  20.643  0.00  0.00    +0.000 A 
ATOM      5  C   UNL     1       1.548   8.921  19.752  0.00  0.00    +0.000 A 
ATOM      6  S   UNL     1       2.208   8.520  18.248  0.00  0.00    +0.000 S 
ATOM      7  C   UNL     1       2.443   6.882  18.725  0.00  0.00    +0.000 A 
ATOM      8  C   UNL     1       2.967   5.851  17.923  0.00  0.00    +0.000 A 
ATOM      9  C   UNL     1       3.087   4.574  18.466  0.00  0.00    +0.000 A 
ATOM     10  C   UNL     1       2.696   4.329  19.773  0.00  0.00    +0.000 A 
ATOM     11 CL   UNL     1       2.838   2.741  20.420  0.00  0.00    +0.000 Cl
ATOM     12  C   UNL     1       2.184   5.354  20.577  0.00  0.00    +0.000 A 
ATOM     13  C   UNL     1       2.057   6.664  20.054  0.00  0.00    +0.000 A 
ATOM     14  C   UNL     1       1.029  10.266  20.139  0.00  0.00    +0.000 C 
ATOM     15  N   UNL     1       0.378  10.213  21.437  0.00  0.00    +0.000 N 
ATOM     16  H   UNL     1       0.919   8.788  24.195  0.00  0.00    +0.000 HD
ATOM     17  H   UNL     1       1.347   7.354  22.628  0.00  0.00    +0.000 HD
ATOM     18  H   UNL     1      -0.611  10.428  21.444  0.00  0.00    +0.000 HD
ENDROOT
BRANCH  14  19
ATOM     19  C   UNL     1       0.131  10.872  19.067  0.00  0.00    +0.000 A 
ATOM     20  C   UNL     1       0.103  12.256  18.815  0.00  0.00    +0.000 A 
ATOM     21  C   UNL     1      -0.879  12.815  17.991  0.00  0.00    +0.000 A 
ATOM     22  C   UNL     1      -1.850  12.007  17.406  0.00  0.00    +0.000 A 
ATOM     23  C   UNL     1      -1.822  10.623  17.634  0.00  0.00    +0.000 A 
ATOM     24  C   UNL     1      -0.821  10.053  18.435  0.00  0.00    +0.000 A 
BRANCH  23  25
ATOM     25  N   UNL     1      -2.860   9.767  17.057  0.00  0.00    +0.000 N 
ATOM     26  O   UNL     1      -3.649   9.207  17.832  0.00  0.00    +0.000 OA
ATOM     27  O   UNL     1      -2.881   9.634  15.823  0.00  0.00    +0.000 OA
ENDBRANCH  23  25
ENDBRANCH  14  19
TORSDOF 2
ENDMDL
MODEL 6
REMARK VINA RESULT:      -7.5      4.653      7.153
REMARK  Name = 
REMARK  2 active torsions:
REMARK  status: ('A' for Active; 'I' for Inactive)
REMARK    1  A    between atoms: C_14  and  C_15
REMARK    2  A    between atoms: C_19  and  N_20
REMARK                            x       y       z     vdW  Elec       q    Type
REMARK                         _______ _______ _______ _____ _____    ______ ____
ROOT
ATOM      1  N   UNL     1       1.275   2.109  18.378  0.00  0.00    +0.000 NA
ATOM      2  C   UNL     1       1.962   3.170  18.108  0.00  0.00    +0.000 C 
ATOM      3  N   UNL     1       2.941   3.199  17.152  0.00  0.00    +0.000 N 
ATOM      4  C   UNL     1       3.797   4.244  17.041  0.00  0.00    +0.000 A 
ATOM      5  C   UNL     1       3.742   5.281  17.934  0.00  0.00    +0.000 A 
ATOM      6  S   UNL     1       4.993   6.398  17.721  0.00  0.00    +0.000 S 
ATOM      7  C   UNL     1       5.570   5.571  16.324  0.00  0.00    +0.000 A 
ATOM      8  C   UNL     1       6.658   5.959  15.521  0.00  0.00    +0.000 A 
ATOM      9  C   UNL     1       6.991   5.175  14.419  0.00  0.00    +0.000 A 
ATOM     10  C   UNL     1       6.260   4.035  14.123  0.00  0.00    +0.000 A 
ATOM     11 CL   UNL     1       6.677   3.089  12.748  0.00  0.00    +0.000 Cl
ATOM     12  C   UNL     1       5.183   3.641  14.926  0.00  0.00    +0.000 A 
ATOM     13  C   UNL     1       4.826   4.414  16.058  0.00  0.00    +0.000 A 
ATOM     14  C   UNL     1       2.704   5.336  19.005  0.00  0.00    +0.000 C 
ATOM     15  N   UNL     1       1.685   4.323  18.789  0.00  0.00    +0.000 N 
ATOM     16  H   UNL     1       1.635   1.317  17.842  0.00  0.00    +0.000 HD
ATOM     17  H   UNL     1       3.049   2.371  16.583  0.00  0.00    +0.000 HD
ATOM     18  H   UNL     1       0.750   4.667  18.615  0.00  0.00    +0.000 HD
ENDROOT
BRANCH  14  19
ATOM     19  C   UNL     1       2.107   6.729  19.161  0.00  0.00    +0.000 A 
ATOM     20  C   UNL     1       2.131   7.670  18.115  0.00  0.00    +0.000 A 
ATOM     21  C   UNL     1       1.784   9.006  18.344  0.00  0.00    +0.000 A 
ATOM     22  C   UNL     1       1.407   9.427  19.617  0.00  0.00    +0.000 A 
ATOM     23  C   UNL     1       1.361   8.495  20.664  0.00  0.00    +0.000 A 
ATOM     24  C   UNL     1       1.679   7.148  20.433  0.00  0.00    +0.000 A 
BRANCH  23  25
ATOM     25  N   UNL     1       1.006   8.932  22.015  0.00  0.00    +0.000 N 
ATOM     26  O   UNL     1      -0.183   8.857  22.357  0.00  0.00    +0.000 OA
ATOM     27  O   UNL     1       1.914   9.373  22.738  0.00  0.00    +0.000 OA
ENDBRANCH  23  25
ENDBRANCH  14  19
TORSDOF 2
ENDMDL
MODEL 7
REMARK VINA RESULT:      -7.0      3.722      5.486
REMARK  Name = 
REMARK  2 active torsions:
REMARK  status: ('A' for Active; 'I' for Inactive)
REMARK    1  A    between atoms: C_14  and  C_15
REMARK    2  A    between atoms: C_19  and  N_20
REMARK                            x       y       z     vdW  Elec       q    Type
REMARK                         _______ _______ _______ _____ _____    ______ ____
ROOT
ATOM      1  N   UNL     1       7.734   7.855  17.897  0.00  0.00    +0.000 NA
ATOM      2  C   UNL     1       7.072   6.885  17.355  0.00  0.00    +0.000 C 
ATOM      3  N   UNL     1       5.903   6.400  17.877  0.00  0.00    +0.000 N 
ATOM      4  C   UNL     1       5.348   5.247  17.430  0.00  0.00    +0.000 A 
ATOM      5  C   UNL     1       5.984   4.499  16.475  0.00  0.00    +0.000 A 
ATOM      6  S   UNL     1       5.211   3.025  16.174  0.00  0.00    +0.000 S 
ATOM      7  C   UNL     1       3.918   3.421  17.240  0.00  0.00    +0.000 A 
ATOM      8  C   UNL     1       2.788   2.625  17.505  0.00  0.00    +0.000 A 
ATOM      9  C   UNL     1       1.828   3.099  18.395  0.00  0.00    +0.000 A 
ATOM     10  C   UNL     1       1.987   4.332  19.007  0.00  0.00    +0.000 A 
ATOM     11 CL   UNL     1       0.782   4.907  20.092  0.00  0.00    +0.000 Cl
ATOM     12  C   UNL     1       3.115   5.122  18.754  0.00  0.00    +0.000 A 
ATOM     13  C   UNL     1       4.112   4.663  17.858  0.00  0.00    +0.000 A 
ATOM     14  C   UNL     1       7.259   4.954  15.845  0.00  0.00    +0.000 C 
ATOM     15  N   UNL     1       7.543   6.334  16.197  0.00  0.00    +0.000 N 
ATOM     16  H   UNL     1       7.300   8.118  18.784  0.00  0.00    +0.000 HD
ATOM     17  H   UNL     1       5.514   6.896  18.667  0.00  0.00    +0.000 HD
ATOM     18  H   UNL     1       7.559   6.992  15.427  0.00  0.00    +0.000 HD
ENDROOT
BRANCH  14  19
ATOM     19  C   UNL     1       7.273   4.727  14.338  0.00  0.00    +0.000 A 
ATOM     20  C   UNL     1       8.015   5.549  13.470  0.00  0.00    +0.000 A 
ATOM     21  C   UNL     1       7.843   5.468  12.084  0.00  0.00    +0.000 A 
ATOM     22  C   UNL     1       6.928   4.570  11.540  0.00  0.00    +0.000 A 
ATOM     23  C   UNL     1       6.196   3.733  12.394  0.00  0.00    +0.000 A 
ATOM     24  C   UNL     1       6.387   3.788  13.783  0.00  0.00    +0.000 A 
BRANCH  23  25
ATOM     25  N   UNL     1       5.202   2.813  11.837  0.00  0.00    +0.000 N 
ATOM     26  O   UNL     1       5.570   1.666  11.545  0.00  0.00    +0.000 OA
ATOM     27  O   UNL     1       4.047   3.239  11.673  0.00  0.00    +0.000 OA
ENDBRANCH  23  25
ENDBRANCH  14  19
TORSDOF 2
ENDMDL
MODEL 8
REMARK VINA RESULT:      -7.0      6.401      9.050
REMARK  Name = 
REMARK  2 active torsions:
REMARK  status: ('A' for Active; 'I' for Inactive)
REMARK    1  A    between atoms: C_14  and  C_15
REMARK    2  A    between atoms: C_19  and  N_20
REMARK                            x       y       z     vdW  Elec       q    Type
REMARK                         _______ _______ _______ _____ _____    ______ ____
ROOT
ATOM      1  N   UNL     1       2.049   8.639  17.931  0.00  0.00    +0.000 NA
ATOM      2  C   UNL     1       1.440   9.778  17.981  0.00  0.00    +0.000 C 
ATOM      3  N   UNL     1       2.099  10.969  18.128  0.00  0.00    +0.000 N 
ATOM      4  C   UNL     1       1.438  12.120  18.404  0.00  0.00    +0.000 A 
ATOM      5  C   UNL     1       0.084  12.107  18.606  0.00  0.00    +0.000 A 
ATOM      6  S   UNL     1      -0.521  13.609  19.095  0.00  0.00    +0.000 S 
ATOM      7  C   UNL     1       1.023  14.351  18.919  0.00  0.00    +0.000 A 
ATOM      8  C   UNL     1       1.321  15.709  19.138  0.00  0.00    +0.000 A 
ATOM      9  C   UNL     1       2.628  16.148  18.945  0.00  0.00    +0.000 A 
ATOM     10  C   UNL     1       3.614  15.260  18.545  0.00  0.00    +0.000 A 
ATOM     11 CL   UNL     1       5.220  15.826  18.297  0.00  0.00    +0.000 Cl
ATOM     12  C   UNL     1       3.324  13.907  18.336  0.00  0.00    +0.000 A 
ATOM     13  C   UNL     1       2.004  13.429  18.531  0.00  0.00    +0.000 A 
ATOM     14  C   UNL     1      -0.718  10.856  18.460  0.00  0.00    +0.000 C 
ATOM     15  N   UNL     1       0.079   9.801  17.857  0.00  0.00    +0.000 N 
ATOM     16  H   UNL     1       3.048   8.773  18.102  0.00  0.00    +0.000 HD
ATOM     17  H   UNL     1       3.109  10.939  18.101  0.00  0.00    +0.000 HD
ATOM     18  H   UNL     1      -0.239   9.468  16.956  0.00  0.00    +0.000 HD
ENDROOT
BRANCH  14  19
ATOM     19  C   UNL     1      -2.025  11.090  17.713  0.00  0.00    +0.000 A 
ATOM     20  C   UNL     1      -3.182  11.554  18.366  0.00  0.00    +0.000 A 
ATOM     21  C   UNL     1      -4.422  11.550  17.718  0.00  0.00    +0.000 A 
ATOM     22  C   UNL     1      -4.531  11.085  16.410  0.00  0.00    +0.000 A 
ATOM     23  C   UNL     1      -3.382  10.637  15.742  0.00  0.00    +0.000 A 
ATOM     24  C   UNL     1      -2.131  10.667  16.377  0.00  0.00    +0.000 A 
BRANCH  23  25
ATOM     25  N   UNL     1      -3.489  10.107  14.381  0.00  0.00    +0.000 N 
ATOM     26  O   UNL     1      -4.622   9.874  13.936  0.00  0.00    +0.000 OA
ATOM     27  O   UNL     1      -2.436   9.904  13.754  0.00  0.00    +0.000 OA
ENDBRANCH  23  25
ENDBRANCH  14  19
TORSDOF 2
ENDMDL
MODEL 9
REMARK VINA RESULT:      -6.9      6.386      8.721
REMARK  Name = 
REMARK  2 active torsions:
REMARK  status: ('A' for Active; 'I' for Inactive)
REMARK    1  A    between atoms: C_14  and  C_15
REMARK    2  A    between atoms: C_19  and  N_20
REMARK                            x       y       z     vdW  Elec       q    Type
REMARK                         _______ _______ _______ _____ _____    ______ ____
ROOT
ATOM      1  N   UNL     1      -2.620  11.476  16.657  0.00  0.00    +0.000 NA
ATOM      2  C   UNL     1      -1.637  11.784  17.438  0.00  0.00    +0.000 C 
ATOM      3  N   UNL     1      -1.279  13.078  17.709  0.00  0.00    +0.000 N 
ATOM      4  C   UNL     1      -0.118  13.378  18.341  0.00  0.00    +0.000 A 
ATOM      5  C   UNL     1       0.765  12.385  18.673  0.00  0.00    +0.000 A 
ATOM      6  S   UNL     1       2.216  12.981  19.305  0.00  0.00    +0.000 S 
ATOM      7  C   UNL     1       1.633  14.601  19.265  0.00  0.00    +0.000 A 
ATOM      8  C   UNL     1       2.329  15.744  19.700  0.00  0.00    +0.000 A 
ATOM      9  C   UNL     1       1.707  16.986  19.602  0.00  0.00    +0.000 A 
ATOM     10  C   UNL     1       0.425  17.089  19.084  0.00  0.00    +0.000 A 
ATOM     11 CL   UNL     1      -0.332  18.631  18.985  0.00  0.00    +0.000 Cl
ATOM     12  C   UNL     1      -0.267  15.955  18.641  0.00  0.00    +0.000 A 
ATOM     13  C   UNL     1       0.344  14.679  18.723  0.00  0.00    +0.000 A 
ATOM     14  C   UNL     1       0.455  10.946  18.423  0.00  0.00    +0.000 C 
ATOM     15  N   UNL     1      -0.937  10.777  18.043  0.00  0.00    +0.000 N 
ATOM     16  H   UNL     1      -3.002  12.322  16.231  0.00  0.00    +0.000 HD
ATOM     17  H   UNL     1      -1.879  13.804  17.345  0.00  0.00    +0.000 HD
ATOM     18  H   UNL     1      -1.505  10.230  18.677  0.00  0.00    +0.000 HD
ENDROOT
BRANCH  14  19
ATOM     19  C   UNL     1       0.844  10.057  19.597  0.00  0.00    +0.000 A 
ATOM     20  C   UNL     1       1.522   8.838  19.414  0.00  0.00    +0.000 A 
ATOM     21  C   UNL     1       1.673   7.934  20.472  0.00  0.00    +0.000 A 
ATOM     22  C   UNL     1       1.151   8.230  21.728  0.00  0.00    +0.000 A 
ATOM     23  C   UNL     1       0.489   9.450  21.929  0.00  0.00    +0.000 A 
ATOM     24  C   UNL     1       0.362  10.372  20.879  0.00  0.00    +0.000 A 
BRANCH  23  25
ATOM     25  N   UNL     1      -0.100   9.755  23.234  0.00  0.00    +0.000 N 
ATOM     26  O   UNL     1      -1.213  10.298  23.257  0.00  0.00    +0.000 OA
ATOM     27  O   UNL     1       0.558   9.469  24.247  0.00  0.00    +0.000 OA
ENDBRANCH  23  25
ENDBRANCH  14  19
TORSDOF 2
ENDMDL
