MODEL 1
REMARK VINA RESULT:      -9.0      0.000      0.000
REMARK  Name = 
REMARK  5 active torsions:
REMARK  status: ('A' for Active; 'I' for Inactive)
REMARK    1  A    between atoms: C_2  and  C_3
REMARK    2  A    between atoms: C_7  and  O_8
REMARK    3  A    between atoms: C_9  and  N_10
REMARK    4  A    between atoms: C_12  and  C_13
REMARK    5  A    between atoms: N_17  and  C_18
REMARK                            x       y       z     vdW  Elec       q    Type
REMARK                         _______ _______ _______ _____ _____    ______ ____
ROOT
ATOM      1  N   UNL     1       4.467   4.954  18.396  0.00  0.00    +0.000 N 
ATOM      2  C   UNL     1       5.447   5.340  19.252  0.00  0.00    +0.000 A 
ATOM      3  C   UNL     1       6.534   5.698  18.471  0.00  0.00    +0.000 A 
ATOM      4  C   UNL     1       6.071   5.520  17.123  0.00  0.00    +0.000 A 
ATOM      5  N   UNL     1       6.819   5.709  16.004  0.00  0.00    +0.000 N 
ATOM      6  N   UNL     1       4.802   5.088  17.110  0.00  0.00    +0.000 NA
ATOM      7  H   UNL     1       7.724   6.164  16.093  0.00  0.00    +0.000 HD
ENDROOT
BRANCH   1  13
ATOM      8  C   UNL     1       2.581   4.955  20.016  0.00  0.00    +0.000 C 
ATOM      9  C   UNL     1       1.310   4.207  20.462  0.00  0.00    +0.000 C 
ATOM     10  C   UNL     1       1.561   2.714  20.639  0.00  0.00    +0.000 C 
ATOM     11  C   UNL     1       2.102   2.102  19.357  0.00  0.00    +0.000 C 
ATOM     12  C   UNL     1       3.389   2.794  18.908  0.00  0.00    +0.000 C 
ATOM     13  C   UNL     1       3.195   4.318  18.746  0.00  0.00    +0.000 C 
BRANCH   8  15
ATOM     14  N   UNL     1       2.006   7.495  19.621  0.00  0.00    +0.000 NA
ATOM     15  C   UNL     1       2.243   6.380  19.791  0.00  0.00    +0.000 C 
ENDBRANCH   8  15
BRANCH  12  16
ATOM     16  O   UNL     1       3.807   2.169  17.692  0.00  0.00    +0.000 OA
ATOM     17  H   UNL     1       3.927   1.215  17.832  0.00  0.00    +0.000 HD
ENDBRANCH  12  16
ENDBRANCH   1  13
BRANCH   5  18
ATOM     18  C   UNL     1       6.702   5.035  14.760  0.00  0.00    +0.000 A 
ATOM     19  C   UNL     1       7.630   5.295  13.741  0.00  0.00    +0.000 A 
ATOM     20  C   UNL     1       7.521   4.674  12.491  0.00  0.00    +0.000 A 
ATOM     21  C   UNL     1       6.481   3.780  12.243  0.00  0.00    +0.000 A 
ATOM     22  C   UNL     1       5.561   3.496  13.248  0.00  0.00    +0.000 A 
ATOM     23  C   UNL     1       5.669   4.124  14.493  0.00  0.00    +0.000 A 
ENDBRANCH   5  18
BRANCH   3  24
ATOM     24  C   UNL     1       7.810   6.130  18.994  0.00  0.00    +0.000 C 
ATOM     25  N   UNL     1       8.370   5.326  19.962  0.00  0.00    +0.000 N 
ATOM     26  O   UNL     1       8.406   7.136  18.626  0.00  0.00    +0.000 OA
ATOM     27  H   UNL     1       8.106   4.355  20.068  0.00  0.00    +0.000 HD
ATOM     28  H   UNL     1       9.306   5.584  20.252  0.00  0.00    +0.000 HD
ENDBRANCH   3  24
TORSDOF 5
ENDMDL
MODEL 2
REMARK VINA RESULT:      -8.2      1.448      2.193
REMARK  Name = 
REMARK  5 active torsions:
REMARK  status: ('A' for Active; 'I' for Inactive)
REMARK    1  A    between atoms: C_2  and  C_3
REMARK    2  A    between atoms: C_7  and  O_8
REMARK    3  A    between atoms: C_9  and  N_10
REMARK    4  A    between atoms: C_12  and  C_13
REMARK    5  A    between atoms: N_17  and  C_18
REMARK                            x       y       z     vdW  Elec       q    Type
REMARK                         _______ _______ _______ _____ _____    ______ ____
ROOT
ATOM      1  N   UNL     1       4.518   4.810  18.557  0.00  0.00    +0.000 N 
ATOM      2  C   UNL     1       5.511   5.219  19.388  0.00  0.00    +0.000 A 
ATOM      3  C   UNL     1       6.562   5.619  18.578  0.00  0.00    +0.000 A 
ATOM      4  C   UNL     1       6.064   5.440  17.243  0.00  0.00    +0.000 A 
ATOM      5  N   UNL     1       6.771   5.664  16.104  0.00  0.00    +0.000 N 
ATOM      6  N   UNL     1       4.810   4.968  17.264  0.00  0.00    +0.000 NA
ATOM      7  H   UNL     1       7.663   6.147  16.170  0.00  0.00    +0.000 HD
ENDROOT
BRANCH   1  13
ATOM      8  C   UNL     1       3.476   2.597  19.004  0.00  0.00    +0.000 C 
ATOM      9  C   UNL     1       2.147   1.869  19.279  0.00  0.00    +0.000 C 
ATOM     10  C   UNL     1       1.066   2.261  18.279  0.00  0.00    +0.000 C 
ATOM     11  C   UNL     1       0.846   3.764  18.282  0.00  0.00    +0.000 C 
ATOM     12  C   UNL     1       2.139   4.518  17.971  0.00  0.00    +0.000 C 
ATOM     13  C   UNL     1       3.278   4.130  18.939  0.00  0.00    +0.000 C 
BRANCH   8  15
ATOM     14  N   UNL     1       5.201   1.914  20.874  0.00  0.00    +0.000 NA
ATOM     15  C   UNL     1       4.452   2.226  20.056  0.00  0.00    +0.000 C 
ENDBRANCH   8  15
BRANCH  12  16
ATOM     16  O   UNL     1       1.840   5.916  18.019  0.00  0.00    +0.000 OA
ATOM     17  H   UNL     1       0.877   6.051  18.014  0.00  0.00    +0.000 HD
ENDBRANCH  12  16
ENDBRANCH   1  13
BRANCH   5  18
ATOM     18  C   UNL     1       6.638   4.999  14.857  0.00  0.00    +0.000 A 
ATOM     19  C   UNL     1       7.585   5.223  13.847  0.00  0.00    +0.000 A 
ATOM     20  C   UNL     1       7.461   4.612  12.594  0.00  0.00    +0.000 A 
ATOM     21  C   UNL     1       6.388   3.761  12.334  0.00  0.00    +0.000 A 
ATOM     22  C   UNL     1       5.448   3.512  13.330  0.00  0.00    +0.000 A 
ATOM     23  C   UNL     1       5.571   4.132  14.578  0.00  0.00    +0.000 A 
ENDBRANCH   5  18
BRANCH   3  24
ATOM     24  C   UNL     1       7.839   6.087  19.067  0.00  0.00    +0.000 C 
ATOM     25  N   UNL     1       8.423   5.326  20.056  0.00  0.00    +0.000 N 
ATOM     26  O   UNL     1       8.417   7.085  18.654  0.00  0.00    +0.000 OA
ATOM     27  H   UNL     1       8.173   4.356  20.202  0.00  0.00    +0.000 HD
ATOM     28  H   UNL     1       9.359   5.607  20.324  0.00  0.00    +0.000 HD
ENDBRANCH   3  24
TORSDOF 5
ENDMDL
MODEL 3
REMARK VINA RESULT:      -8.2      2.989      5.304
REMARK  Name = 
REMARK  5 active torsions:
REMARK  status: ('A' for Active; 'I' for Inactive)
REMARK    1  A    between atoms: C_2  and  C_3
REMARK    2  A    between atoms: C_7  and  O_8
REMARK    3  A    between atoms: C_9  and  N_10
REMARK    4  A    between atoms: C_12  and  C_13
REMARK    5  A    between atoms: N_17  and  C_18
REMARK                            x       y       z     vdW  Elec       q    Type
REMARK                         _______ _______ _______ _____ _____    ______ ____
ROOT
ATOM      1  N   UNL     1       2.269   7.109  19.927  0.00  0.00    +0.000 N 
ATOM      2  C   UNL     1       1.536   6.220  20.645  0.00  0.00    +0.000 A 
ATOM      3  C   UNL     1       2.187   5.001  20.545  0.00  0.00    +0.000 A 
ATOM      4  C   UNL     1       3.351   5.289  19.755  0.00  0.00    +0.000 A 
ATOM      5  N   UNL     1       4.275   4.375  19.355  0.00  0.00    +0.000 N 
ATOM      6  N   UNL     1       3.384   6.585  19.413  0.00  0.00    +0.000 NA
ATOM      7  H   UNL     1       4.251   3.446  19.766  0.00  0.00    +0.000 HD
ENDROOT
BRANCH   1  13
ATOM      8  C   UNL     1       0.763   9.002  20.503  0.00  0.00    +0.000 C 
ATOM      9  C   UNL     1       0.276  10.395  20.063  0.00  0.00    +0.000 C 
ATOM     10  C   UNL     1      -0.131  10.419  18.595  0.00  0.00    +0.000 C 
ATOM     11  C   UNL     1       1.017   9.966  17.709  0.00  0.00    +0.000 C 
ATOM     12  C   UNL     1       1.499   8.567  18.091  0.00  0.00    +0.000 C 
ATOM     13  C   UNL     1       1.893   8.482  19.582  0.00  0.00    +0.000 C 
BRANCH   8  15
ATOM     14  N   UNL     1       1.558   9.157  23.010  0.00  0.00    +0.000 NA
ATOM     15  C   UNL     1       1.212   9.074  21.914  0.00  0.00    +0.000 C 
ENDBRANCH   8  15
BRANCH  12  16
ATOM     16  O   UNL     1       2.587   8.239  17.224  0.00  0.00    +0.000 OA
ATOM     17  H   UNL     1       3.387   8.719  17.497  0.00  0.00    +0.000 HD
ENDBRANCH  12  16
ENDBRANCH   1  13
BRANCH   5  18
ATOM     18  C   UNL     1       5.054   4.394  18.169  0.00  0.00    +0.000 A 
ATOM     19  C   UNL     1       6.430   4.655  18.248  0.00  0.00    +0.000 A 
ATOM     20  C   UNL     1       7.220   4.717  17.094  0.00  0.00    +0.000 A 
ATOM     21  C   UNL     1       6.644   4.514  15.841  0.00  0.00    +0.000 A 
ATOM     22  C   UNL     1       5.284   4.237  15.744  0.00  0.00    +0.000 A 
ATOM     23  C   UNL     1       4.497   4.184  16.899  0.00  0.00    +0.000 A 
ENDBRANCH   5  18
BRANCH   3  24
ATOM     24  C   UNL     1       1.711   3.770  21.134  0.00  0.00    +0.000 C 
ATOM     25  N   UNL     1       0.669   3.151  20.480  0.00  0.00    +0.000 N 
ATOM     26  O   UNL     1       2.180   3.257  22.144  0.00  0.00    +0.000 OA
ATOM     27  H   UNL     1       0.465   3.334  19.506  0.00  0.00    +0.000 HD
ATOM     28  H   UNL     1       0.407   2.242  20.844  0.00  0.00    +0.000 HD
ENDBRANCH   3  24
TORSDOF 5
ENDMDL
MODEL 4
REMARK VINA RESULT:      -7.5      3.261      5.548
REMARK  Name = 
REMARK  5 active torsions:
REMARK  status: ('A' for Active; 'I' for Inactive)
REMARK    1  A    between atoms: C_2  and  C_3
REMARK    2  A    between atoms: C_7  and  O_8
REMARK    3  A    between atoms: C_9  and  N_10
REMARK    4  A    between atoms: C_12  and  C_13
REMARK    5  A    between atoms: N_17  and  C_18
REMARK                            x       y       z     vdW  Elec       q    Type
REMARK                         _______ _______ _______ _____ _____    ______ ____
ROOT
ATOM      1  N   UNL     1       1.915   7.589  20.010  0.00  0.00    +0.000 N 
ATOM      2  C   UNL     1       1.345   6.625  20.776  0.00  0.00    +0.000 A 
ATOM      3  C   UNL     1       2.011   5.445  20.486  0.00  0.00    +0.000 A 
ATOM      4  C   UNL     1       3.016   5.834  19.535  0.00  0.00    +0.000 A 
ATOM      5  N   UNL     1       3.890   4.991  18.927  0.00  0.00    +0.000 N 
ATOM      6  N   UNL     1       2.946   7.149  19.284  0.00  0.00    +0.000 NA
ATOM      7  H   UNL     1       3.969   4.038  19.270  0.00  0.00    +0.000 HD
ENDROOT
BRANCH   1  13
ATOM      8  C   UNL     1       0.371   9.330  20.885  0.00  0.00    +0.000 C 
ATOM      9  C   UNL     1      -0.225  10.725  20.620  0.00  0.00    +0.000 C 
ATOM     10  C   UNL     1      -0.763  10.854  19.200  0.00  0.00    +0.000 C 
ATOM     11  C   UNL     1       0.323  10.551  18.181  0.00  0.00    +0.000 C 
ATOM     12  C   UNL     1       0.909   9.155  18.389  0.00  0.00    +0.000 C 
ATOM     13  C   UNL     1       1.439   8.962  19.827  0.00  0.00    +0.000 C 
BRANCH   8  15
ATOM     14  N   UNL     1       1.359   9.290  23.327  0.00  0.00    +0.000 NA
ATOM     15  C   UNL     1       0.940   9.304  22.253  0.00  0.00    +0.000 C 
ENDBRANCH   8  15
BRANCH  12  16
ATOM     16  O   UNL     1       1.931   8.970  17.406  0.00  0.00    +0.000 OA
ATOM     17  H   UNL     1       1.609   9.254  16.534  0.00  0.00    +0.000 HD
ENDBRANCH  12  16
ENDBRANCH   1  13
BRANCH   5  18
ATOM     18  C   UNL     1       4.459   5.120  17.632  0.00  0.00    +0.000 A 
ATOM     19  C   UNL     1       4.878   3.973  16.942  0.00  0.00    +0.000 A 
ATOM     20  C   UNL     1       5.476   4.069  15.680  0.00  0.00    +0.000 A 
ATOM     21  C   UNL     1       5.660   5.316  15.086  0.00  0.00    +0.000 A 
ATOM     22  C   UNL     1       5.234   6.464  15.748  0.00  0.00    +0.000 A 
ATOM     23  C   UNL     1       4.644   6.365  17.013  0.00  0.00    +0.000 A 
ENDBRANCH   5  18
BRANCH   3  24
ATOM     24  C   UNL     1       1.684   4.159  21.058  0.00  0.00    +0.000 C 
ATOM     25  N   UNL     1       0.663   3.467  20.445  0.00  0.00    +0.000 N 
ATOM     26  O   UNL     1       2.257   3.661  22.020  0.00  0.00    +0.000 OA
ATOM     27  H   UNL     1       0.384   3.659  19.491  0.00  0.00    +0.000 HD
ATOM     28  H   UNL     1       0.506   2.528  20.792  0.00  0.00    +0.000 HD
ENDBRANCH   3  24
TORSDOF 5
ENDMDL
MODEL 5
REMARK VINA RESULT:      -7.0      1.465      2.390
REMARK  Name = 
REMARK  5 active torsions:
REMARK  status: ('A' for Active; 'I' for Inactive)
REMARK    1  A    between atoms: C_2  and  C_3
REMARK    2  A    between atoms: C_7  and  O_8
REMARK    3  A    between atoms: C_9  and  N_10
REMARK    4  A    between atoms: C_12  and  C_13
REMARK    5  A    between atoms: N_17  and  C_18
REMARK                            x       y       z     vdW  Elec       q    Type
REMARK                         _______ _______ _______ _____ _____    ______ ____
ROOT
ATOM      1  N   UNL     1       4.452   4.614  18.838  0.00  0.00    +0.000 N 
ATOM      2  C   UNL     1       5.481   5.069  19.597  0.00  0.00    +0.000 A 
ATOM      3  C   UNL     1       6.454   5.512  18.717  0.00  0.00    +0.000 A 
ATOM      4  C   UNL     1       5.874   5.306  17.419  0.00  0.00    +0.000 A 
ATOM      5  N   UNL     1       6.490   5.556  16.234  0.00  0.00    +0.000 N 
ATOM      6  N   UNL     1       4.646   4.778  17.527  0.00  0.00    +0.000 NA
ATOM      7  H   UNL     1       7.362   6.078  16.238  0.00  0.00    +0.000 HD
ENDROOT
BRANCH   1  13
ATOM      8  C   UNL     1       2.741   2.920  18.216  0.00  0.00    +0.000 C 
ATOM      9  C   UNL     1       1.429   2.243  18.654  0.00  0.00    +0.000 C 
ATOM     10  C   UNL     1       0.377   3.261  19.076  0.00  0.00    +0.000 C 
ATOM     11  C   UNL     1       0.902   4.150  20.192  0.00  0.00    +0.000 C 
ATOM     12  C   UNL     1       2.184   4.870  19.775  0.00  0.00    +0.000 C 
ATOM     13  C   UNL     1       3.273   3.881  19.305  0.00  0.00    +0.000 C 
BRANCH   8  15
ATOM     14  N   UNL     1       4.530   1.068  17.657  0.00  0.00    +0.000 NA
ATOM     15  C   UNL     1       3.737   1.870  17.894  0.00  0.00    +0.000 C 
ENDBRANCH   8  15
BRANCH  12  16
ATOM     16  O   UNL     1       2.611   5.658  20.889  0.00  0.00    +0.000 OA
ATOM     17  H   UNL     1       1.999   6.401  21.026  0.00  0.00    +0.000 HD
ENDBRANCH  12  16
ENDBRANCH   1  13
BRANCH   5  18
ATOM     18  C   UNL     1       6.301   4.880  15.000  0.00  0.00    +0.000 A 
ATOM     19  C   UNL     1       7.317   4.904  14.033  0.00  0.00    +0.000 A 
ATOM     20  C   UNL     1       7.146   4.279  12.792  0.00  0.00    +0.000 A 
ATOM     21  C   UNL     1       5.956   3.615  12.502  0.00  0.00    +0.000 A 
ATOM     22  C   UNL     1       4.943   3.566  13.455  0.00  0.00    +0.000 A 
ATOM     23  C   UNL     1       5.114   4.199  14.691  0.00  0.00    +0.000 A 
ENDBRANCH   5  18
BRANCH   3  24
ATOM     24  C   UNL     1       7.740   6.038  19.116  0.00  0.00    +0.000 C 
ATOM     25  N   UNL     1       8.380   5.363  20.132  0.00  0.00    +0.000 N 
ATOM     26  O   UNL     1       8.279   7.014  18.607  0.00  0.00    +0.000 OA
ATOM     27  H   UNL     1       8.157   4.402  20.358  0.00  0.00    +0.000 HD
ATOM     28  H   UNL     1       9.320   5.680  20.338  0.00  0.00    +0.000 HD
ENDBRANCH   3  24
TORSDOF 5
ENDMDL
MODEL 6
REMARK VINA RESULT:      -6.7      1.538      1.872
REMARK  Name = 
REMARK  5 active torsions:
REMARK  status: ('A' for Active; 'I' for Inactive)
REMARK    1  A    between atoms: C_2  and  C_3
REMARK    2  A    between atoms: C_7  and  O_8
REMARK    3  A    between atoms: C_9  and  N_10
REMARK    4  A    between atoms: C_12  and  C_13
REMARK    5  A    between atoms: N_17  and  C_18
REMARK                            x       y       z     vdW  Elec       q    Type
REMARK                         _______ _______ _______ _____ _____    ______ ____
ROOT
ATOM      1  N   UNL     1       4.543   4.508  18.193  0.00  0.00    +0.000 N 
ATOM      2  C   UNL     1       5.447   5.289  18.837  0.00  0.00    +0.000 A 
ATOM      3  C   UNL     1       6.234   5.871  17.857  0.00  0.00    +0.000 A 
ATOM      4  C   UNL     1       5.676   5.387  16.625  0.00  0.00    +0.000 A 
ATOM      5  N   UNL     1       6.157   5.660  15.384  0.00  0.00    +0.000 N 
ATOM      6  N   UNL     1       4.634   4.577  16.863  0.00  0.00    +0.000 NA
ATOM      7  H   UNL     1       6.861   6.385  15.282  0.00  0.00    +0.000 HD
ENDROOT
BRANCH   1  13
ATOM      8  C   UNL     1       2.245   4.207  19.094  0.00  0.00    +0.000 C 
ATOM      9  C   UNL     1       1.310   3.245  19.851  0.00  0.00    +0.000 C 
ATOM     10  C   UNL     1       1.959   2.699  21.116  0.00  0.00    +0.000 C 
ATOM     11  C   UNL     1       3.272   2.003  20.794  0.00  0.00    +0.000 C 
ATOM     12  C   UNL     1       4.241   2.944  20.078  0.00  0.00    +0.000 C 
ATOM     13  C   UNL     1       3.616   3.551  18.803  0.00  0.00    +0.000 C 
BRANCH   8  15
ATOM     14  N   UNL     1       1.039   4.973  16.880  0.00  0.00    +0.000 NA
ATOM     15  C   UNL     1       1.579   4.635  17.841  0.00  0.00    +0.000 C 
ENDBRANCH   8  15
BRANCH  12  16
ATOM     16  O   UNL     1       5.429   2.200  19.797  0.00  0.00    +0.000 OA
ATOM     17  H   UNL     1       5.228   1.248  19.773  0.00  0.00    +0.000 HD
ENDBRANCH  12  16
ENDBRANCH   1  13
BRANCH   5  18
ATOM     18  C   UNL     1       6.100   4.832  14.232  0.00  0.00    +0.000 A 
ATOM     19  C   UNL     1       4.914   4.146  13.930  0.00  0.00    +0.000 A 
ATOM     20  C   UNL     1       4.837   3.293  12.822  0.00  0.00    +0.000 A 
ATOM     21  C   UNL     1       5.946   3.117  11.997  0.00  0.00    +0.000 A 
ATOM     22  C   UNL     1       7.126   3.803  12.271  0.00  0.00    +0.000 A 
ATOM     23  C   UNL     1       7.201   4.648  13.383  0.00  0.00    +0.000 A 
ENDBRANCH   5  18
BRANCH   3  24
ATOM     24  C   UNL     1       7.353   6.747  18.120  0.00  0.00    +0.000 C 
ATOM     25  N   UNL     1       7.440   7.870  17.327  0.00  0.00    +0.000 N 
ATOM     26  O   UNL     1       8.193   6.557  18.992  0.00  0.00    +0.000 OA
ATOM     27  H   UNL     1       6.637   8.242  16.837  0.00  0.00    +0.000 HD
ATOM     28  H   UNL     1       8.171   8.525  17.582  0.00  0.00    +0.000 HD
ENDBRANCH   3  24
TORSDOF 5
ENDMDL
MODEL 7
REMARK VINA RESULT:      -6.5      7.989     10.398
REMARK  Name = 
REMARK  5 active torsions:
REMARK  status: ('A' for Active; 'I' for Inactive)
REMARK    1  A    between atoms: C_2  and  C_3
REMARK    2  A    between atoms: C_7  and  O_8
REMARK    3  A    between atoms: C_9  and  N_10
REMARK    4  A    between atoms: C_12  and  C_13
REMARK    5  A    between atoms: N_17  and  C_18
REMARK                            x       y       z     vdW  Elec       q    Type
REMARK                         _______ _______ _______ _____ _____    ______ ____
ROOT
ATOM      1  N   UNL     1       1.178  12.160  19.755  0.00  0.00    +0.000 N 
ATOM      2  C   UNL     1       1.386  11.257  20.747  0.00  0.00    +0.000 A 
ATOM      3  C   UNL     1       0.534  10.193  20.496  0.00  0.00    +0.000 A 
ATOM      4  C   UNL     1      -0.130  10.556  19.275  0.00  0.00    +0.000 A 
ATOM      5  N   UNL     1      -1.100   9.828  18.662  0.00  0.00    +0.000 N 
ATOM      6  N   UNL     1       0.300  11.748  18.838  0.00  0.00    +0.000 NA
ATOM      7  H   UNL     1      -1.273   8.879  18.980  0.00  0.00    +0.000 HD
ENDROOT
BRANCH   1  13
ATOM      8  C   UNL     1       0.673  14.556  20.186  0.00  0.00    +0.000 C 
ATOM      9  C   UNL     1       1.177  15.999  19.993  0.00  0.00    +0.000 C 
ATOM     10  C   UNL     1       1.597  16.267  18.553  0.00  0.00    +0.000 C 
ATOM     11  C   UNL     1       2.663  15.280  18.108  0.00  0.00    +0.000 C 
ATOM     12  C   UNL     1       2.179  13.837  18.246  0.00  0.00    +0.000 C 
ATOM     13  C   UNL     1       1.710  13.523  19.684  0.00  0.00    +0.000 C 
BRANCH   8  15
ATOM     14  N   UNL     1       0.137  14.179  22.737  0.00  0.00    +0.000 NA
ATOM     15  C   UNL     1       0.357  14.346  21.619  0.00  0.00    +0.000 C 
ENDBRANCH   8  15
BRANCH  12  16
ATOM     16  O   UNL     1       3.249  12.986  17.828  0.00  0.00    +0.000 OA
ATOM     17  H   UNL     1       3.416  12.305  18.502  0.00  0.00    +0.000 HD
ENDBRANCH  12  16
ENDBRANCH   1  13
BRANCH   5  18
ATOM     18  C   UNL     1      -2.179  10.312  17.876  0.00  0.00    +0.000 A 
ATOM     19  C   UNL     1      -2.240   9.992  16.512  0.00  0.00    +0.000 A 
ATOM     20  C   UNL     1      -3.271  10.484  15.701  0.00  0.00    +0.000 A 
ATOM     21  C   UNL     1      -4.260  11.301  16.247  0.00  0.00    +0.000 A 
ATOM     22  C   UNL     1      -4.226  11.614  17.602  0.00  0.00    +0.000 A 
ATOM     23  C   UNL     1      -3.189  11.128  18.407  0.00  0.00    +0.000 A 
ENDBRANCH   5  18
BRANCH   3  24
ATOM     24  C   UNL     1       0.407   9.029  21.343  0.00  0.00    +0.000 C 
ATOM     25  N   UNL     1       1.573   8.566  21.913  0.00  0.00    +0.000 N 
ATOM     26  O   UNL     1      -0.650   8.458  21.584  0.00  0.00    +0.000 OA
ATOM     27  H   UNL     1       2.387   9.158  22.019  0.00  0.00    +0.000 HD
ATOM     28  H   UNL     1       1.461   7.811  22.579  0.00  0.00    +0.000 HD
ENDBRANCH   3  24
TORSDOF 5
ENDMDL
MODEL 8
REMARK VINA RESULT:      -6.3      2.559      4.689
REMARK  Name = 
REMARK  5 active torsions:
REMARK  status: ('A' for Active; 'I' for Inactive)
REMARK    1  A    between atoms: C_2  and  C_3
REMARK    2  A    between atoms: C_7  and  O_8
REMARK    3  A    between atoms: C_9  and  N_10
REMARK    4  A    between atoms: C_12  and  C_13
REMARK    5  A    between atoms: N_17  and  C_18
REMARK                            x       y       z     vdW  Elec       q    Type
REMARK                         _______ _______ _______ _____ _____    ______ ____
ROOT
ATOM      1  N   UNL     1       4.770   4.678  18.591  0.00  0.00    +0.000 N 
ATOM      2  C   UNL     1       4.703   4.083  17.373  0.00  0.00    +0.000 A 
ATOM      3  C   UNL     1       5.750   4.597  16.626  0.00  0.00    +0.000 A 
ATOM      4  C   UNL     1       6.423   5.488  17.530  0.00  0.00    +0.000 A 
ATOM      5  N   UNL     1       7.497   6.260  17.218  0.00  0.00    +0.000 N 
ATOM      6  N   UNL     1       5.816   5.497  18.725  0.00  0.00    +0.000 NA
ATOM      7  H   UNL     1       7.978   6.095  16.338  0.00  0.00    +0.000 HD
ENDROOT
BRANCH   1  13
ATOM      8  C   UNL     1       3.286   3.144  19.868  0.00  0.00    +0.000 C 
ATOM      9  C   UNL     1       2.149   3.074  20.904  0.00  0.00    +0.000 C 
ATOM     10  C   UNL     1       1.002   4.016  20.556  0.00  0.00    +0.000 C 
ATOM     11  C   UNL     1       1.499   5.446  20.426  0.00  0.00    +0.000 C 
ATOM     12  C   UNL     1       2.602   5.560  19.373  0.00  0.00    +0.000 C 
ATOM     13  C   UNL     1       3.775   4.598  19.663  0.00  0.00    +0.000 C 
BRANCH   8  15
ATOM     14  N   UNL     1       5.239   1.571  20.676  0.00  0.00    +0.000 NA
ATOM     15  C   UNL     1       4.393   2.264  20.311  0.00  0.00    +0.000 C 
ENDBRANCH   8  15
BRANCH  12  16
ATOM     16  O   UNL     1       3.019   6.927  19.338  0.00  0.00    +0.000 OA
ATOM     17  H   UNL     1       2.297   7.504  19.641  0.00  0.00    +0.000 HD
ENDBRANCH  12  16
ENDBRANCH   1  13
BRANCH   5  18
ATOM     18  C   UNL     1       7.841   7.525  17.764  0.00  0.00    +0.000 A 
ATOM     19  C   UNL     1       7.394   8.696  17.135  0.00  0.00    +0.000 A 
ATOM     20  C   UNL     1       7.747   9.958  17.627  0.00  0.00    +0.000 A 
ATOM     21  C   UNL     1       8.549  10.068  18.761  0.00  0.00    +0.000 A 
ATOM     22  C   UNL     1       8.987   8.917  19.410  0.00  0.00    +0.000 A 
ATOM     23  C   UNL     1       8.639   7.657  18.910  0.00  0.00    +0.000 A 
ENDBRANCH   5  18
BRANCH   3  24
ATOM     24  C   UNL     1       6.014   4.257  15.246  0.00  0.00    +0.000 C 
ATOM     25  N   UNL     1       5.778   2.947  14.890  0.00  0.00    +0.000 N 
ATOM     26  O   UNL     1       6.411   5.050  14.400  0.00  0.00    +0.000 OA
ATOM     27  H   UNL     1       5.164   2.350  15.428  0.00  0.00    +0.000 HD
ATOM     28  H   UNL     1       5.873   2.742  13.903  0.00  0.00    +0.000 HD
ENDBRANCH   3  24
TORSDOF 5
ENDMDL
MODEL 9
REMARK VINA RESULT:      -6.2      6.777      9.510
REMARK  Name = 
REMARK  5 active torsions:
REMARK  status: ('A' for Active; 'I' for Inactive)
REMARK    1  A    between atoms: C_2  and  C_3
REMARK    2  A    between atoms: C_7  and  O_8
REMARK    3  A    between atoms: C_9  and  N_10
REMARK    4  A    between atoms: C_12  and  C_13
REMARK    5  A    between atoms: N_17  and  C_18
REMARK                            x       y       z     vdW  Elec       q    Type
REMARK                         _______ _______ _______ _____ _____    ______ ____
ROOT
ATOM      1  N   UNL     1      -1.032  12.083  20.188  0.00  0.00    +0.000 N 
ATOM      2  C   UNL     1      -0.376  13.221  19.847  0.00  0.00    +0.000 A 
ATOM      3  C   UNL     1       0.704  12.836  19.069  0.00  0.00    +0.000 A 
ATOM      4  C   UNL     1       0.575  11.408  18.973  0.00  0.00    +0.000 A 
ATOM      5  N   UNL     1       1.446  10.582  18.335  0.00  0.00    +0.000 N 
ATOM      6  N   UNL     1      -0.504  10.983  19.646  0.00  0.00    +0.000 NA
ATOM      7  H   UNL     1       2.160  10.991  17.739  0.00  0.00    +0.000 HD
ENDROOT
BRANCH   1  13
ATOM      8  C   UNL     1      -3.366  12.768  20.700  0.00  0.00    +0.000 C 
ATOM      9  C   UNL     1      -4.475  12.743  21.769  0.00  0.00    +0.000 C 
ATOM     10  C   UNL     1      -3.963  13.196  23.131  0.00  0.00    +0.000 C 
ATOM     11  C   UNL     1      -2.790  12.340  23.579  0.00  0.00    +0.000 C 
ATOM     12  C   UNL     1      -1.652  12.376  22.559  0.00  0.00    +0.000 C 
ATOM     13  C   UNL     1      -2.128  11.956  21.151  0.00  0.00    +0.000 C 
BRANCH   8  15
ATOM     14  N   UNL     1      -4.354  11.863  18.432  0.00  0.00    +0.000 NA
ATOM     15  C   UNL     1      -3.916  12.245  19.427  0.00  0.00    +0.000 C 
ENDBRANCH   8  15
BRANCH  12  16
ATOM     16  O   UNL     1      -0.610  11.530  23.052  0.00  0.00    +0.000 OA
ATOM     17  H   UNL     1      -0.713  10.631  22.695  0.00  0.00    +0.000 HD
ENDBRANCH  12  16
ENDBRANCH   1  13
BRANCH   5  18
ATOM     18  C   UNL     1       1.756   9.235  18.660  0.00  0.00    +0.000 A 
ATOM     19  C   UNL     1       1.510   8.760  19.957  0.00  0.00    +0.000 A 
ATOM     20  C   UNL     1       1.839   7.449  20.319  0.00  0.00    +0.000 A 
ATOM     21  C   UNL     1       2.416   6.589  19.386  0.00  0.00    +0.000 A 
ATOM     22  C   UNL     1       2.651   7.037  18.089  0.00  0.00    +0.000 A 
ATOM     23  C   UNL     1       2.329   8.351  17.733  0.00  0.00    +0.000 A 
ENDBRANCH   5  18
BRANCH   3  24
ATOM     24  C   UNL     1       1.690  13.744  18.532  0.00  0.00    +0.000 C 
ATOM     25  N   UNL     1       1.448  15.086  18.730  0.00  0.00    +0.000 N 
ATOM     26  O   UNL     1       2.705  13.396  17.939  0.00  0.00    +0.000 OA
ATOM     27  H   UNL     1       0.833  15.415  19.462  0.00  0.00    +0.000 HD
ATOM     28  H   UNL     1       2.191  15.709  18.435  0.00  0.00    +0.000 HD
ENDBRANCH   3  24
TORSDOF 5
ENDMDL
