MODEL 1
REMARK VINA RESULT:      -7.3      0.000      0.000
REMARK  Name = 
REMARK  16 active torsions:
REMARK  status: ('A' for Active; 'I' for Inactive)
REMARK    1  A    between atoms: C_1  and  C_2
REMARK    2  A    between atoms: C_2  and  O_3
REMARK    3  A    between atoms: O_3  and  N_4
REMARK    4  A    between atoms: C_5  and  C_7
REMARK    5  A    between atoms: C_7  and  C_9
REMARK    6  A    between atoms: C_9  and  C_10
REMARK    7  A    between atoms: C_9  and  N_17
REMARK    8  A    between atoms: C_10  and  C_11
REMARK    9  A    between atoms: C_18  and  C_20
REMARK   10  A    between atoms: C_20  and  C_21
REMARK   11  A    between atoms: C_20  and  N_30
REMARK   12  A    between atoms: C_21  and  O_22
REMARK   13  A    between atoms: O_22  and  C_23
REMARK   14  A    between atoms: C_23  and  C_24
REMARK   15  A    between atoms: N_30  and  S_31
REMARK   16  A    between atoms: S_31  and  C_32
REMARK                            x       y       z     vdW  Elec       q    Type
REMARK                         _______ _______ _______ _____ _____    ______ ____
ROOT
ATOM      1  N   UNL     1       4.646   4.640  17.172  0.00  0.00    +0.000 N 
ATOM      2  C   UNL     1       4.009   3.620  17.846  0.00  0.00    +0.000 C 
ATOM      3  O   UNL     1       4.270   2.430  17.682  0.00  0.00    +0.000 OA
ATOM      4  H   UNL     1       4.440   5.615  17.387  0.00  0.00    +0.000 HD
ENDROOT
BRANCH   1   5
ATOM      5  C   UNL     1       5.789   4.381  16.290  0.00  0.00    +0.000 C 
BRANCH   5   6
ATOM      6  C   UNL     1       7.087   4.759  17.008  0.00  0.00    +0.000 C 
ATOM      7  O   UNL     1       8.135   4.130  16.923  0.00  0.00    +0.000 OA
BRANCH   6   9
ATOM      8  N   UNL     1       7.452   7.159  17.197  0.00  0.00    +0.000 N 
ATOM      9  C   UNL     1       7.045   6.026  17.867  0.00  0.00    +0.000 C 
ATOM     10  O   UNL     1       6.703   5.962  19.038  0.00  0.00    +0.000 OA
ATOM     11  H   UNL     1       7.315   7.197  16.189  0.00  0.00    +0.000 HD
BRANCH   8  12
ATOM     12  O   UNL     1       7.244   8.367  17.908  0.00  0.00    +0.000 OA
BRANCH  12  14
ATOM     13  C   UNL     1       8.979   9.717  18.882  0.00  0.00    +0.000 C 
ATOM     14  C   UNL     1       8.320   9.259  17.595  0.00  0.00    +0.000 C 
ENDBRANCH  12  14
ENDBRANCH   8  12
ENDBRANCH   6   9
ENDBRANCH   5   6
BRANCH   5  15
ATOM     15  C   UNL     1       5.613   5.041  14.909  0.00  0.00    +0.000 C 
BRANCH  15  16
ATOM     16  C   UNL     1       5.882   4.186  13.688  0.00  0.00    +0.000 A 
ATOM     17  C   UNL     1       4.859   3.503  13.018  0.00  0.00    +0.000 A 
ATOM     18  C   UNL     1       5.120   2.827  11.824  0.00  0.00    +0.000 A 
ATOM     19  C   UNL     1       6.401   2.832  11.281  0.00  0.00    +0.000 A 
ATOM     20  C   UNL     1       7.430   3.497  11.942  0.00  0.00    +0.000 A 
ATOM     21  C   UNL     1       7.174   4.165  13.140  0.00  0.00    +0.000 A 
ENDBRANCH  15  16
ENDBRANCH   5  15
ENDBRANCH   1   5
BRANCH   2  22
ATOM     22  C   UNL     1       2.925   4.073  18.811  0.00  0.00    +0.000 C 
BRANCH  22  23
ATOM     23  N   UNL     1       2.238   2.911  19.458  0.00  0.00    +0.000 NA
ATOM     24  H   UNL     1       2.527   2.038  19.008  0.00  0.00    +0.000 HD
BRANCH  23  25
ATOM     25  S   UNL     1       2.405   2.838  21.131  0.00  0.00    +0.000 S 
ATOM     26  C   UNL     1       2.479   4.567  21.545  0.00  0.00    +0.000 C 
ATOM     27  O   UNL     1       1.178   2.290  21.661  0.00  0.00    +0.000 OA
ATOM     28  O   UNL     1       3.682   2.222  21.409  0.00  0.00    +0.000 OA
ENDBRANCH  23  25
ENDBRANCH  22  23
BRANCH  22  29
ATOM     29  C   UNL     1       1.893   4.892  18.014  0.00  0.00    +0.000 C 
BRANCH  29  30
ATOM     30  O   UNL     1       2.253   6.271  17.877  0.00  0.00    +0.000 OA
BRANCH  30  31
ATOM     31  C   UNL     1       2.650   6.875  19.104  0.00  0.00    +0.000 C 
BRANCH  31  32
ATOM     32  C   UNL     1       1.839   8.121  19.323  0.00  0.00    +0.000 A 
ATOM     33  C   UNL     1       1.529   8.960  18.246  0.00  0.00    +0.000 A 
ATOM     34  C   UNL     1       0.775  10.114  18.444  0.00  0.00    +0.000 A 
ATOM     35  C   UNL     1       0.326  10.439  19.723  0.00  0.00    +0.000 A 
ATOM     36  C   UNL     1       0.634   9.611  20.800  0.00  0.00    +0.000 A 
ATOM     37  C   UNL     1       1.382   8.452  20.603  0.00  0.00    +0.000 A 
ENDBRANCH  31  32
ENDBRANCH  30  31
ENDBRANCH  29  30
ENDBRANCH  22  29
ENDBRANCH   2  22
TORSDOF 14
ENDMDL
MODEL 2
REMARK VINA RESULT:      -7.1      3.963      8.495
REMARK  Name = 
REMARK  16 active torsions:
REMARK  status: ('A' for Active; 'I' for Inactive)
REMARK    1  A    between atoms: C_1  and  C_2
REMARK    2  A    between atoms: C_2  and  O_3
REMARK    3  A    between atoms: O_3  and  N_4
REMARK    4  A    between atoms: C_5  and  C_7
REMARK    5  A    between atoms: C_7  and  C_9
REMARK    6  A    between atoms: C_9  and  C_10
REMARK    7  A    between atoms: C_9  and  N_17
REMARK    8  A    between atoms: C_10  and  C_11
REMARK    9  A    between atoms: C_18  and  C_20
REMARK   10  A    between atoms: C_20  and  C_21
REMARK   11  A    between atoms: C_20  and  N_30
REMARK   12  A    between atoms: C_21  and  O_22
REMARK   13  A    between atoms: O_22  and  C_23
REMARK   14  A    between atoms: C_23  and  C_24
REMARK   15  A    between atoms: N_30  and  S_31
REMARK   16  A    between atoms: S_31  and  C_32
REMARK                            x       y       z     vdW  Elec       q    Type
REMARK                         _______ _______ _______ _____ _____    ______ ____
ROOT
ATOM      1  N   UNL     1       1.154   9.077  19.160  0.00  0.00    +0.000 N 
ATOM      2  C   UNL     1       2.087   8.421  18.385  0.00  0.00    +0.000 C 
ATOM      3  O   UNL     1       2.381   8.763  17.241  0.00  0.00    +0.000 OA
ATOM      4  H   UNL     1       0.989   8.796  20.126  0.00  0.00    +0.000 HD
ENDROOT
BRANCH   1   5
ATOM      5  C   UNL     1       0.528  10.326  18.715  0.00  0.00    +0.000 C 
BRANCH   5   6
ATOM      6  C   UNL     1       1.360  11.517  19.196  0.00  0.00    +0.000 C 
ATOM      7  O   UNL     1       2.142  12.146  18.492  0.00  0.00    +0.000 OA
BRANCH   6   9
ATOM      8  N   UNL     1       1.147  13.303  20.836  0.00  0.00    +0.000 N 
ATOM      9  C   UNL     1       1.166  11.937  20.655  0.00  0.00    +0.000 C 
ATOM     10  O   UNL     1       1.078  11.091  21.531  0.00  0.00    +0.000 OA
ATOM     11  H   UNL     1       0.817  13.885  20.069  0.00  0.00    +0.000 HD
BRANCH   8  12
ATOM     12  O   UNL     1       0.783  13.716  22.143  0.00  0.00    +0.000 OA
BRANCH  12  14
ATOM     13  C   UNL     1       1.091  15.687  20.800  0.00  0.00    +0.000 C 
ATOM     14  C   UNL     1       0.607  15.137  22.128  0.00  0.00    +0.000 C 
ENDBRANCH  12  14
ENDBRANCH   8  12
ENDBRANCH   6   9
ENDBRANCH   5   6
BRANCH   5  15
ATOM     15  C   UNL     1      -0.961  10.395  19.106  0.00  0.00    +0.000 C 
BRANCH  15  16
ATOM     16  C   UNL     1      -1.966  10.592  17.990  0.00  0.00    +0.000 A 
ATOM     17  C   UNL     1      -1.925   9.837  16.809  0.00  0.00    +0.000 A 
ATOM     18  C   UNL     1      -2.938   9.953  15.856  0.00  0.00    +0.000 A 
ATOM     19  C   UNL     1      -4.009  10.817  16.072  0.00  0.00    +0.000 A 
ATOM     20  C   UNL     1      -4.057  11.581  17.234  0.00  0.00    +0.000 A 
ATOM     21  C   UNL     1      -3.041  11.473  18.185  0.00  0.00    +0.000 A 
ENDBRANCH  15  16
ENDBRANCH   5  15
ENDBRANCH   1   5
BRANCH   2  22
ATOM     22  C   UNL     1       2.728   7.211  19.045  0.00  0.00    +0.000 C 
BRANCH  22  23
ATOM     23  N   UNL     1       3.173   6.200  18.035  0.00  0.00    +0.000 NA
ATOM     24  H   UNL     1       2.789   6.430  17.115  0.00  0.00    +0.000 HD
BRANCH  23  25
ATOM     25  S   UNL     1       4.837   5.954  17.974  0.00  0.00    +0.000 S 
ATOM     26  C   UNL     1       4.939   4.570  16.860  0.00  0.00    +0.000 C 
ATOM     27  O   UNL     1       5.419   7.108  17.330  0.00  0.00    +0.000 OA
ATOM     28  O   UNL     1       5.259   5.540  19.293  0.00  0.00    +0.000 OA
ENDBRANCH  23  25
ENDBRANCH  22  23
BRANCH  22  29
ATOM     29  C   UNL     1       1.681   6.570  19.975  0.00  0.00    +0.000 C 
BRANCH  29  30
ATOM     30  O   UNL     1       2.224   5.541  20.810  0.00  0.00    +0.000 OA
BRANCH  30  31
ATOM     31  C   UNL     1       1.481   4.327  20.762  0.00  0.00    +0.000 C 
BRANCH  31  32
ATOM     32  C   UNL     1       2.188   3.353  19.863  0.00  0.00    +0.000 A 
ATOM     33  C   UNL     1       1.619   2.979  18.640  0.00  0.00    +0.000 A 
ATOM     34  C   UNL     1       2.274   2.079  17.802  0.00  0.00    +0.000 A 
ATOM     35  C   UNL     1       3.504   1.545  18.183  0.00  0.00    +0.000 A 
ATOM     36  C   UNL     1       4.075   1.909  19.400  0.00  0.00    +0.000 A 
ATOM     37  C   UNL     1       3.425   2.815  20.236  0.00  0.00    +0.000 A 
ENDBRANCH  31  32
ENDBRANCH  30  31
ENDBRANCH  29  30
ENDBRANCH  22  29
ENDBRANCH   2  22
TORSDOF 14
ENDMDL
MODEL 3
REMARK VINA RESULT:      -7.1      1.525      2.374
REMARK  Name = 
REMARK  16 active torsions:
REMARK  status: ('A' for Active; 'I' for Inactive)
REMARK    1  A    between atoms: C_1  and  C_2
REMARK    2  A    between atoms: C_2  and  O_3
REMARK    3  A    between atoms: O_3  and  N_4
REMARK    4  A    between atoms: C_5  and  C_7
REMARK    5  A    between atoms: C_7  and  C_9
REMARK    6  A    between atoms: C_9  and  C_10
REMARK    7  A    between atoms: C_9  and  N_17
REMARK    8  A    between atoms: C_10  and  C_11
REMARK    9  A    between atoms: C_18  and  C_20
REMARK   10  A    between atoms: C_20  and  C_21
REMARK   11  A    between atoms: C_20  and  N_30
REMARK   12  A    between atoms: C_21  and  O_22
REMARK   13  A    between atoms: O_22  and  C_23
REMARK   14  A    between atoms: C_23  and  C_24
REMARK   15  A    between atoms: N_30  and  S_31
REMARK   16  A    between atoms: S_31  and  C_32
REMARK                            x       y       z     vdW  Elec       q    Type
REMARK                         _______ _______ _______ _____ _____    ______ ____
ROOT
ATOM      1  N   UNL     1       5.007   4.826  18.146  0.00  0.00    +0.000 N 
ATOM      2  C   UNL     1       4.196   5.940  18.094  0.00  0.00    +0.000 C 
ATOM      3  O   UNL     1       4.269   6.793  17.212  0.00  0.00    +0.000 OA
ATOM      4  H   UNL     1       4.869   4.114  18.861  0.00  0.00    +0.000 HD
ENDROOT
BRANCH   1   5
ATOM      5  C   UNL     1       5.942   4.507  17.062  0.00  0.00    +0.000 C 
BRANCH   5   6
ATOM      6  C   UNL     1       7.379   4.709  17.548  0.00  0.00    +0.000 C 
ATOM      7  O   UNL     1       8.337   4.036  17.183  0.00  0.00    +0.000 OA
BRANCH   6   9
ATOM      8  N   UNL     1       8.000   7.028  17.951  0.00  0.00    +0.000 N 
ATOM      9  C   UNL     1       7.606   5.849  18.545  0.00  0.00    +0.000 C 
ATOM     10  O   UNL     1       7.464   5.654  19.742  0.00  0.00    +0.000 OA
ATOM     11  H   UNL     1       7.698   7.211  16.996  0.00  0.00    +0.000 HD
BRANCH   8  12
ATOM     12  O   UNL     1       8.034   8.142  18.827  0.00  0.00    +0.000 OA
BRANCH  12  14
ATOM     13  C   UNL     1       9.183  10.252  18.924  0.00  0.00    +0.000 C 
ATOM     14  C   UNL     1       8.377   9.302  18.059  0.00  0.00    +0.000 C 
ENDBRANCH  12  14
ENDBRANCH   8  12
ENDBRANCH   6   9
ENDBRANCH   5   6
BRANCH   5  15
ATOM     15  C   UNL     1       5.601   5.264  15.764  0.00  0.00    +0.000 C 
BRANCH  15  16
ATOM     16  C   UNL     1       6.158   4.712  14.468  0.00  0.00    +0.000 A 
ATOM     17  C   UNL     1       5.475   3.746  13.716  0.00  0.00    +0.000 A 
ATOM     18  C   UNL     1       5.954   3.352  12.465  0.00  0.00    +0.000 A 
ATOM     19  C   UNL     1       7.112   3.922  11.946  0.00  0.00    +0.000 A 
ATOM     20  C   UNL     1       7.807   4.875  12.686  0.00  0.00    +0.000 A 
ATOM     21  C   UNL     1       7.336   5.264  13.940  0.00  0.00    +0.000 A 
ENDBRANCH  15  16
ENDBRANCH   5  15
ENDBRANCH   1   5
BRANCH   2  22
ATOM     22  C   UNL     1       3.200   6.057  19.237  0.00  0.00    +0.000 C 
BRANCH  22  23
ATOM     23  N   UNL     1       1.942   5.298  18.954  0.00  0.00    +0.000 NA
ATOM     24  H   UNL     1       1.773   5.263  17.945  0.00  0.00    +0.000 HD
BRANCH  23  25
ATOM     25  S   UNL     1       1.869   3.770  19.656  0.00  0.00    +0.000 S 
ATOM     26  C   UNL     1       1.753   2.735  18.214  0.00  0.00    +0.000 C 
ATOM     27  O   UNL     1       3.142   3.530  20.294  0.00  0.00    +0.000 OA
ATOM     28  O   UNL     1       0.633   3.697  20.400  0.00  0.00    +0.000 OA
ENDBRANCH  23  25
ENDBRANCH  22  23
BRANCH  22  29
ATOM     29  C   UNL     1       2.863   7.548  19.420  0.00  0.00    +0.000 C 
BRANCH  29  30
ATOM     30  O   UNL     1       1.541   7.769  19.925  0.00  0.00    +0.000 OA
BRANCH  30  31
ATOM     31  C   UNL     1       1.045   9.076  19.654  0.00  0.00    +0.000 C 
BRANCH  31  32
ATOM     32  C   UNL     1       0.379   9.614  20.888  0.00  0.00    +0.000 A 
ATOM     33  C   UNL     1       0.545   8.968  22.119  0.00  0.00    +0.000 A 
ATOM     34  C   UNL     1      -0.068   9.467  23.266  0.00  0.00    +0.000 A 
ATOM     35  C   UNL     1      -0.854  10.615  23.191  0.00  0.00    +0.000 A 
ATOM     36  C   UNL     1      -1.026  11.262  21.969  0.00  0.00    +0.000 A 
ATOM     37  C   UNL     1      -0.408  10.769  20.821  0.00  0.00    +0.000 A 
ENDBRANCH  31  32
ENDBRANCH  30  31
ENDBRANCH  29  30
ENDBRANCH  22  29
ENDBRANCH   2  22
TORSDOF 14
ENDMDL
MODEL 4
REMARK VINA RESULT:      -7.0      3.912      8.628
REMARK  Name = 
REMARK  16 active torsions:
REMARK  status: ('A' for Active; 'I' for Inactive)
REMARK    1  A    between atoms: C_1  and  C_2
REMARK    2  A    between atoms: C_2  and  O_3
REMARK    3  A    between atoms: O_3  and  N_4
REMARK    4  A    between atoms: C_5  and  C_7
REMARK    5  A    between atoms: C_7  and  C_9
REMARK    6  A    between atoms: C_9  and  C_10
REMARK    7  A    between atoms: C_9  and  N_17
REMARK    8  A    between atoms: C_10  and  C_11
REMARK    9  A    between atoms: C_18  and  C_20
REMARK   10  A    between atoms: C_20  and  C_21
REMARK   11  A    between atoms: C_20  and  N_30
REMARK   12  A    between atoms: C_21  and  O_22
REMARK   13  A    between atoms: O_22  and  C_23
REMARK   14  A    between atoms: C_23  and  C_24
REMARK   15  A    between atoms: N_30  and  S_31
REMARK   16  A    between atoms: S_31  and  C_32
REMARK                            x       y       z     vdW  Elec       q    Type
REMARK                         _______ _______ _______ _____ _____    ______ ____
ROOT
ATOM      1  N   UNL     1       1.196   9.084  19.019  0.00  0.00    +0.000 N 
ATOM      2  C   UNL     1       2.184   8.719  18.129  0.00  0.00    +0.000 C 
ATOM      3  O   UNL     1       2.417   9.326  17.085  0.00  0.00    +0.000 OA
ATOM      4  H   UNL     1       1.081   8.589  19.902  0.00  0.00    +0.000 HD
ENDROOT
BRANCH   1   5
ATOM      5  C   UNL     1       0.424  10.319  18.845  0.00  0.00    +0.000 C 
BRANCH   5   6
ATOM      6  C   UNL     1       1.118  11.467  19.581  0.00  0.00    +0.000 C 
ATOM      7  O   UNL     1       1.831  12.306  19.043  0.00  0.00    +0.000 OA
BRANCH   6   9
ATOM      8  N   UNL     1       0.319  12.754  21.487  0.00  0.00    +0.000 N 
ATOM      9  C   UNL     1       0.871  11.555  21.090  0.00  0.00    +0.000 C 
ATOM     10  O   UNL     1       1.185  10.627  21.819  0.00  0.00    +0.000 OA
ATOM     11  H   UNL     1      -0.265  13.258  20.823  0.00  0.00    +0.000 HD
BRANCH   8  12
ATOM     12  O   UNL     1      -0.092  12.789  22.843  0.00  0.00    +0.000 OA
BRANCH  12  14
ATOM     13  C   UNL     1      -2.315  11.897  23.044  0.00  0.00    +0.000 C 
ATOM     14  C   UNL     1      -1.478  13.150  22.880  0.00  0.00    +0.000 C 
ENDBRANCH  12  14
ENDBRANCH   8  12
ENDBRANCH   6   9
ENDBRANCH   5   6
BRANCH   5  15
ATOM     15  C   UNL     1      -1.058  10.131  19.220  0.00  0.00    +0.000 C 
BRANCH  15  16
ATOM     16  C   UNL     1      -2.088  10.365  18.135  0.00  0.00    +0.000 A 
ATOM     17  C   UNL     1      -3.173  11.235  18.313  0.00  0.00    +0.000 A 
ATOM     18  C   UNL     1      -4.031  11.525  17.251  0.00  0.00    +0.000 A 
ATOM     19  C   UNL     1      -3.814  10.960  15.998  0.00  0.00    +0.000 A 
ATOM     20  C   UNL     1      -2.747  10.085  15.809  0.00  0.00    +0.000 A 
ATOM     21  C   UNL     1      -1.893   9.786  16.871  0.00  0.00    +0.000 A 
ENDBRANCH  15  16
ENDBRANCH   5  15
ENDBRANCH   1   5
BRANCH   2  22
ATOM     22  C   UNL     1       2.969   7.478  18.522  0.00  0.00    +0.000 C 
BRANCH  22  23
ATOM     23  N   UNL     1       3.900   7.044  17.434  0.00  0.00    +0.000 NA
ATOM     24  H   UNL     1       4.378   7.856  17.035  0.00  0.00    +0.000 HD
BRANCH  23  25
ATOM     25  S   UNL     1       4.983   5.834  17.877  0.00  0.00    +0.000 S 
ATOM     26  C   UNL     1       6.509   6.489  17.238  0.00  0.00    +0.000 C 
ATOM     27  O   UNL     1       5.053   5.827  19.319  0.00  0.00    +0.000 OA
ATOM     28  O   UNL     1       4.625   4.645  17.138  0.00  0.00    +0.000 OA
ENDBRANCH  23  25
ENDBRANCH  22  23
BRANCH  22  29
ATOM     29  C   UNL     1       1.960   6.350  18.806  0.00  0.00    +0.000 C 
BRANCH  29  30
ATOM     30  O   UNL     1       1.920   5.963  20.184  0.00  0.00    +0.000 OA
BRANCH  30  31
ATOM     31  C   UNL     1       1.267   4.716  20.400  0.00  0.00    +0.000 C 
BRANCH  31  32
ATOM     32  C   UNL     1       2.039   3.631  19.705  0.00  0.00    +0.000 A 
ATOM     33  C   UNL     1       1.564   3.082  18.508  0.00  0.00    +0.000 A 
ATOM     34  C   UNL     1       2.279   2.078  17.858  0.00  0.00    +0.000 A 
ATOM     35  C   UNL     1       3.475   1.614  18.403  0.00  0.00    +0.000 A 
ATOM     36  C   UNL     1       3.953   2.153  19.596  0.00  0.00    +0.000 A 
ATOM     37  C   UNL     1       3.243   3.162  20.243  0.00  0.00    +0.000 A 
ENDBRANCH  31  32
ENDBRANCH  30  31
ENDBRANCH  29  30
ENDBRANCH  22  29
ENDBRANCH   2  22
TORSDOF 14
ENDMDL
MODEL 5
REMARK VINA RESULT:      -7.0      1.689      2.331
REMARK  Name = 
REMARK  16 active torsions:
REMARK  status: ('A' for Active; 'I' for Inactive)
REMARK    1  A    between atoms: C_1  and  C_2
REMARK    2  A    between atoms: C_2  and  O_3
REMARK    3  A    between atoms: O_3  and  N_4
REMARK    4  A    between atoms: C_5  and  C_7
REMARK    5  A    between atoms: C_7  and  C_9
REMARK    6  A    between atoms: C_9  and  C_10
REMARK    7  A    between atoms: C_9  and  N_17
REMARK    8  A    between atoms: C_10  and  C_11
REMARK    9  A    between atoms: C_18  and  C_20
REMARK   10  A    between atoms: C_20  and  C_21
REMARK   11  A    between atoms: C_20  and  N_30
REMARK   12  A    between atoms: C_21  and  O_22
REMARK   13  A    between atoms: O_22  and  C_23
REMARK   14  A    between atoms: C_23  and  C_24
REMARK   15  A    between atoms: N_30  and  S_31
REMARK   16  A    between atoms: S_31  and  C_32
REMARK                            x       y       z     vdW  Elec       q    Type
REMARK                         _______ _______ _______ _____ _____    ______ ____
ROOT
ATOM      1  N   UNL     1       4.941   5.640  17.954  0.00  0.00    +0.000 N 
ATOM      2  C   UNL     1       4.283   4.779  18.808  0.00  0.00    +0.000 C 
ATOM      3  O   UNL     1       4.853   3.926  19.485  0.00  0.00    +0.000 OA
ATOM      4  H   UNL     1       4.434   6.372  17.460  0.00  0.00    +0.000 HD
ENDROOT
BRANCH   1   5
ATOM      5  C   UNL     1       6.406   5.684  17.889  0.00  0.00    +0.000 C 
BRANCH   5   6
ATOM      6  C   UNL     1       6.857   7.075  17.438  0.00  0.00    +0.000 C 
ATOM      7  O   UNL     1       6.379   7.686  16.489  0.00  0.00    +0.000 OA
BRANCH   6   9
ATOM      8  N   UNL     1       8.229   9.033  17.900  0.00  0.00    +0.000 N 
ATOM      9  C   UNL     1       7.972   7.727  18.260  0.00  0.00    +0.000 C 
ATOM     10  O   UNL     1       8.559   7.085  19.117  0.00  0.00    +0.000 OA
ATOM     11  H   UNL     1       7.466   9.583  17.509  0.00  0.00    +0.000 HD
BRANCH   8  12
ATOM     12  O   UNL     1       9.120   9.715  18.766  0.00  0.00    +0.000 OA
BRANCH  12  14
ATOM     13  C   UNL     1      10.267  11.795  19.137  0.00  0.00    +0.000 C 
ATOM     14  C   UNL     1       9.179  11.086  18.355  0.00  0.00    +0.000 C 
ENDBRANCH  12  14
ENDBRANCH   8  12
ENDBRANCH   6   9
ENDBRANCH   5   6
BRANCH   5  15
ATOM     15  C   UNL     1       6.981   4.528  17.047  0.00  0.00    +0.000 C 
BRANCH  15  16
ATOM     16  C   UNL     1       6.669   4.523  15.565  0.00  0.00    +0.000 A 
ATOM     17  C   UNL     1       7.566   5.028  14.614  0.00  0.00    +0.000 A 
ATOM     18  C   UNL     1       7.304   4.894  13.249  0.00  0.00    +0.000 A 
ATOM     19  C   UNL     1       6.150   4.247  12.817  0.00  0.00    +0.000 A 
ATOM     20  C   UNL     1       5.245   3.750  13.750  0.00  0.00    +0.000 A 
ATOM     21  C   UNL     1       5.500   3.891  15.115  0.00  0.00    +0.000 A 
ENDBRANCH  15  16
ENDBRANCH   5  15
ENDBRANCH   1   5
BRANCH   2  22
ATOM     22  C   UNL     1       2.773   4.946  18.841  0.00  0.00    +0.000 C 
BRANCH  22  23
ATOM     23  N   UNL     1       2.080   3.883  18.047  0.00  0.00    +0.000 NA
ATOM     24  H   UNL     1       2.699   3.537  17.309  0.00  0.00    +0.000 HD
BRANCH  23  25
ATOM     25  S   UNL     1       1.436   2.628  18.965  0.00  0.00    +0.000 S 
ATOM     26  C   UNL     1       1.082   3.466  20.494  0.00  0.00    +0.000 C 
ATOM     27  O   UNL     1       0.187   2.243  18.351  0.00  0.00    +0.000 OA
ATOM     28  O   UNL     1       2.493   1.666  19.179  0.00  0.00    +0.000 OA
ENDBRANCH  23  25
ENDBRANCH  22  23
BRANCH  22  29
ATOM     29  C   UNL     1       2.435   6.325  18.243  0.00  0.00    +0.000 C 
BRANCH  29  30
ATOM     30  O   UNL     1       2.598   7.399  19.177  0.00  0.00    +0.000 OA
BRANCH  30  31
ATOM     31  C   UNL     1       1.942   8.597  18.775  0.00  0.00    +0.000 C 
BRANCH  31  32
ATOM     32  C   UNL     1       1.130   9.121  19.926  0.00  0.00    +0.000 A 
ATOM     33  C   UNL     1       0.234  10.180  19.734  0.00  0.00    +0.000 A 
ATOM     34  C   UNL     1      -0.524  10.665  20.797  0.00  0.00    +0.000 A 
ATOM     35  C   UNL     1      -0.390  10.096  22.063  0.00  0.00    +0.000 A 
ATOM     36  C   UNL     1       0.502   9.044  22.262  0.00  0.00    +0.000 A 
ATOM     37  C   UNL     1       1.255   8.552  21.198  0.00  0.00    +0.000 A 
ENDBRANCH  31  32
ENDBRANCH  30  31
ENDBRANCH  29  30
ENDBRANCH  22  29
ENDBRANCH   2  22
TORSDOF 14
ENDMDL
MODEL 6
REMARK VINA RESULT:      -6.9      1.334      2.055
REMARK  Name = 
REMARK  16 active torsions:
REMARK  status: ('A' for Active; 'I' for Inactive)
REMARK    1  A    between atoms: C_1  and  C_2
REMARK    2  A    between atoms: C_2  and  O_3
REMARK    3  A    between atoms: O_3  and  N_4
REMARK    4  A    between atoms: C_5  and  C_7
REMARK    5  A    between atoms: C_7  and  C_9
REMARK    6  A    between atoms: C_9  and  C_10
REMARK    7  A    between atoms: C_9  and  N_17
REMARK    8  A    between atoms: C_10  and  C_11
REMARK    9  A    between atoms: C_18  and  C_20
REMARK   10  A    between atoms: C_20  and  C_21
REMARK   11  A    between atoms: C_20  and  N_30
REMARK   12  A    between atoms: C_21  and  O_22
REMARK   13  A    between atoms: O_22  and  C_23
REMARK   14  A    between atoms: C_23  and  C_24
REMARK   15  A    between atoms: N_30  and  S_31
REMARK   16  A    between atoms: S_31  and  C_32
REMARK                            x       y       z     vdW  Elec       q    Type
REMARK                         _______ _______ _______ _____ _____    ______ ____
ROOT
ATOM      1  N   UNL     1       4.983   5.251  18.449  0.00  0.00    +0.000 N 
ATOM      2  C   UNL     1       3.607   5.168  18.492  0.00  0.00    +0.000 C 
ATOM      3  O   UNL     1       2.916   4.826  17.534  0.00  0.00    +0.000 OA
ATOM      4  H   UNL     1       5.518   5.479  19.285  0.00  0.00    +0.000 HD
ENDROOT
BRANCH   1   5
ATOM      5  C   UNL     1       5.742   4.806  17.275  0.00  0.00    +0.000 C 
BRANCH   5   6
ATOM      6  C   UNL     1       7.238   4.816  17.597  0.00  0.00    +0.000 C 
ATOM      7  O   UNL     1       8.055   4.035  17.123  0.00  0.00    +0.000 OA
BRANCH   6   9
ATOM      8  N   UNL     1       8.086   7.072  17.943  0.00  0.00    +0.000 N 
ATOM      9  C   UNL     1       7.717   5.900  18.567  0.00  0.00    +0.000 C 
ATOM     10  O   UNL     1       7.772   5.670  19.766  0.00  0.00    +0.000 OA
ATOM     11  H   UNL     1       7.636   7.310  17.062  0.00  0.00    +0.000 HD
BRANCH   8  12
ATOM     12  O   UNL     1       8.352   8.147  18.828  0.00  0.00    +0.000 OA
BRANCH  12  14
ATOM     13  C   UNL     1       9.171  10.408  18.814  0.00  0.00    +0.000 C 
ATOM     14  C   UNL     1       8.377   9.358  18.062  0.00  0.00    +0.000 C 
ENDBRANCH  12  14
ENDBRANCH   8  12
ENDBRANCH   6   9
ENDBRANCH   5   6
BRANCH   5  15
ATOM     15  C   UNL     1       5.361   5.596  16.008  0.00  0.00    +0.000 C 
BRANCH  15  16
ATOM     16  C   UNL     1       5.881   5.080  14.682  0.00  0.00    +0.000 A 
ATOM     17  C   UNL     1       7.123   5.473  14.165  0.00  0.00    +0.000 A 
ATOM     18  C   UNL     1       7.628   4.884  13.005  0.00  0.00    +0.000 A 
ATOM     19  C   UNL     1       6.904   3.890  12.352  0.00  0.00    +0.000 A 
ATOM     20  C   UNL     1       5.664   3.497  12.847  0.00  0.00    +0.000 A 
ATOM     21  C   UNL     1       5.153   4.091  14.002  0.00  0.00    +0.000 A 
ENDBRANCH  15  16
ENDBRANCH   5  15
ENDBRANCH   1   5
BRANCH   2  22
ATOM     22  C   UNL     1       2.987   5.556  19.824  0.00  0.00    +0.000 C 
BRANCH  22  23
ATOM     23  N   UNL     1       1.836   4.666  20.179  0.00  0.00    +0.000 NA
ATOM     24  H   UNL     1       1.167   4.632  19.406  0.00  0.00    +0.000 HD
BRANCH  23  25
ATOM     25  S   UNL     1       2.273   3.126  20.698  0.00  0.00    +0.000 S 
ATOM     26  C   UNL     1       1.483   2.112  19.468  0.00  0.00    +0.000 C 
ATOM     27  O   UNL     1       3.704   3.009  20.541  0.00  0.00    +0.000 OA
ATOM     28  O   UNL     1       1.641   2.908  21.979  0.00  0.00    +0.000 OA
ENDBRANCH  23  25
ENDBRANCH  22  23
BRANCH  22  29
ATOM     29  C   UNL     1       2.487   7.008  19.710  0.00  0.00    +0.000 C 
BRANCH  29  30
ATOM     30  O   UNL     1       1.257   7.238  20.406  0.00  0.00    +0.000 OA
BRANCH  30  31
ATOM     31  C   UNL     1       1.318   8.337  21.308  0.00  0.00    +0.000 C 
BRANCH  31  32
ATOM     32  C   UNL     1       0.671   9.533  20.669  0.00  0.00    +0.000 A 
ATOM     33  C   UNL     1      -0.413   9.368  19.798  0.00  0.00    +0.000 A 
ATOM     34  C   UNL     1      -1.018  10.475  19.206  0.00  0.00    +0.000 A 
ATOM     35  C   UNL     1      -0.542  11.756  19.480  0.00  0.00    +0.000 A 
ATOM     36  C   UNL     1       0.538  11.928  20.343  0.00  0.00    +0.000 A 
ATOM     37  C   UNL     1       1.140  10.823  20.942  0.00  0.00    +0.000 A 
ENDBRANCH  31  32
ENDBRANCH  30  31
ENDBRANCH  29  30
ENDBRANCH  22  29
ENDBRANCH   2  22
TORSDOF 14
ENDMDL
MODEL 7
REMARK VINA RESULT:      -6.8      1.455      2.023
REMARK  Name = 
REMARK  16 active torsions:
REMARK  status: ('A' for Active; 'I' for Inactive)
REMARK    1  A    between atoms: C_1  and  C_2
REMARK    2  A    between atoms: C_2  and  O_3
REMARK    3  A    between atoms: O_3  and  N_4
REMARK    4  A    between atoms: C_5  and  C_7
REMARK    5  A    between atoms: C_7  and  C_9
REMARK    6  A    between atoms: C_9  and  C_10
REMARK    7  A    between atoms: C_9  and  N_17
REMARK    8  A    between atoms: C_10  and  C_11
REMARK    9  A    between atoms: C_18  and  C_20
REMARK   10  A    between atoms: C_20  and  C_21
REMARK   11  A    between atoms: C_20  and  N_30
REMARK   12  A    between atoms: C_21  and  O_22
REMARK   13  A    between atoms: O_22  and  C_23
REMARK   14  A    between atoms: C_23  and  C_24
REMARK   15  A    between atoms: N_30  and  S_31
REMARK   16  A    between atoms: S_31  and  C_32
REMARK                            x       y       z     vdW  Elec       q    Type
REMARK                         _______ _______ _______ _____ _____    ______ ____
ROOT
ATOM      1  N   UNL     1       5.322   5.542  17.837  0.00  0.00    +0.000 N 
ATOM      2  C   UNL     1       4.992   4.656  18.841  0.00  0.00    +0.000 C 
ATOM      3  O   UNL     1       5.747   3.772  19.242  0.00  0.00    +0.000 OA
ATOM      4  H   UNL     1       4.688   6.298  17.581  0.00  0.00    +0.000 HD
ENDROOT
BRANCH   1   5
ATOM      5  C   UNL     1       6.667   5.575  17.254  0.00  0.00    +0.000 C 
BRANCH   5   6
ATOM      6  C   UNL     1       7.619   6.308  18.202  0.00  0.00    +0.000 C 
ATOM      7  O   UNL     1       8.255   5.769  19.101  0.00  0.00    +0.000 OA
BRANCH   6   9
ATOM      8  N   UNL     1       8.714   8.398  18.802  0.00  0.00    +0.000 N 
ATOM      9  C   UNL     1       7.779   7.814  17.974  0.00  0.00    +0.000 C 
ATOM     10  O   UNL     1       7.090   8.386  17.144  0.00  0.00    +0.000 OA
ATOM     11  H   UNL     1       9.488   7.826  19.132  0.00  0.00    +0.000 HD
BRANCH   8  12
ATOM     12  O   UNL     1       9.015   9.747  18.484  0.00  0.00    +0.000 OA
BRANCH  12  14
ATOM     13  C   UNL     1       9.279  11.873  19.575  0.00  0.00    +0.000 C 
ATOM     14  C   UNL     1       9.523  10.379  19.665  0.00  0.00    +0.000 C 
ENDBRANCH  12  14
ENDBRANCH   8  12
ENDBRANCH   6   9
ENDBRANCH   5   6
BRANCH   5  15
ATOM     15  C   UNL     1       6.658   6.126  15.815  0.00  0.00    +0.000 C 
BRANCH  15  16
ATOM     16  C   UNL     1       6.507   5.126  14.687  0.00  0.00    +0.000 A 
ATOM     17  C   UNL     1       5.369   4.318  14.556  0.00  0.00    +0.000 A 
ATOM     18  C   UNL     1       5.204   3.500  13.437  0.00  0.00    +0.000 A 
ATOM     19  C   UNL     1       6.168   3.483  12.433  0.00  0.00    +0.000 A 
ATOM     20  C   UNL     1       7.308   4.271  12.555  0.00  0.00    +0.000 A 
ATOM     21  C   UNL     1       7.479   5.084  13.676  0.00  0.00    +0.000 A 
ENDBRANCH  15  16
ENDBRANCH   5  15
ENDBRANCH   1   5
BRANCH   2  22
ATOM     22  C   UNL     1       3.597   4.836  19.418  0.00  0.00    +0.000 C 
BRANCH  22  23
ATOM     23  N   UNL     1       2.562   4.141  18.589  0.00  0.00    +0.000 NA
ATOM     24  H   UNL     1       2.739   4.307  17.595  0.00  0.00    +0.000 HD
BRANCH  23  25
ATOM     25  S   UNL     1       2.374   2.503  18.928  0.00  0.00    +0.000 S 
ATOM     26  C   UNL     1       0.616   2.311  18.731  0.00  0.00    +0.000 C 
ATOM     27  O   UNL     1       3.038   1.768  17.878  0.00  0.00    +0.000 OA
ATOM     28  O   UNL     1       2.725   2.308  20.316  0.00  0.00    +0.000 OA
ENDBRANCH  23  25
ENDBRANCH  22  23
BRANCH  22  29
ATOM     29  C   UNL     1       3.290   6.344  19.452  0.00  0.00    +0.000 C 
BRANCH  29  30
ATOM     30  O   UNL     1       2.453   6.774  18.372  0.00  0.00    +0.000 OA
BRANCH  30  31
ATOM     31  C   UNL     1       2.600   8.156  18.062  0.00  0.00    +0.000 C 
BRANCH  31  32
ATOM     32  C   UNL     1       1.459   8.919  18.672  0.00  0.00    +0.000 A 
ATOM     33  C   UNL     1       0.561   9.619  17.856  0.00  0.00    +0.000 A 
ATOM     34  C   UNL     1      -0.501  10.324  18.417  0.00  0.00    +0.000 A 
ATOM     35  C   UNL     1      -0.672  10.338  19.801  0.00  0.00    +0.000 A 
ATOM     36  C   UNL     1       0.220   9.647  20.619  0.00  0.00    +0.000 A 
ATOM     37  C   UNL     1       1.278   8.934  20.059  0.00  0.00    +0.000 A 
ENDBRANCH  31  32
ENDBRANCH  30  31
ENDBRANCH  29  30
ENDBRANCH  22  29
ENDBRANCH   2  22
TORSDOF 14
ENDMDL
MODEL 8
REMARK VINA RESULT:      -6.8      2.262      7.743
REMARK  Name = 
REMARK  16 active torsions:
REMARK  status: ('A' for Active; 'I' for Inactive)
REMARK    1  A    between atoms: C_1  and  C_2
REMARK    2  A    between atoms: C_2  and  O_3
REMARK    3  A    between atoms: O_3  and  N_4
REMARK    4  A    between atoms: C_5  and  C_7
REMARK    5  A    between atoms: C_7  and  C_9
REMARK    6  A    between atoms: C_9  and  C_10
REMARK    7  A    between atoms: C_9  and  N_17
REMARK    8  A    between atoms: C_10  and  C_11
REMARK    9  A    between atoms: C_18  and  C_20
REMARK   10  A    between atoms: C_20  and  C_21
REMARK   11  A    between atoms: C_20  and  N_30
REMARK   12  A    between atoms: C_21  and  O_22
REMARK   13  A    between atoms: O_22  and  C_23
REMARK   14  A    between atoms: C_23  and  C_24
REMARK   15  A    between atoms: N_30  and  S_31
REMARK   16  A    between atoms: S_31  and  C_32
REMARK                            x       y       z     vdW  Elec       q    Type
REMARK                         _______ _______ _______ _____ _____    ______ ____
ROOT
ATOM      1  N   UNL     1       4.525   6.153  17.647  0.00  0.00    +0.000 N 
ATOM      2  C   UNL     1       5.662   5.791  18.338  0.00  0.00    +0.000 C 
ATOM      3  O   UNL     1       5.643   5.179  19.404  0.00  0.00    +0.000 OA
ATOM      4  H   UNL     1       4.591   6.604  16.736  0.00  0.00    +0.000 HD
ENDROOT
BRANCH   1   5
ATOM      5  C   UNL     1       3.193   5.713  18.076  0.00  0.00    +0.000 C 
BRANCH   5   6
ATOM      6  C   UNL     1       2.898   4.328  17.496  0.00  0.00    +0.000 C 
ATOM      7  O   UNL     1       3.184   3.978  16.356  0.00  0.00    +0.000 OA
BRANCH   6   9
ATOM      8  N   UNL     1       3.099   2.584  19.181  0.00  0.00    +0.000 N 
ATOM      9  C   UNL     1       2.214   3.329  18.433  0.00  0.00    +0.000 C 
ATOM     10  O   UNL     1       0.997   3.231  18.443  0.00  0.00    +0.000 OA
ATOM     11  H   UNL     1       4.001   2.996  19.412  0.00  0.00    +0.000 HD
BRANCH   8  12
ATOM     12  O   UNL     1       2.492   1.790  20.187  0.00  0.00    +0.000 OA
BRANCH  12  14
ATOM     13  C   UNL     1       1.300   2.989  21.897  0.00  0.00    +0.000 C 
ATOM     14  C   UNL     1       2.648   2.464  21.441  0.00  0.00    +0.000 C 
ENDBRANCH  12  14
ENDBRANCH   8  12
ENDBRANCH   6   9
ENDBRANCH   5   6
BRANCH   5  15
ATOM     15  C   UNL     1       2.112   6.769  17.775  0.00  0.00    +0.000 C 
BRANCH  15  16
ATOM     16  C   UNL     1       1.670   7.659  18.918  0.00  0.00    +0.000 A 
ATOM     17  C   UNL     1       1.732   7.241  20.255  0.00  0.00    +0.000 A 
ATOM     18  C   UNL     1       1.437   8.129  21.291  0.00  0.00    +0.000 A 
ATOM     19  C   UNL     1       1.086   9.446  21.007  0.00  0.00    +0.000 A 
ATOM     20  C   UNL     1       1.010   9.872  19.685  0.00  0.00    +0.000 A 
ATOM     21  C   UNL     1       1.295   8.984  18.647  0.00  0.00    +0.000 A 
ENDBRANCH  15  16
ENDBRANCH   5  15
ENDBRANCH   1   5
BRANCH   2  22
ATOM     22  C   UNL     1       6.967   6.227  17.692  0.00  0.00    +0.000 C 
BRANCH  22  23
ATOM     23  N   UNL     1       7.482   5.197  16.736  0.00  0.00    +0.000 NA
ATOM     24  H   UNL     1       7.312   4.258  17.105  0.00  0.00    +0.000 HD
BRANCH  23  25
ATOM     25  S   UNL     1       6.920   5.360  15.157  0.00  0.00    +0.000 S 
ATOM     26  C   UNL     1       6.228   3.746  14.871  0.00  0.00    +0.000 C 
ATOM     27  O   UNL     1       5.845   6.324  15.181  0.00  0.00    +0.000 OA
ATOM     28  O   UNL     1       8.073   5.546  14.307  0.00  0.00    +0.000 OA
ENDBRANCH  23  25
ENDBRANCH  22  23
BRANCH  22  29
ATOM     29  C   UNL     1       8.002   6.441  18.811  0.00  0.00    +0.000 C 
BRANCH  29  30
ATOM     30  O   UNL     1       8.737   7.663  18.673  0.00  0.00    +0.000 OA
BRANCH  30  31
ATOM     31  C   UNL     1       8.036   8.662  17.940  0.00  0.00    +0.000 C 
BRANCH  31  32
ATOM     32  C   UNL     1       8.585  10.012  18.303  0.00  0.00    +0.000 A 
ATOM     33  C   UNL     1       8.279  11.133  17.521  0.00  0.00    +0.000 A 
ATOM     34  C   UNL     1       8.782  12.387  17.857  0.00  0.00    +0.000 A 
ATOM     35  C   UNL     1       9.599  12.531  18.978  0.00  0.00    +0.000 A 
ATOM     36  C   UNL     1       9.910  11.420  19.759  0.00  0.00    +0.000 A 
ATOM     37  C   UNL     1       9.401  10.166  19.429  0.00  0.00    +0.000 A 
ENDBRANCH  31  32
ENDBRANCH  30  31
ENDBRANCH  29  30
ENDBRANCH  22  29
ENDBRANCH   2  22
TORSDOF 14
ENDMDL
MODEL 9
REMARK VINA RESULT:      -6.8      3.285      8.103
REMARK  Name = 
REMARK  16 active torsions:
REMARK  status: ('A' for Active; 'I' for Inactive)
REMARK    1  A    between atoms: C_1  and  C_2
REMARK    2  A    between atoms: C_2  and  O_3
REMARK    3  A    between atoms: O_3  and  N_4
REMARK    4  A    between atoms: C_5  and  C_7
REMARK    5  A    between atoms: C_7  and  C_9
REMARK    6  A    between atoms: C_9  and  C_10
REMARK    7  A    between atoms: C_9  and  N_17
REMARK    8  A    between atoms: C_10  and  C_11
REMARK    9  A    between atoms: C_18  and  C_20
REMARK   10  A    between atoms: C_20  and  C_21
REMARK   11  A    between atoms: C_20  and  N_30
REMARK   12  A    between atoms: C_21  and  O_22
REMARK   13  A    between atoms: O_22  and  C_23
REMARK   14  A    between atoms: C_23  and  C_24
REMARK   15  A    between atoms: N_30  and  S_31
REMARK   16  A    between atoms: S_31  and  C_32
REMARK                            x       y       z     vdW  Elec       q    Type
REMARK                         _______ _______ _______ _____ _____    ______ ____
ROOT
ATOM      1  N   UNL     1       2.843   7.179  19.291  0.00  0.00    +0.000 N 
ATOM      2  C   UNL     1       3.581   7.207  18.126  0.00  0.00    +0.000 C 
ATOM      3  O   UNL     1       3.475   8.089  17.276  0.00  0.00    +0.000 OA
ATOM      4  H   UNL     1       3.010   6.462  19.996  0.00  0.00    +0.000 HD
ENDROOT
BRANCH   1   5
ATOM      5  C   UNL     1       1.957   8.286  19.665  0.00  0.00    +0.000 C 
BRANCH   5   6
ATOM      6  C   UNL     1       1.193   7.924  20.940  0.00  0.00    +0.000 C 
ATOM      7  O   UNL     1       0.733   6.814  21.182  0.00  0.00    +0.000 OA
BRANCH   6   9
ATOM      8  N   UNL     1      -0.286   9.422  22.162  0.00  0.00    +0.000 N 
ATOM      9  C   UNL     1       1.025   9.042  21.972  0.00  0.00    +0.000 C 
ATOM     10  O   UNL     1       2.004   9.529  22.516  0.00  0.00    +0.000 OA
ATOM     11  H   UNL     1      -1.015   8.729  22.007  0.00  0.00    +0.000 HD
BRANCH   8  12
ATOM     12  O   UNL     1      -0.486  10.319  23.242  0.00  0.00    +0.000 OA
BRANCH  12  14
ATOM     13  C   UNL     1      -2.306  11.881  23.083  0.00  0.00    +0.000 C 
ATOM     14  C   UNL     1      -0.868  11.589  22.702  0.00  0.00    +0.000 C 
ENDBRANCH  12  14
ENDBRANCH   8  12
ENDBRANCH   6   9
ENDBRANCH   5   6
BRANCH   5  15
ATOM     15  C   UNL     1       1.059   8.727  18.492  0.00  0.00    +0.000 C 
BRANCH  15  16
ATOM     16  C   UNL     1       0.375  10.073  18.606  0.00  0.00    +0.000 A 
ATOM     17  C   UNL     1      -1.020  10.199  18.651  0.00  0.00    +0.000 A 
ATOM     18  C   UNL     1      -1.614  11.441  18.883  0.00  0.00    +0.000 A 
ATOM     19  C   UNL     1      -0.825  12.570  19.080  0.00  0.00    +0.000 A 
ATOM     20  C   UNL     1       0.562  12.463  19.026  0.00  0.00    +0.000 A 
ATOM     21  C   UNL     1       1.158  11.224  18.786  0.00  0.00    +0.000 A 
ENDBRANCH  15  16
ENDBRANCH   5  15
ENDBRANCH   1   5
BRANCH   2  22
ATOM     22  C   UNL     1       4.539   6.040  17.950  0.00  0.00    +0.000 C 
BRANCH  22  23
ATOM     23  N   UNL     1       5.934   6.506  17.673  0.00  0.00    +0.000 NA
ATOM     24  H   UNL     1       5.979   7.527  17.719  0.00  0.00    +0.000 HD
BRANCH  23  25
ATOM     25  S   UNL     1       7.119   5.783  18.626  0.00  0.00    +0.000 S 
ATOM     26  C   UNL     1       7.695   4.496  17.541  0.00  0.00    +0.000 C 
ATOM     27  O   UNL     1       8.179   6.748  18.799  0.00  0.00    +0.000 OA
ATOM     28  O   UNL     1       6.453   5.191  19.763  0.00  0.00    +0.000 OA
ENDBRANCH  23  25
ENDBRANCH  22  23
BRANCH  22  29
ATOM     29  C   UNL     1       4.043   5.194  16.763  0.00  0.00    +0.000 C 
BRANCH  29  30
ATOM     30  O   UNL     1       3.729   3.845  17.125  0.00  0.00    +0.000 OA
BRANCH  30  31
ATOM     31  C   UNL     1       2.364   3.662  17.487  0.00  0.00    +0.000 C 
BRANCH  31  32
ATOM     32  C   UNL     1       2.286   3.316  18.947  0.00  0.00    +0.000 A 
ATOM     33  C   UNL     1       3.414   2.832  19.619  0.00  0.00    +0.000 A 
ATOM     34  C   UNL     1       3.347   2.514  20.974  0.00  0.00    +0.000 A 
ATOM     35  C   UNL     1       2.148   2.676  21.666  0.00  0.00    +0.000 A 
ATOM     36  C   UNL     1       1.019   3.153  21.003  0.00  0.00    +0.000 A 
ATOM     37  C   UNL     1       1.087   3.479  19.650  0.00  0.00    +0.000 A 
ENDBRANCH  31  32
ENDBRANCH  30  31
ENDBRANCH  29  30
ENDBRANCH  22  29
ENDBRANCH   2  22
TORSDOF 14
ENDMDL
