MODEL 1
REMARK VINA RESULT:      -7.3      0.000      0.000
REMARK  Name = 
REMARK  8 active torsions:
REMARK  status: ('A' for Active; 'I' for Inactive)
REMARK    1  A    between atoms: C_1  and  C_2
REMARK    2  A    between atoms: C_2  and  C_3
REMARK    3  A    between atoms: N_5  and  C_6
REMARK    4  A    between atoms: C_9  and  C_10
REMARK    5  A    between atoms: C_10  and  N_11
REMARK    6  A    between atoms: C_13  and  O_14
REMARK    7  A    between atoms: O_14  and  C_15
REMARK    8  A    between atoms: C_17  and  C_18
REMARK                            x       y       z     vdW  Elec       q    Type
REMARK                         _______ _______ _______ _____ _____    ______ ____
ROOT
ATOM      1  N   UNL     1       4.328   5.742  17.832  0.00  0.00    +0.000 NA
ATOM      2  C   UNL     1       5.476   6.363  17.134  0.00  0.00    +0.000 C 
ATOM      3  C   UNL     1       5.542   5.740  15.743  0.00  0.00    +0.000 C 
ATOM      4  C   UNL     1       5.225   4.295  16.065  0.00  0.00    +0.000 C 
ATOM      5  C   UNL     1       4.131   4.419  17.124  0.00  0.00    +0.000 C 
ENDROOT
BRANCH   5   6
ATOM      6  C   UNL     1       4.092   3.240  18.045  0.00  0.00    +0.000 A 
ATOM      7  N   UNL     1       3.286   2.198  17.958  0.00  0.00    +0.000 NA
ATOM      8  C   UNL     1       3.529   1.437  19.072  0.00  0.00    +0.000 A 
ATOM      9  C   UNL     1       4.491   2.027  19.856  0.00  0.00    +0.000 A 
ATOM     10  N   UNL     1       4.864   3.153  19.177  0.00  0.00    +0.000 N 
ATOM     11  H   UNL     1       5.549   3.845  19.453  0.00  0.00    +0.000 HD
ENDBRANCH   5   6
BRANCH   3  12
ATOM     12  O   UNL     1       6.805   5.838  15.101  0.00  0.00    +0.000 OA
ATOM     13  C   UNL     1       7.015   4.815  14.135  0.00  0.00    +0.000 C 
ENDBRANCH   3  12
BRANCH   1  14
ATOM     14  C   UNL     1       3.082   6.518  17.660  0.00  0.00    +0.000 C 
BRANCH  14  21
ATOM     15  C   UNL     1       2.063   6.530  20.159  0.00  0.00    +0.000 A 
ATOM     16  N   UNL     1       1.429   7.425  20.930  0.00  0.00    +0.000 NA
ATOM     17  N   UNL     1       1.363   8.537  20.183  0.00  0.00    +0.000 N 
ATOM     18  C   UNL     1       0.632   9.682  20.676  0.00  0.00    +0.000 C 
ATOM     19  C   UNL     1       1.996   8.388  18.991  0.00  0.00    +0.000 A 
ATOM     20 CL   UNL     1       2.076   9.679  17.880  0.00  0.00    +0.000 Cl
ATOM     21  C   UNL     1       2.449   7.087  18.895  0.00  0.00    +0.000 A 
BRANCH  15  23
ATOM     22  C   UNL     1       1.148   4.188  20.227  0.00  0.00    +0.000 C 
ATOM     23  C   UNL     1       2.239   5.146  20.692  0.00  0.00    +0.000 C 
ENDBRANCH  15  23
ENDBRANCH  14  21
ENDBRANCH   1  14
TORSDOF 5
ENDMDL
MODEL 2
REMARK VINA RESULT:      -7.1      2.872      4.508
REMARK  Name = 
REMARK  8 active torsions:
REMARK  status: ('A' for Active; 'I' for Inactive)
REMARK    1  A    between atoms: C_1  and  C_2
REMARK    2  A    between atoms: C_2  and  C_3
REMARK    3  A    between atoms: N_5  and  C_6
REMARK    4  A    between atoms: C_9  and  C_10
REMARK    5  A    between atoms: C_10  and  N_11
REMARK    6  A    between atoms: C_13  and  O_14
REMARK    7  A    between atoms: O_14  and  C_15
REMARK    8  A    between atoms: C_17  and  C_18
REMARK                            x       y       z     vdW  Elec       q    Type
REMARK                         _______ _______ _______ _____ _____    ______ ____
ROOT
ATOM      1  N   UNL     1       4.637   4.213  17.336  0.00  0.00    +0.000 NA
ATOM      2  C   UNL     1       5.259   4.097  18.674  0.00  0.00    +0.000 C 
ATOM      3  C   UNL     1       5.901   5.445  18.986  0.00  0.00    +0.000 C 
ATOM      4  C   UNL     1       6.486   5.799  17.635  0.00  0.00    +0.000 C 
ATOM      5  C   UNL     1       5.397   5.337  16.667  0.00  0.00    +0.000 C 
ENDROOT
BRANCH   5   6
ATOM      6  C   UNL     1       5.946   4.981  15.321  0.00  0.00    +0.000 A 
ATOM      7  N   UNL     1       5.398   4.165  14.438  0.00  0.00    +0.000 NA
ATOM      8  C   UNL     1       6.304   4.053  13.415  0.00  0.00    +0.000 A 
ATOM      9  C   UNL     1       7.425   4.801  13.681  0.00  0.00    +0.000 A 
ATOM     10  N   UNL     1       7.171   5.412  14.877  0.00  0.00    +0.000 N 
ATOM     11  H   UNL     1       7.775   6.038  15.394  0.00  0.00    +0.000 HD
ENDBRANCH   5   6
BRANCH   3  12
ATOM     12  O   UNL     1       6.922   5.409  19.972  0.00  0.00    +0.000 OA
ATOM     13  C   UNL     1       8.207   5.723  19.450  0.00  0.00    +0.000 C 
ENDBRANCH   3  12
BRANCH   1  14
ATOM     14  C   UNL     1       3.220   4.628  17.411  0.00  0.00    +0.000 C 
BRANCH  14  21
ATOM     15  C   UNL     1       2.194   5.527  19.739  0.00  0.00    +0.000 A 
ATOM     16  N   UNL     1       1.690   4.962  20.845  0.00  0.00    +0.000 NA
ATOM     17  N   UNL     1       1.744   3.642  20.611  0.00  0.00    +0.000 N 
ATOM     18  C   UNL     1       1.376   2.718  21.660  0.00  0.00    +0.000 C 
ATOM     19  C   UNL     1       2.205   3.365  19.365  0.00  0.00    +0.000 A 
ATOM     20 CL   UNL     1       2.333   1.753  18.822  0.00  0.00    +0.000 Cl
ATOM     21  C   UNL     1       2.550   4.552  18.750  0.00  0.00    +0.000 A 
BRANCH  15  23
ATOM     22  C   UNL     1       1.501   7.706  20.788  0.00  0.00    +0.000 C 
ATOM     23  C   UNL     1       2.331   7.015  19.713  0.00  0.00    +0.000 C 
ENDBRANCH  15  23
ENDBRANCH  14  21
ENDBRANCH   1  14
TORSDOF 5
ENDMDL
MODEL 3
REMARK VINA RESULT:      -7.0      2.260      3.733
REMARK  Name = 
REMARK  8 active torsions:
REMARK  status: ('A' for Active; 'I' for Inactive)
REMARK    1  A    between atoms: C_1  and  C_2
REMARK    2  A    between atoms: C_2  and  C_3
REMARK    3  A    between atoms: N_5  and  C_6
REMARK    4  A    between atoms: C_9  and  C_10
REMARK    5  A    between atoms: C_10  and  N_11
REMARK    6  A    between atoms: C_13  and  O_14
REMARK    7  A    between atoms: O_14  and  C_15
REMARK    8  A    between atoms: C_17  and  C_18
REMARK                            x       y       z     vdW  Elec       q    Type
REMARK                         _______ _______ _______ _____ _____    ______ ____
ROOT
ATOM      1  N   UNL     1       4.717   4.112  17.329  0.00  0.00    +0.000 NA
ATOM      2  C   UNL     1       5.290   4.017  18.691  0.00  0.00    +0.000 C 
ATOM      3  C   UNL     1       5.927   5.368  19.001  0.00  0.00    +0.000 C 
ATOM      4  C   UNL     1       6.562   5.695  17.666  0.00  0.00    +0.000 C 
ATOM      5  C   UNL     1       5.507   5.222  16.668  0.00  0.00    +0.000 C 
ENDROOT
BRANCH   5   6
ATOM      6  C   UNL     1       6.102   4.838  15.349  0.00  0.00    +0.000 A 
ATOM      7  N   UNL     1       7.226   5.296  14.829  0.00  0.00    +0.000 NA
ATOM      8  C   UNL     1       7.306   4.758  13.571  0.00  0.00    +0.000 A 
ATOM      9  C   UNL     1       6.212   3.969  13.314  0.00  0.00    +0.000 A 
ATOM     10  N   UNL     1       5.471   4.001  14.462  0.00  0.00    +0.000 N 
ATOM     11  H   UNL     1       4.589   3.541  14.644  0.00  0.00    +0.000 HD
ENDBRANCH   5   6
BRANCH   3  12
ATOM     12  O   UNL     1       6.912   5.345  20.025  0.00  0.00    +0.000 OA
ATOM     13  C   UNL     1       8.195   5.756  19.567  0.00  0.00    +0.000 C 
ENDBRANCH   3  12
BRANCH   1  14
ATOM     14  C   UNL     1       3.301   4.536  17.345  0.00  0.00    +0.000 C 
BRANCH  14  21
ATOM     15  C   UNL     1       2.200   4.502  19.808  0.00  0.00    +0.000 A 
ATOM     16  N   UNL     1       1.759   5.427  20.673  0.00  0.00    +0.000 NA
ATOM     17  N   UNL     1       1.991   6.602  20.067  0.00  0.00    +0.000 N 
ATOM     18  C   UNL     1       1.528   7.824  20.684  0.00  0.00    +0.000 C 
ATOM     19  C   UNL     1       2.625   6.444  18.877  0.00  0.00    +0.000 A 
ATOM     20 CL   UNL     1       3.057   7.798  17.934  0.00  0.00    +0.000 Cl
ATOM     21  C   UNL     1       2.764   5.092  18.629  0.00  0.00    +0.000 A 
BRANCH  15  23
ATOM     22  C   UNL     1       1.542   2.868  21.604  0.00  0.00    +0.000 C 
ATOM     23  C   UNL     1       2.021   3.064  20.170  0.00  0.00    +0.000 C 
ENDBRANCH  15  23
ENDBRANCH  14  21
ENDBRANCH   1  14
TORSDOF 5
ENDMDL
MODEL 4
REMARK VINA RESULT:      -6.9      2.691      4.416
REMARK  Name = 
REMARK  8 active torsions:
REMARK  status: ('A' for Active; 'I' for Inactive)
REMARK    1  A    between atoms: C_1  and  C_2
REMARK    2  A    between atoms: C_2  and  C_3
REMARK    3  A    between atoms: N_5  and  C_6
REMARK    4  A    between atoms: C_9  and  C_10
REMARK    5  A    between atoms: C_10  and  N_11
REMARK    6  A    between atoms: C_13  and  O_14
REMARK    7  A    between atoms: O_14  and  C_15
REMARK    8  A    between atoms: C_17  and  C_18
REMARK                            x       y       z     vdW  Elec       q    Type
REMARK                         _______ _______ _______ _____ _____    ______ ____
ROOT
ATOM      1  N   UNL     1       5.113   4.925  16.046  0.00  0.00    +0.000 NA
ATOM      2  C   UNL     1       5.021   4.743  14.580  0.00  0.00    +0.000 C 
ATOM      3  C   UNL     1       6.184   3.847  14.169  0.00  0.00    +0.000 C 
ATOM      4  C   UNL     1       7.290   4.398  15.044  0.00  0.00    +0.000 C 
ATOM      5  C   UNL     1       6.570   4.667  16.364  0.00  0.00    +0.000 C 
ENDROOT
BRANCH   5   6
ATOM      6  C   UNL     1       7.219   5.758  17.156  0.00  0.00    +0.000 A 
ATOM      7  N   UNL     1       7.615   5.691  18.414  0.00  0.00    +0.000 NA
ATOM      8  C   UNL     1       8.038   6.952  18.745  0.00  0.00    +0.000 A 
ATOM      9  C   UNL     1       7.891   7.804  17.678  0.00  0.00    +0.000 A 
ATOM     10  N   UNL     1       7.402   7.027  16.666  0.00  0.00    +0.000 N 
ATOM     11  H   UNL     1       7.161   7.314  15.725  0.00  0.00    +0.000 HD
ENDBRANCH   5   6
BRANCH   3  12
ATOM     12  O   UNL     1       6.550   3.930  12.799  0.00  0.00    +0.000 OA
ATOM     13  C   UNL     1       5.825   3.025  11.976  0.00  0.00    +0.000 C 
ENDBRANCH   3  12
BRANCH   1  14
ATOM     14  C   UNL     1       4.320   3.921  16.786  0.00  0.00    +0.000 C 
BRANCH  14  21
ATOM     15  C   UNL     1       3.090   5.726  18.370  0.00  0.00    +0.000 A 
ATOM     16  N   UNL     1       2.292   5.670  19.446  0.00  0.00    +0.000 NA
ATOM     17  N   UNL     1       2.125   4.360  19.681  0.00  0.00    +0.000 N 
ATOM     18  C   UNL     1       1.397   3.935  20.856  0.00  0.00    +0.000 C 
ATOM     19  C   UNL     1       2.739   3.592  18.745  0.00  0.00    +0.000 A 
ATOM     20 CL   UNL     1       2.640   1.891  18.812  0.00  0.00    +0.000 Cl
ATOM     21  C   UNL     1       3.418   4.421  17.874  0.00  0.00    +0.000 A 
BRANCH  15  23
ATOM     22  C   UNL     1       2.369   8.064  17.787  0.00  0.00    +0.000 C 
ATOM     23  C   UNL     1       3.522   7.073  17.888  0.00  0.00    +0.000 C 
ENDBRANCH  15  23
ENDBRANCH  14  21
ENDBRANCH   1  14
TORSDOF 5
ENDMDL
MODEL 5
REMARK VINA RESULT:      -6.9      2.868      4.789
REMARK  Name = 
REMARK  8 active torsions:
REMARK  status: ('A' for Active; 'I' for Inactive)
REMARK    1  A    between atoms: C_1  and  C_2
REMARK    2  A    between atoms: C_2  and  C_3
REMARK    3  A    between atoms: N_5  and  C_6
REMARK    4  A    between atoms: C_9  and  C_10
REMARK    5  A    between atoms: C_10  and  N_11
REMARK    6  A    between atoms: C_13  and  O_14
REMARK    7  A    between atoms: O_14  and  C_15
REMARK    8  A    between atoms: C_17  and  C_18
REMARK                            x       y       z     vdW  Elec       q    Type
REMARK                         _______ _______ _______ _____ _____    ______ ____
ROOT
ATOM      1  N   UNL     1       5.384   5.409  17.470  0.00  0.00    +0.000 NA
ATOM      2  C   UNL     1       5.067   4.785  16.166  0.00  0.00    +0.000 C 
ATOM      3  C   UNL     1       6.301   3.999  15.735  0.00  0.00    +0.000 C 
ATOM      4  C   UNL     1       7.402   4.952  16.150  0.00  0.00    +0.000 C 
ATOM      5  C   UNL     1       6.896   5.488  17.488  0.00  0.00    +0.000 C 
ENDROOT
BRANCH   5   6
ATOM      6  C   UNL     1       7.427   6.853  17.794  0.00  0.00    +0.000 A 
ATOM      7  N   UNL     1       7.228   7.952  17.089  0.00  0.00    +0.000 NA
ATOM      8  C   UNL     1       7.996   8.923  17.678  0.00  0.00    +0.000 A 
ATOM      9  C   UNL     1       8.682   8.408  18.751  0.00  0.00    +0.000 A 
ATOM     10  N   UNL     1       8.287   7.103  18.834  0.00  0.00    +0.000 N 
ATOM     11  H   UNL     1       8.589   6.405  19.502  0.00  0.00    +0.000 HD
ENDBRANCH   5   6
BRANCH   3  12
ATOM     12  O   UNL     1       6.383   3.726  14.343  0.00  0.00    +0.000 OA
ATOM     13  C   UNL     1       7.082   4.733  13.622  0.00  0.00    +0.000 C 
ENDBRANCH   3  12
BRANCH   1  14
ATOM     14  C   UNL     1       4.978   4.560  18.610  0.00  0.00    +0.000 C 
BRANCH  14  21
ATOM     15  C   UNL     1       2.418   5.103  19.269  0.00  0.00    +0.000 A 
ATOM     16  N   UNL     1       1.280   4.400  19.346  0.00  0.00    +0.000 NA
ATOM     17  N   UNL     1       1.616   3.158  18.966  0.00  0.00    +0.000 N 
ATOM     18  C   UNL     1       0.634   2.101  19.041  0.00  0.00    +0.000 C 
ATOM     19  C   UNL     1       2.918   3.077  18.588  0.00  0.00    +0.000 A 
ATOM     20 CL   UNL     1       3.573   1.604  18.031  0.00  0.00    +0.000 Cl
ATOM     21  C   UNL     1       3.512   4.307  18.792  0.00  0.00    +0.000 A 
BRANCH  15  23
ATOM     22  C   UNL     1       2.517   7.506  18.529  0.00  0.00    +0.000 C 
ATOM     23  C   UNL     1       2.389   6.535  19.697  0.00  0.00    +0.000 C 
ENDBRANCH  15  23
ENDBRANCH  14  21
ENDBRANCH   1  14
TORSDOF 5
ENDMDL
MODEL 6
REMARK VINA RESULT:      -6.8      2.864      5.693
REMARK  Name = 
REMARK  8 active torsions:
REMARK  status: ('A' for Active; 'I' for Inactive)
REMARK    1  A    between atoms: C_1  and  C_2
REMARK    2  A    between atoms: C_2  and  C_3
REMARK    3  A    between atoms: N_5  and  C_6
REMARK    4  A    between atoms: C_9  and  C_10
REMARK    5  A    between atoms: C_10  and  N_11
REMARK    6  A    between atoms: C_13  and  O_14
REMARK    7  A    between atoms: O_14  and  C_15
REMARK    8  A    between atoms: C_17  and  C_18
REMARK                            x       y       z     vdW  Elec       q    Type
REMARK                         _______ _______ _______ _____ _____    ______ ____
ROOT
ATOM      1  N   UNL     1       3.509   5.580  18.910  0.00  0.00    +0.000 NA
ATOM      2  C   UNL     1       2.949   6.787  18.264  0.00  0.00    +0.000 C 
ATOM      3  C   UNL     1       2.492   7.720  19.381  0.00  0.00    +0.000 C 
ATOM      4  C   UNL     1       1.885   6.726  20.349  0.00  0.00    +0.000 C 
ATOM      5  C   UNL     1       2.857   5.550  20.276  0.00  0.00    +0.000 C 
ENDROOT
BRANCH   5   6
ATOM      6  C   UNL     1       2.201   4.246  20.605  0.00  0.00    +0.000 A 
ATOM      7  N   UNL     1       2.152   3.665  21.790  0.00  0.00    +0.000 NA
ATOM      8  C   UNL     1       1.558   2.446  21.589  0.00  0.00    +0.000 A 
ATOM      9  C   UNL     1       1.248   2.275  20.262  0.00  0.00    +0.000 A 
ATOM     10  N   UNL     1       1.630   3.438  19.654  0.00  0.00    +0.000 N 
ATOM     11  H   UNL     1       1.563   3.675  18.672  0.00  0.00    +0.000 HD
ENDBRANCH   5   6
BRANCH   3  12
ATOM     12  O   UNL     1       1.526   8.688  18.997  0.00  0.00    +0.000 OA
ATOM     13  C   UNL     1       1.869   9.364  17.793  0.00  0.00    +0.000 C 
ENDBRANCH   3  12
BRANCH   1  14
ATOM     14  C   UNL     1       4.968   5.686  19.126  0.00  0.00    +0.000 C 
BRANCH  14  21
ATOM     15  C   UNL     1       7.063   6.245  17.520  0.00  0.00    +0.000 A 
ATOM     16  N   UNL     1       7.439   5.897  16.281  0.00  0.00    +0.000 NA
ATOM     17  N   UNL     1       6.480   5.063  15.852  0.00  0.00    +0.000 N 
ATOM     18  C   UNL     1       6.515   4.580  14.490  0.00  0.00    +0.000 C 
ATOM     19  C   UNL     1       5.549   4.823  16.810  0.00  0.00    +0.000 A 
ATOM     20 CL   UNL     1       4.245   3.764  16.512  0.00  0.00    +0.000 Cl
ATOM     21  C   UNL     1       5.851   5.591  17.918  0.00  0.00    +0.000 A 
BRANCH  15  23
ATOM     22  C   UNL     1       7.880   8.622  17.625  0.00  0.00    +0.000 C 
ATOM     23  C   UNL     1       7.906   7.234  18.256  0.00  0.00    +0.000 C 
ENDBRANCH  15  23
ENDBRANCH  14  21
ENDBRANCH   1  14
TORSDOF 5
ENDMDL
MODEL 7
REMARK VINA RESULT:      -6.8      2.874      5.866
REMARK  Name = 
REMARK  8 active torsions:
REMARK  status: ('A' for Active; 'I' for Inactive)
REMARK    1  A    between atoms: C_1  and  C_2
REMARK    2  A    between atoms: C_2  and  C_3
REMARK    3  A    between atoms: N_5  and  C_6
REMARK    4  A    between atoms: C_9  and  C_10
REMARK    5  A    between atoms: C_10  and  N_11
REMARK    6  A    between atoms: C_13  and  O_14
REMARK    7  A    between atoms: O_14  and  C_15
REMARK    8  A    between atoms: C_17  and  C_18
REMARK                            x       y       z     vdW  Elec       q    Type
REMARK                         _______ _______ _______ _____ _____    ______ ____
ROOT
ATOM      1  N   UNL     1       3.467   5.765  18.709  0.00  0.00    +0.000 NA
ATOM      2  C   UNL     1       2.846   7.107  18.652  0.00  0.00    +0.000 C 
ATOM      3  C   UNL     1       2.327   7.418  20.052  0.00  0.00    +0.000 C 
ATOM      4  C   UNL     1       1.767   6.069  20.453  0.00  0.00    +0.000 C 
ATOM      5  C   UNL     1       2.805   5.097  19.895  0.00  0.00    +0.000 C 
ENDROOT
BRANCH   5   6
ATOM      6  C   UNL     1       2.220   3.755  19.584  0.00  0.00    +0.000 A 
ATOM      7  N   UNL     1       2.837   2.590  19.658  0.00  0.00    +0.000 NA
ATOM      8  C   UNL     1       1.953   1.662  19.171  0.00  0.00    +0.000 A 
ATOM      9  C   UNL     1       0.782   2.269  18.786  0.00  0.00    +0.000 A 
ATOM     10  N   UNL     1       0.952   3.592  19.084  0.00  0.00    +0.000 N 
ATOM     11  H   UNL     1       0.299   4.351  18.933  0.00  0.00    +0.000 HD
ENDBRANCH   5   6
BRANCH   3  12
ATOM     12  O   UNL     1       1.312   8.410  20.109  0.00  0.00    +0.000 OA
ATOM     13  C   UNL     1       0.693   8.496  21.386  0.00  0.00    +0.000 C 
ENDBRANCH   3  12
BRANCH   1  14
ATOM     14  C   UNL     1       4.916   5.831  18.999  0.00  0.00    +0.000 C 
BRANCH  14  21
ATOM     15  C   UNL     1       7.105   6.294  17.491  0.00  0.00    +0.000 A 
ATOM     16  N   UNL     1       7.534   5.906  16.281  0.00  0.00    +0.000 NA
ATOM     17  N   UNL     1       6.576   5.087  15.823  0.00  0.00    +0.000 N 
ATOM     18  C   UNL     1       6.667   4.569  14.477  0.00  0.00    +0.000 C 
ATOM     19  C   UNL     1       5.591   4.896  16.737  0.00  0.00    +0.000 A 
ATOM     20 CL   UNL     1       4.275   3.864  16.397  0.00  0.00    +0.000 Cl
ATOM     21  C   UNL     1       5.856   5.682  17.841  0.00  0.00    +0.000 A 
BRANCH  15  23
ATOM     22  C   UNL     1       7.890   8.679  17.645  0.00  0.00    +0.000 C 
ATOM     23  C   UNL     1       7.936   7.279  18.247  0.00  0.00    +0.000 C 
ENDBRANCH  15  23
ENDBRANCH  14  21
ENDBRANCH   1  14
TORSDOF 5
ENDMDL
MODEL 8
REMARK VINA RESULT:      -6.7      2.880      4.757
REMARK  Name = 
REMARK  8 active torsions:
REMARK  status: ('A' for Active; 'I' for Inactive)
REMARK    1  A    between atoms: C_1  and  C_2
REMARK    2  A    between atoms: C_2  and  C_3
REMARK    3  A    between atoms: N_5  and  C_6
REMARK    4  A    between atoms: C_9  and  C_10
REMARK    5  A    between atoms: C_10  and  N_11
REMARK    6  A    between atoms: C_13  and  O_14
REMARK    7  A    between atoms: O_14  and  C_15
REMARK    8  A    between atoms: C_17  and  C_18
REMARK                            x       y       z     vdW  Elec       q    Type
REMARK                         _______ _______ _______ _____ _____    ______ ____
ROOT
ATOM      1  N   UNL     1       5.353   4.886  17.214  0.00  0.00    +0.000 NA
ATOM      2  C   UNL     1       4.906   4.425  15.881  0.00  0.00    +0.000 C 
ATOM      3  C   UNL     1       6.126   3.834  15.181  0.00  0.00    +0.000 C 
ATOM      4  C   UNL     1       7.195   4.823  15.595  0.00  0.00    +0.000 C 
ATOM      5  C   UNL     1       6.841   5.111  17.053  0.00  0.00    +0.000 C 
ENDROOT
BRANCH   5   6
ATOM      6  C   UNL     1       7.300   6.465  17.495  0.00  0.00    +0.000 A 
ATOM      7  N   UNL     1       7.149   7.601  16.838  0.00  0.00    +0.000 NA
ATOM      8  C   UNL     1       7.824   8.548  17.564  0.00  0.00    +0.000 A 
ATOM      9  C   UNL     1       8.403   7.983  18.673  0.00  0.00    +0.000 A 
ATOM     10  N   UNL     1       8.036   6.667  18.636  0.00  0.00    +0.000 N 
ATOM     11  H   UNL     1       8.283   5.935  19.290  0.00  0.00    +0.000 HD
ENDBRANCH   5   6
BRANCH   3  12
ATOM     12  O   UNL     1       6.033   3.770  13.765  0.00  0.00    +0.000 OA
ATOM     13  C   UNL     1       7.087   4.464  13.110  0.00  0.00    +0.000 C 
ENDBRANCH   3  12
BRANCH   1  14
ATOM     14  C   UNL     1       5.179   3.849  18.253  0.00  0.00    +0.000 C 
BRANCH  14  21
ATOM     15  C   UNL     1       2.661   4.585  18.887  0.00  0.00    +0.000 A 
ATOM     16  N   UNL     1       1.768   4.233  19.823  0.00  0.00    +0.000 NA
ATOM     17  N   UNL     1       2.377   3.273  20.536  0.00  0.00    +0.000 N 
ATOM     18  C   UNL     1       1.727   2.741  21.712  0.00  0.00    +0.000 C 
ATOM     19  C   UNL     1       3.599   2.965  20.033  0.00  0.00    +0.000 A 
ATOM     20 CL   UNL     1       4.554   1.747  20.751  0.00  0.00    +0.000 Cl
ATOM     21  C   UNL     1       3.864   3.808  18.972  0.00  0.00    +0.000 A 
BRANCH  15  23
ATOM     22  C   UNL     1       2.703   7.068  18.490  0.00  0.00    +0.000 C 
ATOM     23  C   UNL     1       2.302   5.698  17.958  0.00  0.00    +0.000 C 
ENDBRANCH  15  23
ENDBRANCH  14  21
ENDBRANCH   1  14
TORSDOF 5
ENDMDL
MODEL 9
REMARK VINA RESULT:      -6.6      2.155      3.705
REMARK  Name = 
REMARK  8 active torsions:
REMARK  status: ('A' for Active; 'I' for Inactive)
REMARK    1  A    between atoms: C_1  and  C_2
REMARK    2  A    between atoms: C_2  and  C_3
REMARK    3  A    between atoms: N_5  and  C_6
REMARK    4  A    between atoms: C_9  and  C_10
REMARK    5  A    between atoms: C_10  and  N_11
REMARK    6  A    between atoms: C_13  and  O_14
REMARK    7  A    between atoms: O_14  and  C_15
REMARK    8  A    between atoms: C_17  and  C_18
REMARK                            x       y       z     vdW  Elec       q    Type
REMARK                         _______ _______ _______ _____ _____    ______ ____
ROOT
ATOM      1  N   UNL     1       5.024   5.250  16.206  0.00  0.00    +0.000 NA
ATOM      2  C   UNL     1       4.987   4.901  14.769  0.00  0.00    +0.000 C 
ATOM      3  C   UNL     1       6.182   3.991  14.500  0.00  0.00    +0.000 C 
ATOM      4  C   UNL     1       7.245   4.665  15.342  0.00  0.00    +0.000 C 
ATOM      5  C   UNL     1       6.474   5.064  16.599  0.00  0.00    +0.000 C 
ENDROOT
BRANCH   5   6
ATOM      6  C   UNL     1       7.074   6.254  17.281  0.00  0.00    +0.000 A 
ATOM      7  N   UNL     1       7.114   7.490  16.819  0.00  0.00    +0.000 NA
ATOM      8  C   UNL     1       7.856   8.207  17.722  0.00  0.00    +0.000 A 
ATOM      9  C   UNL     1       8.284   7.397  18.744  0.00  0.00    +0.000 A 
ATOM     10  N   UNL     1       7.753   6.167  18.471  0.00  0.00    +0.000 N 
ATOM     11  H   UNL     1       7.861   5.313  19.003  0.00  0.00    +0.000 HD
ENDBRANCH   5   6
BRANCH   3  12
ATOM     12  O   UNL     1       6.594   3.928  13.142  0.00  0.00    +0.000 OA
ATOM     13  C   UNL     1       5.671   3.228  12.317  0.00  0.00    +0.000 C 
ENDBRANCH   3  12
BRANCH   1  14
ATOM     14  C   UNL     1       4.226   4.318  17.030  0.00  0.00    +0.000 C 
BRANCH  14  21
ATOM     15  C   UNL     1       3.109   4.267  19.486  0.00  0.00    +0.000 A 
ATOM     16  N   UNL     1       2.539   5.169  20.297  0.00  0.00    +0.000 NA
ATOM     17  N   UNL     1       2.618   6.330  19.630  0.00  0.00    +0.000 N 
ATOM     18  C   UNL     1       1.988   7.510  20.178  0.00  0.00    +0.000 C 
ATOM     19  C   UNL     1       3.282   6.196  18.454  0.00  0.00    +0.000 A 
ATOM     20 CL   UNL     1       3.541   7.544  17.441  0.00  0.00    +0.000 Cl
ATOM     21  C   UNL     1       3.604   4.864  18.280  0.00  0.00    +0.000 A 
BRANCH  15  23
ATOM     22  C   UNL     1       2.277   1.938  19.029  0.00  0.00    +0.000 C 
ATOM     23  C   UNL     1       3.120   2.839  19.924  0.00  0.00    +0.000 C 
ENDBRANCH  15  23
ENDBRANCH  14  21
ENDBRANCH   1  14
TORSDOF 5
ENDMDL
