MODEL 1
REMARK VINA RESULT:      -8.4      0.000      0.000
REMARK  Name = 
REMARK  8 active torsions:
REMARK  status: ('A' for Active; 'I' for Inactive)
REMARK    1  A    between atoms: C_1  and  O_2
REMARK    2  A    between atoms: O_2  and  C_3
REMARK    3  A    between atoms: C_3  and  C_4
REMARK    4  A    between atoms: C_4  and  N_5
REMARK    5  A    between atoms: C_4  and  C_20
REMARK    6  A    between atoms: C_14  and  C_15
REMARK    7  A    between atoms: C_23  and  O_24
REMARK    8  A    between atoms: O_24  and  C_25
REMARK                            x       y       z     vdW  Elec       q    Type
REMARK                         _______ _______ _______ _____ _____    ______ ____
ROOT
ATOM      1  N   UNL     1       5.926   5.527  18.032  0.00  0.00    +0.000 N 
ATOM      2  C   UNL     1       4.849   6.364  18.047  0.00  0.00    +0.000 C 
ATOM      3  O   UNL     1       4.811   7.392  17.373  0.00  0.00    +0.000 OA
ATOM      4  N   UNL     1       3.822   6.007  18.924  0.00  0.00    +0.000 N 
ATOM      5  C   UNL     1       2.717   6.948  19.061  0.00  0.00    +0.000 C 
ATOM      6  C   UNL     1       1.917   6.827  20.348  0.00  0.00    +0.000 C 
ATOM      7  O   UNL     1       1.239   7.742  20.810  0.00  0.00    +0.000 OA
ATOM      8  N   UNL     1       1.827   5.569  20.882  0.00  0.00    +0.000 N 
ATOM      9  C   UNL     1       2.630   4.503  20.453  0.00  0.00    +0.000 A 
ATOM     10  C   UNL     1       2.455   3.211  20.978  0.00  0.00    +0.000 A 
ATOM     11  C   UNL     1       1.364   2.815  21.931  0.00  0.00    +0.000 C 
ATOM     12  C   UNL     1       3.352   2.209  20.586  0.00  0.00    +0.000 A 
ATOM     13  C   UNL     1       4.368   2.516  19.710  0.00  0.00    +0.000 A 
ATOM     14  N   UNL     1       4.543   3.741  19.186  0.00  0.00    +0.000 NA
ATOM     15  C   UNL     1       3.671   4.722  19.528  0.00  0.00    +0.000 A 
ATOM     16  H   UNL     1       5.777   4.633  18.486  0.00  0.00    +0.000 HD
ATOM     17  H   UNL     1       1.197   5.475  21.661  0.00  0.00    +0.000 HD
ENDROOT
BRANCH   1  18
ATOM     18  C   UNL     1       7.088   5.653  17.169  0.00  0.00    +0.000 C 
BRANCH  18  19
ATOM     19  C   UNL     1       6.758   5.050  15.811  0.00  0.00    +0.000 A 
ATOM     20  C   UNL     1       7.500   5.396  14.677  0.00  0.00    +0.000 A 
ATOM     21  C   UNL     1       7.225   4.801  13.441  0.00  0.00    +0.000 A 
ATOM     22  C   UNL     1       6.212   3.844  13.316  0.00  0.00    +0.000 A 
ATOM     23  C   UNL     1       5.424   3.547  14.423  0.00  0.00    +0.000 A 
ATOM     24  C   UNL     1       5.710   4.125  15.663  0.00  0.00    +0.000 A 
BRANCH  22  25
ATOM     25  O   UNL     1       6.046   3.328  12.068  0.00  0.00    +0.000 OA
BRANCH  25  26
ATOM     26  C   UNL     1       4.732   3.118  11.566  0.00  0.00    +0.000 C 
ATOM     27  F   UNL     1       3.761   3.078  12.502  0.00  0.00    +0.000 F 
ATOM     28  F   UNL     1       4.437   4.107  10.692  0.00  0.00    +0.000 F 
ATOM     29  F   UNL     1       4.704   1.946  10.893  0.00  0.00    +0.000 F 
ENDBRANCH  25  26
ENDBRANCH  22  25
ENDBRANCH  18  19
BRANCH  18  30
ATOM     30  C   UNL     1       7.513   7.134  17.001  0.00  0.00    +0.000 C 
BRANCH  30  32
ATOM     31  C   UNL     1       8.269   9.042  18.159  0.00  0.00    +0.000 C 
ATOM     32  O   UNL     1       8.184   7.622  18.167  0.00  0.00    +0.000 OA
ENDBRANCH  30  32
ENDBRANCH  18  30
ENDBRANCH   1  18
TORSDOF 6
ENDMDL
MODEL 2
REMARK VINA RESULT:      -8.2      3.452      5.944
REMARK  Name = 
REMARK  8 active torsions:
REMARK  status: ('A' for Active; 'I' for Inactive)
REMARK    1  A    between atoms: C_1  and  O_2
REMARK    2  A    between atoms: O_2  and  C_3
REMARK    3  A    between atoms: C_3  and  C_4
REMARK    4  A    between atoms: C_4  and  N_5
REMARK    5  A    between atoms: C_4  and  C_20
REMARK    6  A    between atoms: C_14  and  C_15
REMARK    7  A    between atoms: C_23  and  O_24
REMARK    8  A    between atoms: O_24  and  C_25
REMARK                            x       y       z     vdW  Elec       q    Type
REMARK                         _______ _______ _______ _____ _____    ______ ____
ROOT
ATOM      1  N   UNL     1       1.814   6.742  19.870  0.00  0.00    +0.000 N 
ATOM      2  C   UNL     1       1.872   7.611  18.821  0.00  0.00    +0.000 C 
ATOM      3  O   UNL     1       2.221   7.256  17.696  0.00  0.00    +0.000 OA
ATOM      4  N   UNL     1       1.568   8.940  19.123  0.00  0.00    +0.000 N 
ATOM      5  C   UNL     1       1.748   9.916  18.054  0.00  0.00    +0.000 C 
ATOM      6  C   UNL     1       1.933  11.354  18.513  0.00  0.00    +0.000 C 
ATOM      7  O   UNL     1       2.475  12.216  17.825  0.00  0.00    +0.000 OA
ATOM      8  N   UNL     1       1.288  11.703  19.669  0.00  0.00    +0.000 N 
ATOM      9  C   UNL     1       0.720  10.759  20.535  0.00  0.00    +0.000 A 
ATOM     10  C   UNL     1       0.003  11.165  21.675  0.00  0.00    +0.000 A 
ATOM     11  C   UNL     1      -0.320  12.590  22.020  0.00  0.00    +0.000 C 
ATOM     12  C   UNL     1      -0.454  10.178  22.556  0.00  0.00    +0.000 A 
ATOM     13  C   UNL     1      -0.190   8.854  22.285  0.00  0.00    +0.000 A 
ATOM     14  N   UNL     1       0.480   8.445  21.195  0.00  0.00    +0.000 NA
ATOM     15  C   UNL     1       0.910   9.380  20.311  0.00  0.00    +0.000 A 
ATOM     16  H   UNL     1       1.351   7.103  20.697  0.00  0.00    +0.000 HD
ATOM     17  H   UNL     1       1.313  12.682  19.898  0.00  0.00    +0.000 HD
ENDROOT
BRANCH   1  18
ATOM     18  C   UNL     1       2.030   5.307  19.799  0.00  0.00    +0.000 C 
BRANCH  18  19
ATOM     19  C   UNL     1       3.246   5.038  18.923  0.00  0.00    +0.000 A 
ATOM     20  C   UNL     1       3.137   4.246  17.775  0.00  0.00    +0.000 A 
ATOM     21  C   UNL     1       4.247   4.043  16.947  0.00  0.00    +0.000 A 
ATOM     22  C   UNL     1       5.480   4.633  17.242  0.00  0.00    +0.000 A 
ATOM     23  C   UNL     1       5.613   5.363  18.419  0.00  0.00    +0.000 A 
ATOM     24  C   UNL     1       4.502   5.585  19.237  0.00  0.00    +0.000 A 
BRANCH  22  25
ATOM     25  O   UNL     1       6.479   4.373  16.358  0.00  0.00    +0.000 OA
BRANCH  25  26
ATOM     26  C   UNL     1       6.352   4.805  15.008  0.00  0.00    +0.000 C 
ATOM     27  F   UNL     1       5.815   3.899  14.166  0.00  0.00    +0.000 F 
ATOM     28  F   UNL     1       5.584   5.918  14.979  0.00  0.00    +0.000 F 
ATOM     29  F   UNL     1       7.576   5.131  14.537  0.00  0.00    +0.000 F 
ENDBRANCH  25  26
ENDBRANCH  22  25
ENDBRANCH  18  19
BRANCH  18  30
ATOM     30  C   UNL     1       2.247   4.696  21.206  0.00  0.00    +0.000 C 
BRANCH  30  32
ATOM     31  C   UNL     1       1.459   2.506  21.575  0.00  0.00    +0.000 C 
ATOM     32  O   UNL     1       2.552   3.300  21.130  0.00  0.00    +0.000 OA
ENDBRANCH  30  32
ENDBRANCH  18  30
ENDBRANCH   1  18
TORSDOF 6
ENDMDL
MODEL 3
REMARK VINA RESULT:      -8.2      3.471      5.902
REMARK  Name = 
REMARK  8 active torsions:
REMARK  status: ('A' for Active; 'I' for Inactive)
REMARK    1  A    between atoms: C_1  and  O_2
REMARK    2  A    between atoms: O_2  and  C_3
REMARK    3  A    between atoms: C_3  and  C_4
REMARK    4  A    between atoms: C_4  and  N_5
REMARK    5  A    between atoms: C_4  and  C_20
REMARK    6  A    between atoms: C_14  and  C_15
REMARK    7  A    between atoms: C_23  and  O_24
REMARK    8  A    between atoms: O_24  and  C_25
REMARK                            x       y       z     vdW  Elec       q    Type
REMARK                         _______ _______ _______ _____ _____    ______ ____
ROOT
ATOM      1  N   UNL     1       1.837   6.751  19.937  0.00  0.00    +0.000 N 
ATOM      2  C   UNL     1       1.889   7.623  18.891  0.00  0.00    +0.000 C 
ATOM      3  O   UNL     1       2.250   7.277  17.767  0.00  0.00    +0.000 OA
ATOM      4  N   UNL     1       1.566   8.948  19.195  0.00  0.00    +0.000 N 
ATOM      5  C   UNL     1       1.738   9.930  18.131  0.00  0.00    +0.000 C 
ATOM      6  C   UNL     1       1.902  11.368  18.595  0.00  0.00    +0.000 C 
ATOM      7  O   UNL     1       2.436  12.240  17.913  0.00  0.00    +0.000 OA
ATOM      8  N   UNL     1       1.245  11.704  19.749  0.00  0.00    +0.000 N 
ATOM      9  C   UNL     1       0.684  10.750  20.609  0.00  0.00    +0.000 A 
ATOM     10  C   UNL     1      -0.044  11.143  21.745  0.00  0.00    +0.000 A 
ATOM     11  C   UNL     1      -0.388  12.562  22.093  0.00  0.00    +0.000 C 
ATOM     12  C   UNL     1      -0.493  10.146  22.621  0.00  0.00    +0.000 A 
ATOM     13  C   UNL     1      -0.210   8.827  22.347  0.00  0.00    +0.000 A 
ATOM     14  N   UNL     1       0.472   8.431  21.260  0.00  0.00    +0.000 NA
ATOM     15  C   UNL     1       0.895   9.375  20.381  0.00  0.00    +0.000 A 
ATOM     16  H   UNL     1       1.365   7.103  20.762  0.00  0.00    +0.000 HD
ATOM     17  H   UNL     1       1.256  12.683  19.981  0.00  0.00    +0.000 HD
ENDROOT
BRANCH   1  18
ATOM     18  C   UNL     1       2.073   5.319  19.863  0.00  0.00    +0.000 C 
BRANCH  18  19
ATOM     19  C   UNL     1       3.239   5.063  18.917  0.00  0.00    +0.000 A 
ATOM     20  C   UNL     1       4.511   5.572  19.198  0.00  0.00    +0.000 A 
ATOM     21  C   UNL     1       5.589   5.290  18.351  0.00  0.00    +0.000 A 
ATOM     22  C   UNL     1       5.420   4.490  17.216  0.00  0.00    +0.000 A 
ATOM     23  C   UNL     1       4.143   4.040  16.893  0.00  0.00    +0.000 A 
ATOM     24  C   UNL     1       3.069   4.302  17.748  0.00  0.00    +0.000 A 
BRANCH  22  25
ATOM     25  O   UNL     1       6.542   4.278  16.478  0.00  0.00    +0.000 OA
BRANCH  25  26
ATOM     26  C   UNL     1       6.550   4.626  15.099  0.00  0.00    +0.000 C 
ATOM     27  F   UNL     1       5.670   5.586  14.746  0.00  0.00    +0.000 F 
ATOM     28  F   UNL     1       7.791   5.046  14.764  0.00  0.00    +0.000 F 
ATOM     29  F   UNL     1       6.272   3.524  14.368  0.00  0.00    +0.000 F 
ENDBRANCH  25  26
ENDBRANCH  22  25
ENDBRANCH  18  19
BRANCH  18  30
ATOM     30  C   UNL     1       2.384   4.722  21.258  0.00  0.00    +0.000 C 
BRANCH  30  32
ATOM     31  C   UNL     1       1.464   2.575  21.568  0.00  0.00    +0.000 C 
ATOM     32  O   UNL     1       2.619   3.312  21.185  0.00  0.00    +0.000 OA
ENDBRANCH  30  32
ENDBRANCH  18  30
ENDBRANCH   1  18
TORSDOF 6
ENDMDL
MODEL 4
REMARK VINA RESULT:      -8.0      4.571      7.857
REMARK  Name = 
REMARK  8 active torsions:
REMARK  status: ('A' for Active; 'I' for Inactive)
REMARK    1  A    between atoms: C_1  and  O_2
REMARK    2  A    between atoms: O_2  and  C_3
REMARK    3  A    between atoms: C_3  and  C_4
REMARK    4  A    between atoms: C_4  and  N_5
REMARK    5  A    between atoms: C_4  and  C_20
REMARK    6  A    between atoms: C_14  and  C_15
REMARK    7  A    between atoms: C_23  and  O_24
REMARK    8  A    between atoms: O_24  and  C_25
REMARK                            x       y       z     vdW  Elec       q    Type
REMARK                         _______ _______ _______ _____ _____    ______ ____
ROOT
ATOM      1  N   UNL     1       2.458   7.527  19.895  0.00  0.00    +0.000 N 
ATOM      2  C   UNL     1       2.061   6.228  20.015  0.00  0.00    +0.000 C 
ATOM      3  O   UNL     1       1.171   5.886  20.793  0.00  0.00    +0.000 OA
ATOM      4  N   UNL     1       2.773   5.307  19.244  0.00  0.00    +0.000 N 
ATOM      5  C   UNL     1       2.462   3.897  19.448  0.00  0.00    +0.000 C 
ATOM      6  C   UNL     1       3.555   2.925  19.034  0.00  0.00    +0.000 C 
ATOM      7  O   UNL     1       3.644   1.782  19.477  0.00  0.00    +0.000 OA
ATOM      8  N   UNL     1       4.340   3.317  17.982  0.00  0.00    +0.000 N 
ATOM      9  C   UNL     1       4.343   4.627  17.484  0.00  0.00    +0.000 A 
ATOM     10  C   UNL     1       5.110   4.969  16.357  0.00  0.00    +0.000 A 
ATOM     11  C   UNL     1       5.892   3.993  15.526  0.00  0.00    +0.000 C 
ATOM     12  C   UNL     1       5.152   6.313  15.967  0.00  0.00    +0.000 A 
ATOM     13  C   UNL     1       4.449   7.250  16.691  0.00  0.00    +0.000 A 
ATOM     14  N   UNL     1       3.698   6.941  17.762  0.00  0.00    +0.000 NA
ATOM     15  C   UNL     1       3.620   5.642  18.144  0.00  0.00    +0.000 A 
ATOM     16  H   UNL     1       3.070   7.714  19.109  0.00  0.00    +0.000 HD
ATOM     17  H   UNL     1       4.977   2.619  17.636  0.00  0.00    +0.000 HD
ENDROOT
BRANCH   1  18
ATOM     18  C   UNL     1       1.840   8.669  20.547  0.00  0.00    +0.000 C 
BRANCH  18  19
ATOM     19  C   UNL     1       0.822   9.285  19.597  0.00  0.00    +0.000 A 
ATOM     20  C   UNL     1       0.959   9.140  18.213  0.00  0.00    +0.000 A 
ATOM     21  C   UNL     1      -0.007   9.665  17.347  0.00  0.00    +0.000 A 
ATOM     22  C   UNL     1      -1.129  10.334  17.846  0.00  0.00    +0.000 A 
ATOM     23  C   UNL     1      -1.236  10.544  19.217  0.00  0.00    +0.000 A 
ATOM     24  C   UNL     1      -0.284  10.002  20.086  0.00  0.00    +0.000 A 
BRANCH  22  25
ATOM     25  O   UNL     1      -2.003  10.789  16.908  0.00  0.00    +0.000 OA
BRANCH  25  26
ATOM     26  C   UNL     1      -3.094   9.968  16.510  0.00  0.00    +0.000 C 
ATOM     27  F   UNL     1      -4.221  10.633  16.180  0.00  0.00    +0.000 F 
ATOM     28  F   UNL     1      -2.714   9.226  15.445  0.00  0.00    +0.000 F 
ATOM     29  F   UNL     1      -3.396   9.122  17.520  0.00  0.00    +0.000 F 
ENDBRANCH  25  26
ENDBRANCH  22  25
ENDBRANCH  18  19
BRANCH  18  30
ATOM     30  C   UNL     1       1.147   8.259  21.871  0.00  0.00    +0.000 C 
BRANCH  30  32
ATOM     31  C   UNL     1       0.038   9.568  23.487  0.00  0.00    +0.000 C 
ATOM     32  O   UNL     1       1.286   9.274  22.872  0.00  0.00    +0.000 OA
ENDBRANCH  30  32
ENDBRANCH  18  30
ENDBRANCH   1  18
TORSDOF 6
ENDMDL
MODEL 5
REMARK VINA RESULT:      -8.0      0.903      1.145
REMARK  Name = 
REMARK  8 active torsions:
REMARK  status: ('A' for Active; 'I' for Inactive)
REMARK    1  A    between atoms: C_1  and  O_2
REMARK    2  A    between atoms: O_2  and  C_3
REMARK    3  A    between atoms: C_3  and  C_4
REMARK    4  A    between atoms: C_4  and  N_5
REMARK    5  A    between atoms: C_4  and  C_20
REMARK    6  A    between atoms: C_14  and  C_15
REMARK    7  A    between atoms: C_23  and  O_24
REMARK    8  A    between atoms: O_24  and  C_25
REMARK                            x       y       z     vdW  Elec       q    Type
REMARK                         _______ _______ _______ _____ _____    ______ ____
ROOT
ATOM      1  N   UNL     1       5.927   5.369  17.857  0.00  0.00    +0.000 N 
ATOM      2  C   UNL     1       4.865   6.223  17.877  0.00  0.00    +0.000 C 
ATOM      3  O   UNL     1       4.825   7.236  17.180  0.00  0.00    +0.000 OA
ATOM      4  N   UNL     1       3.854   5.905  18.788  0.00  0.00    +0.000 N 
ATOM      5  C   UNL     1       2.767   6.867  18.929  0.00  0.00    +0.000 C 
ATOM      6  C   UNL     1       1.998   6.789  20.238  0.00  0.00    +0.000 C 
ATOM      7  O   UNL     1       1.347   7.727  20.694  0.00  0.00    +0.000 OA
ATOM      8  N   UNL     1       1.902   5.546  20.804  0.00  0.00    +0.000 N 
ATOM      9  C   UNL     1       2.676   4.458  20.382  0.00  0.00    +0.000 A 
ATOM     10  C   UNL     1       2.494   3.181  20.943  0.00  0.00    +0.000 A 
ATOM     11  C   UNL     1       1.421   2.826  21.932  0.00  0.00    +0.000 C 
ATOM     12  C   UNL     1       3.365   2.156  20.553  0.00  0.00    +0.000 A 
ATOM     13  C   UNL     1       4.363   2.425  19.645  0.00  0.00    +0.000 A 
ATOM     14  N   UNL     1       4.545   3.634  19.087  0.00  0.00    +0.000 NA
ATOM     15  C   UNL     1       3.698   4.638  19.427  0.00  0.00    +0.000 A 
ATOM     16  H   UNL     1       5.775   4.489  18.336  0.00  0.00    +0.000 HD
ATOM     17  H   UNL     1       1.290   5.482  21.601  0.00  0.00    +0.000 HD
ENDROOT
BRANCH   1  18
ATOM     18  C   UNL     1       7.069   5.455  16.963  0.00  0.00    +0.000 C 
BRANCH  18  19
ATOM     19  C   UNL     1       6.672   4.895  15.604  0.00  0.00    +0.000 A 
ATOM     20  C   UNL     1       7.390   5.237  14.453  0.00  0.00    +0.000 A 
ATOM     21  C   UNL     1       7.051   4.679  13.215  0.00  0.00    +0.000 A 
ATOM     22  C   UNL     1       5.999   3.765  13.104  0.00  0.00    +0.000 A 
ATOM     23  C   UNL     1       5.236   3.474  14.231  0.00  0.00    +0.000 A 
ATOM     24  C   UNL     1       5.585   4.013  15.473  0.00  0.00    +0.000 A 
BRANCH  22  25
ATOM     25  O   UNL     1       5.772   3.282  11.853  0.00  0.00    +0.000 OA
BRANCH  25  26
ATOM     26  C   UNL     1       6.395   2.070  11.446  0.00  0.00    +0.000 C 
ATOM     27  F   UNL     1       7.744   2.089  11.452  0.00  0.00    +0.000 F 
ATOM     28  F   UNL     1       5.982   1.074  12.261  0.00  0.00    +0.000 F 
ATOM     29  F   UNL     1       5.993   1.774  10.189  0.00  0.00    +0.000 F 
ENDBRANCH  25  26
ENDBRANCH  22  25
ENDBRANCH  18  19
BRANCH  18  30
ATOM     30  C   UNL     1       7.561   6.916  16.809  0.00  0.00    +0.000 C 
BRANCH  30  32
ATOM     31  C   UNL     1       8.156   8.858  18.004  0.00  0.00    +0.000 C 
ATOM     32  O   UNL     1       8.044   7.441  18.049  0.00  0.00    +0.000 OA
ENDBRANCH  30  32
ENDBRANCH  18  30
ENDBRANCH   1  18
TORSDOF 6
ENDMDL
MODEL 6
REMARK VINA RESULT:      -7.9      4.578      7.901
REMARK  Name = 
REMARK  8 active torsions:
REMARK  status: ('A' for Active; 'I' for Inactive)
REMARK    1  A    between atoms: C_1  and  O_2
REMARK    2  A    between atoms: O_2  and  C_3
REMARK    3  A    between atoms: C_3  and  C_4
REMARK    4  A    between atoms: C_4  and  N_5
REMARK    5  A    between atoms: C_4  and  C_20
REMARK    6  A    between atoms: C_14  and  C_15
REMARK    7  A    between atoms: C_23  and  O_24
REMARK    8  A    between atoms: O_24  and  C_25
REMARK                            x       y       z     vdW  Elec       q    Type
REMARK                         _______ _______ _______ _____ _____    ______ ____
ROOT
ATOM      1  N   UNL     1       2.496   7.526  19.894  0.00  0.00    +0.000 N 
ATOM      2  C   UNL     1       2.154   6.217  20.066  0.00  0.00    +0.000 C 
ATOM      3  O   UNL     1       1.288   5.868  20.868  0.00  0.00    +0.000 OA
ATOM      4  N   UNL     1       2.895   5.298  19.320  0.00  0.00    +0.000 N 
ATOM      5  C   UNL     1       2.644   3.885  19.579  0.00  0.00    +0.000 C 
ATOM      6  C   UNL     1       3.772   2.944  19.186  0.00  0.00    +0.000 C 
ATOM      7  O   UNL     1       3.913   1.822  19.669  0.00  0.00    +0.000 OA
ATOM      8  N   UNL     1       4.527   3.329  18.110  0.00  0.00    +0.000 N 
ATOM      9  C   UNL     1       4.469   4.618  17.564  0.00  0.00    +0.000 A 
ATOM     10  C   UNL     1       5.209   4.949  16.416  0.00  0.00    +0.000 A 
ATOM     11  C   UNL     1       6.020   3.976  15.610  0.00  0.00    +0.000 C 
ATOM     12  C   UNL     1       5.190   6.279  15.976  0.00  0.00    +0.000 A 
ATOM     13  C   UNL     1       4.458   7.212  16.675  0.00  0.00    +0.000 A 
ATOM     14  N   UNL     1       3.733   6.913  17.766  0.00  0.00    +0.000 NA
ATOM     15  C   UNL     1       3.713   5.626  18.196  0.00  0.00    +0.000 A 
ATOM     16  H   UNL     1       3.090   7.709  19.093  0.00  0.00    +0.000 HD
ATOM     17  H   UNL     1       5.188   2.645  17.781  0.00  0.00    +0.000 HD
ENDROOT
BRANCH   1  18
ATOM     18  C   UNL     1       1.839   8.665  20.512  0.00  0.00    +0.000 C 
BRANCH  18  19
ATOM     19  C   UNL     1       0.785   9.203  19.554  0.00  0.00    +0.000 A 
ATOM     20  C   UNL     1      -0.323   9.909  20.035  0.00  0.00    +0.000 A 
ATOM     21  C   UNL     1      -1.262  10.445  19.147  0.00  0.00    +0.000 A 
ATOM     22  C   UNL     1      -1.108  10.295  17.765  0.00  0.00    +0.000 A 
ATOM     23  C   UNL     1      -0.047   9.534  17.283  0.00  0.00    +0.000 A 
ATOM     24  C   UNL     1       0.904   9.016  18.167  0.00  0.00    +0.000 A 
BRANCH  22  25
ATOM     25  O   UNL     1      -2.077  10.869  17.003  0.00  0.00    +0.000 OA
BRANCH  25  26
ATOM     26  C   UNL     1      -3.108  10.058  16.452  0.00  0.00    +0.000 C 
ATOM     27  F   UNL     1      -2.758   9.356  15.354  0.00  0.00    +0.000 F 
ATOM     28  F   UNL     1      -3.527   9.186  17.396  0.00  0.00    +0.000 F 
ATOM     29  F   UNL     1      -4.154  10.847  16.119  0.00  0.00    +0.000 F 
ENDBRANCH  25  26
ENDBRANCH  22  25
ENDBRANCH  18  19
BRANCH  18  30
ATOM     30  C   UNL     1       1.180   8.277  21.860  0.00  0.00    +0.000 C 
BRANCH  30  32
ATOM     31  C   UNL     1       0.046   9.575  23.467  0.00  0.00    +0.000 C 
ATOM     32  O   UNL     1       1.290   9.332  22.821  0.00  0.00    +0.000 OA
ENDBRANCH  30  32
ENDBRANCH  18  30
ENDBRANCH   1  18
TORSDOF 6
ENDMDL
MODEL 7
REMARK VINA RESULT:      -7.9      0.885      1.382
REMARK  Name = 
REMARK  8 active torsions:
REMARK  status: ('A' for Active; 'I' for Inactive)
REMARK    1  A    between atoms: C_1  and  O_2
REMARK    2  A    between atoms: O_2  and  C_3
REMARK    3  A    between atoms: C_3  and  C_4
REMARK    4  A    between atoms: C_4  and  N_5
REMARK    5  A    between atoms: C_4  and  C_20
REMARK    6  A    between atoms: C_14  and  C_15
REMARK    7  A    between atoms: C_23  and  O_24
REMARK    8  A    between atoms: O_24  and  C_25
REMARK                            x       y       z     vdW  Elec       q    Type
REMARK                         _______ _______ _______ _____ _____    ______ ____
ROOT
ATOM      1  N   UNL     1       5.951   5.367  17.938  0.00  0.00    +0.000 N 
ATOM      2  C   UNL     1       4.877   6.207  17.939  0.00  0.00    +0.000 C 
ATOM      3  O   UNL     1       4.832   7.213  17.231  0.00  0.00    +0.000 OA
ATOM      4  N   UNL     1       3.861   5.884  18.841  0.00  0.00    +0.000 N 
ATOM      5  C   UNL     1       2.760   6.833  18.961  0.00  0.00    +0.000 C 
ATOM      6  C   UNL     1       1.977   6.757  20.263  0.00  0.00    +0.000 C 
ATOM      7  O   UNL     1       1.309   7.690  20.702  0.00  0.00    +0.000 OA
ATOM      8  N   UNL     1       1.891   5.518  20.840  0.00  0.00    +0.000 N 
ATOM      9  C   UNL     1       2.685   4.436  20.436  0.00  0.00    +0.000 A 
ATOM     10  C   UNL     1       2.513   3.163  21.007  0.00  0.00    +0.000 A 
ATOM     11  C   UNL     1       1.435   2.803  21.988  0.00  0.00    +0.000 C 
ATOM     12  C   UNL     1       3.402   2.146  20.637  0.00  0.00    +0.000 A 
ATOM     13  C   UNL     1       4.407   2.419  19.737  0.00  0.00    +0.000 A 
ATOM     14  N   UNL     1       4.579   3.625  19.170  0.00  0.00    +0.000 NA
ATOM     15  C   UNL     1       3.714   4.621  19.491  0.00  0.00    +0.000 A 
ATOM     16  H   UNL     1       5.805   4.489  18.424  0.00  0.00    +0.000 HD
ATOM     17  H   UNL     1       1.272   5.453  21.630  0.00  0.00    +0.000 HD
ENDROOT
BRANCH   1  18
ATOM     18  C   UNL     1       7.102   5.459  17.056  0.00  0.00    +0.000 C 
BRANCH  18  19
ATOM     19  C   UNL     1       6.739   4.847  15.710  0.00  0.00    +0.000 A 
ATOM     20  C   UNL     1       5.745   3.867  15.617  0.00  0.00    +0.000 A 
ATOM     21  C   UNL     1       5.381   3.344  14.371  0.00  0.00    +0.000 A 
ATOM     22  C   UNL     1       5.993   3.795  13.197  0.00  0.00    +0.000 A 
ATOM     23  C   UNL     1       7.031   4.717  13.289  0.00  0.00    +0.000 A 
ATOM     24  C   UNL     1       7.382   5.257  14.530  0.00  0.00    +0.000 A 
BRANCH  22  25
ATOM     25  O   UNL     1       5.547   3.221  12.047  0.00  0.00    +0.000 OA
BRANCH  25  26
ATOM     26  C   UNL     1       6.257   2.122  11.491  0.00  0.00    +0.000 C 
ATOM     27  F   UNL     1       6.011   1.883  10.186  0.00  0.00    +0.000 F 
ATOM     28  F   UNL     1       7.583   2.340  11.640  0.00  0.00    +0.000 F 
ATOM     29  F   UNL     1       5.939   1.003  12.181  0.00  0.00    +0.000 F 
ENDBRANCH  25  26
ENDBRANCH  22  25
ENDBRANCH  18  19
BRANCH  18  30
ATOM     30  C   UNL     1       7.552   6.930  16.863  0.00  0.00    +0.000 C 
BRANCH  30  32
ATOM     31  C   UNL     1       8.142   8.901  18.010  0.00  0.00    +0.000 C 
ATOM     32  O   UNL     1       8.073   7.482  18.076  0.00  0.00    +0.000 OA
ENDBRANCH  30  32
ENDBRANCH  18  30
ENDBRANCH   1  18
TORSDOF 6
ENDMDL
MODEL 8
REMARK VINA RESULT:      -7.8      8.983     11.139
REMARK  Name = 
REMARK  8 active torsions:
REMARK  status: ('A' for Active; 'I' for Inactive)
REMARK    1  A    between atoms: C_1  and  O_2
REMARK    2  A    between atoms: O_2  and  C_3
REMARK    3  A    between atoms: C_3  and  C_4
REMARK    4  A    between atoms: C_4  and  N_5
REMARK    5  A    between atoms: C_4  and  C_20
REMARK    6  A    between atoms: C_14  and  C_15
REMARK    7  A    between atoms: C_23  and  O_24
REMARK    8  A    between atoms: O_24  and  C_25
REMARK                            x       y       z     vdW  Elec       q    Type
REMARK                         _______ _______ _______ _____ _____    ______ ____
ROOT
ATOM      1  N   UNL     1      -0.699  11.389  19.274  0.00  0.00    +0.000 N 
ATOM      2  C   UNL     1      -0.967  10.548  18.235  0.00  0.00    +0.000 C 
ATOM      3  O   UNL     1      -0.147   9.726  17.830  0.00  0.00    +0.000 OA
ATOM      4  N   UNL     1      -2.211  10.725  17.624  0.00  0.00    +0.000 N 
ATOM      5  C   UNL     1      -2.476   9.933  16.429  0.00  0.00    +0.000 C 
ATOM      6  C   UNL     1      -3.545  10.493  15.503  0.00  0.00    +0.000 C 
ATOM      7  O   UNL     1      -3.623  10.204  14.311  0.00  0.00    +0.000 OA
ATOM      8  N   UNL     1      -4.553  11.196  16.107  0.00  0.00    +0.000 N 
ATOM      9  C   UNL     1      -4.488  11.623  17.440  0.00  0.00    +0.000 A 
ATOM     10  C   UNL     1      -5.575  12.280  18.042  0.00  0.00    +0.000 A 
ATOM     11  C   UNL     1      -6.913  12.490  17.393  0.00  0.00    +0.000 C 
ATOM     12  C   UNL     1      -5.414  12.772  19.343  0.00  0.00    +0.000 A 
ATOM     13  C   UNL     1      -4.210  12.603  19.986  0.00  0.00    +0.000 A 
ATOM     14  N   UNL     1      -3.163  11.965  19.434  0.00  0.00    +0.000 NA
ATOM     15  C   UNL     1      -3.303  11.455  18.185  0.00  0.00    +0.000 A 
ATOM     16  H   UNL     1      -1.501  11.897  19.629  0.00  0.00    +0.000 HD
ATOM     17  H   UNL     1      -5.317  11.455  15.506  0.00  0.00    +0.000 HD
ENDROOT
BRANCH   1  18
ATOM     18  C   UNL     1       0.496  11.364  20.100  0.00  0.00    +0.000 C 
BRANCH  18  19
ATOM     19  C   UNL     1       1.373  12.553  19.731  0.00  0.00    +0.000 A 
ATOM     20  C   UNL     1       1.662  13.546  20.672  0.00  0.00    +0.000 A 
ATOM     21  C   UNL     1       2.510  14.610  20.342  0.00  0.00    +0.000 A 
ATOM     22  C   UNL     1       3.091  14.696  19.073  0.00  0.00    +0.000 A 
ATOM     23  C   UNL     1       2.752  13.750  18.110  0.00  0.00    +0.000 A 
ATOM     24  C   UNL     1       1.923  12.676  18.443  0.00  0.00    +0.000 A 
BRANCH  22  25
ATOM     25  O   UNL     1       3.905  15.767  18.874  0.00  0.00    +0.000 OA
BRANCH  25  26
ATOM     26  C   UNL     1       5.289  15.558  18.621  0.00  0.00    +0.000 C 
ATOM     27  F   UNL     1       5.572  14.963  17.443  0.00  0.00    +0.000 F 
ATOM     28  F   UNL     1       5.923  16.752  18.654  0.00  0.00    +0.000 F 
ATOM     29  F   UNL     1       5.802  14.787  19.605  0.00  0.00    +0.000 F 
ENDBRANCH  25  26
ENDBRANCH  22  25
ENDBRANCH  18  19
BRANCH  18  30
ATOM     30  C   UNL     1       0.144  11.416  21.609  0.00  0.00    +0.000 C 
BRANCH  30  32
ATOM     31  C   UNL     1      -0.227   9.690  23.170  0.00  0.00    +0.000 C 
ATOM     32  O   UNL     1       0.725  10.319  22.321  0.00  0.00    +0.000 OA
ENDBRANCH  30  32
ENDBRANCH  18  30
ENDBRANCH   1  18
TORSDOF 6
ENDMDL
MODEL 9
REMARK VINA RESULT:      -7.7      6.774      9.478
REMARK  Name = 
REMARK  8 active torsions:
REMARK  status: ('A' for Active; 'I' for Inactive)
REMARK    1  A    between atoms: C_1  and  O_2
REMARK    2  A    between atoms: O_2  and  C_3
REMARK    3  A    between atoms: C_3  and  C_4
REMARK    4  A    between atoms: C_4  and  N_5
REMARK    5  A    between atoms: C_4  and  C_20
REMARK    6  A    between atoms: C_14  and  C_15
REMARK    7  A    between atoms: C_23  and  O_24
REMARK    8  A    between atoms: O_24  and  C_25
REMARK                            x       y       z     vdW  Elec       q    Type
REMARK                         _______ _______ _______ _____ _____    ______ ____
ROOT
ATOM      1  N   UNL     1      -0.432  11.470  19.862  0.00  0.00    +0.000 N 
ATOM      2  C   UNL     1      -1.138  12.181  20.787  0.00  0.00    +0.000 C 
ATOM      3  O   UNL     1      -0.608  12.661  21.788  0.00  0.00    +0.000 OA
ATOM      4  N   UNL     1      -2.513  12.273  20.554  0.00  0.00    +0.000 N 
ATOM      5  C   UNL     1      -3.315  12.912  21.591  0.00  0.00    +0.000 C 
ATOM      6  C   UNL     1      -4.790  12.544  21.588  0.00  0.00    +0.000 C 
ATOM      7  O   UNL     1      -5.514  12.653  22.576  0.00  0.00    +0.000 OA
ATOM      8  N   UNL     1      -5.336  12.261  20.365  0.00  0.00    +0.000 N 
ATOM      9  C   UNL     1      -4.559  12.046  19.218  0.00  0.00    +0.000 A 
ATOM     10  C   UNL     1      -5.163  11.830  17.967  0.00  0.00    +0.000 A 
ATOM     11  C   UNL     1      -6.639  11.913  17.704  0.00  0.00    +0.000 C 
ATOM     12  C   UNL     1      -4.338  11.521  16.879  0.00  0.00    +0.000 A 
ATOM     13  C   UNL     1      -2.977  11.437  17.063  0.00  0.00    +0.000 A 
ATOM     14  N   UNL     1      -2.379  11.655  18.247  0.00  0.00    +0.000 NA
ATOM     15  C   UNL     1      -3.154  11.983  19.312  0.00  0.00    +0.000 A 
ATOM     16  H   UNL     1      -0.933  11.275  19.002  0.00  0.00    +0.000 HD
ATOM     17  H   UNL     1      -6.335  12.140  20.356  0.00  0.00    +0.000 HD
ENDROOT
BRANCH   1  18
ATOM     18  C   UNL     1       1.008  11.281  19.854  0.00  0.00    +0.000 C 
BRANCH  18  19
ATOM     19  C   UNL     1       1.307   9.790  19.781  0.00  0.00    +0.000 A 
ATOM     20  C   UNL     1       1.770   9.212  18.594  0.00  0.00    +0.000 A 
ATOM     21  C   UNL     1       2.090   7.851  18.547  0.00  0.00    +0.000 A 
ATOM     22  C   UNL     1       1.966   7.045  19.683  0.00  0.00    +0.000 A 
ATOM     23  C   UNL     1       1.439   7.597  20.847  0.00  0.00    +0.000 A 
ATOM     24  C   UNL     1       1.138   8.961  20.903  0.00  0.00    +0.000 A 
BRANCH  22  25
ATOM     25  O   UNL     1       2.318   5.742  19.518  0.00  0.00    +0.000 OA
BRANCH  25  26
ATOM     26  C   UNL     1       1.745   4.749  20.359  0.00  0.00    +0.000 C 
ATOM     27  F   UNL     1       0.423   4.887  20.589  0.00  0.00    +0.000 F 
ATOM     28  F   UNL     1       1.953   3.534  19.801  0.00  0.00    +0.000 F 
ATOM     29  F   UNL     1       2.376   4.771  21.554  0.00  0.00    +0.000 F 
ENDBRANCH  25  26
ENDBRANCH  22  25
ENDBRANCH  18  19
BRANCH  18  30
ATOM     30  C   UNL     1       1.670  12.012  18.658  0.00  0.00    +0.000 C 
BRANCH  30  32
ATOM     31  C   UNL     1       2.539  14.124  18.078  0.00  0.00    +0.000 C 
ATOM     32  O   UNL     1       2.448  13.132  19.093  0.00  0.00    +0.000 OA
ENDBRANCH  30  32
ENDBRANCH  18  30
ENDBRANCH   1  18
TORSDOF 6
ENDMDL
