MODEL 1
REMARK VINA RESULT:      -7.2      0.000      0.000
REMARK  Name = 
REMARK  10 active torsions:
REMARK  status: ('A' for Active; 'I' for Inactive)
REMARK    1  A    between atoms: C_2  and  C_3
REMARK    2  A    between atoms: C_3  and  O_4
REMARK    3  A    between atoms: O_4  and  C_5
REMARK    4  A    between atoms: C_9  and  C_10
REMARK    5  A    between atoms: C_10  and  C_11
REMARK    6  A    between atoms: N_13  and  C_14
REMARK    7  A    between atoms: C_14  and  O_15
REMARK    8  A    between atoms: O_15  and  C_16
REMARK    9  A    between atoms: C_16  and  C_17
REMARK   10  A    between atoms: C_17  and  O_18
REMARK                            x       y       z     vdW  Elec       q    Type
REMARK                         _______ _______ _______ _____ _____    ______ ____
ROOT
ATOM      1  C   UNL     1       4.332   5.120  17.650  0.00  0.00    +0.000 A 
ATOM      2  C   UNL     1       4.877   5.281  16.437  0.00  0.00    +0.000 A 
ATOM      3  N   UNL     1       6.194   4.958  16.163  0.00  0.00    +0.000 N 
ATOM      4  C   UNL     1       7.049   4.485  17.144  0.00  0.00    +0.000 A 
ATOM      5  O   UNL     1       8.190   4.078  16.935  0.00  0.00    +0.000 OA
ATOM      6  N   UNL     1       6.533   4.456  18.409  0.00  0.00    +0.000 N 
ATOM      7  C   UNL     1       5.223   4.630  18.738  0.00  0.00    +0.000 A 
ATOM      8  O   UNL     1       4.796   4.370  19.858  0.00  0.00    +0.000 OA
ATOM      9  H   UNL     1       7.128   4.074  19.127  0.00  0.00    +0.000 HD
ENDROOT
BRANCH   1  10
ATOM     10  C   UNL     1       2.862   5.239  17.937  0.00  0.00    +0.000 C 
BRANCH  10  15
ATOM     11  C   UNL     1       1.642   7.998  20.282  0.00  0.00    +0.000 A 
ATOM     12  C   UNL     1       1.520   9.068  19.395  0.00  0.00    +0.000 A 
ATOM     13  C   UNL     1       1.875   8.921  18.054  0.00  0.00    +0.000 A 
ATOM     14  C   UNL     1       2.322   7.688  17.582  0.00  0.00    +0.000 A 
ATOM     15  C   UNL     1       2.407   6.587  18.446  0.00  0.00    +0.000 A 
ATOM     16  C   UNL     1       2.092   6.763  19.806  0.00  0.00    +0.000 A 
BRANCH  11  17
ATOM     17  O   UNL     1       1.231   8.251  21.562  0.00  0.00    +0.000 OA
BRANCH  17  18
ATOM     18  C   UNL     1      -0.100   8.741  21.715  0.00  0.00    +0.000 C 
BRANCH  18  20
ATOM     19  C   UNL     1      -1.083  10.570  23.143  0.00  0.00    +0.000 C 
ATOM     20  C   UNL     1      -0.034   9.987  22.548  0.00  0.00    +0.000 C 
ENDBRANCH  18  20
ENDBRANCH  17  18
ENDBRANCH  11  17
ENDBRANCH  10  15
ENDBRANCH   1  10
BRANCH   3  21
ATOM     21  C   UNL     1       6.663   4.960  14.786  0.00  0.00    +0.000 C 
BRANCH  21  22
ATOM     22  O   UNL     1       5.744   4.288  13.924  0.00  0.00    +0.000 OA
BRANCH  22  23
ATOM     23  C   UNL     1       6.398   3.754  12.765  0.00  0.00    +0.000 C 
BRANCH  23  24
ATOM     24  C   UNL     1       5.398   2.915  11.977  0.00  0.00    +0.000 C 
BRANCH  24  25
ATOM     25  O   UNL     1       5.950   1.635  11.680  0.00  0.00    +0.000 OA
ATOM     26  H   UNL     1       5.214   1.118  11.302  0.00  0.00    +0.000 HD
ENDBRANCH  24  25
ENDBRANCH  23  24
ENDBRANCH  22  23
ENDBRANCH  21  22
ENDBRANCH   3  21
TORSDOF 10
ENDMDL
MODEL 2
REMARK VINA RESULT:      -7.2      3.071      4.502
REMARK  Name = 
REMARK  10 active torsions:
REMARK  status: ('A' for Active; 'I' for Inactive)
REMARK    1  A    between atoms: C_2  and  C_3
REMARK    2  A    between atoms: C_3  and  O_4
REMARK    3  A    between atoms: O_4  and  C_5
REMARK    4  A    between atoms: C_9  and  C_10
REMARK    5  A    between atoms: C_10  and  C_11
REMARK    6  A    between atoms: N_13  and  C_14
REMARK    7  A    between atoms: C_14  and  O_15
REMARK    8  A    between atoms: O_15  and  C_16
REMARK    9  A    between atoms: C_16  and  C_17
REMARK   10  A    between atoms: C_17  and  O_18
REMARK                            x       y       z     vdW  Elec       q    Type
REMARK                         _______ _______ _______ _____ _____    ______ ____
ROOT
ATOM      1  C   UNL     1       4.195   5.426  17.823  0.00  0.00    +0.000 A 
ATOM      2  C   UNL     1       3.210   4.524  17.710  0.00  0.00    +0.000 A 
ATOM      3  N   UNL     1       3.258   3.288  18.329  0.00  0.00    +0.000 N 
ATOM      4  C   UNL     1       4.354   2.885  19.074  0.00  0.00    +0.000 A 
ATOM      5  O   UNL     1       4.403   1.850  19.735  0.00  0.00    +0.000 OA
ATOM      6  N   UNL     1       5.415   3.746  19.070  0.00  0.00    +0.000 N 
ATOM      7  C   UNL     1       5.400   5.025  18.601  0.00  0.00    +0.000 A 
ATOM      8  O   UNL     1       6.314   5.810  18.831  0.00  0.00    +0.000 OA
ATOM      9  H   UNL     1       6.203   3.488  19.642  0.00  0.00    +0.000 HD
ENDROOT
BRANCH   1  10
ATOM     10  C   UNL     1       4.090   6.852  17.364  0.00  0.00    +0.000 C 
BRANCH  10  15
ATOM     11  C   UNL     1       1.693   8.151  20.042  0.00  0.00    +0.000 A 
ATOM     12  C   UNL     1       1.061   9.187  19.355  0.00  0.00    +0.000 A 
ATOM     13  C   UNL     1       1.434   9.504  18.049  0.00  0.00    +0.000 A 
ATOM     14  C   UNL     1       2.423   8.759  17.406  0.00  0.00    +0.000 A 
ATOM     15  C   UNL     1       3.038   7.683  18.062  0.00  0.00    +0.000 A 
ATOM     16  C   UNL     1       2.685   7.407  19.396  0.00  0.00    +0.000 A 
BRANCH  11  17
ATOM     17  O   UNL     1       1.218   7.909  21.302  0.00  0.00    +0.000 OA
BRANCH  17  18
ATOM     18  C   UNL     1       1.139   9.033  22.175  0.00  0.00    +0.000 C 
BRANCH  18  20
ATOM     19  C   UNL     1      -0.842  10.234  23.169  0.00  0.00    +0.000 C 
ATOM     20  C   UNL     1      -0.274   9.128  22.673  0.00  0.00    +0.000 C 
ENDBRANCH  18  20
ENDBRANCH  17  18
ENDBRANCH  11  17
ENDBRANCH  10  15
ENDBRANCH   1  10
BRANCH   3  21
ATOM     21  C   UNL     1       2.074   2.443  18.338  0.00  0.00    +0.000 C 
BRANCH  21  22
ATOM     22  O   UNL     1       1.024   3.029  19.110  0.00  0.00    +0.000 OA
BRANCH  22  23
ATOM     23  C   UNL     1       0.941   2.448  20.418  0.00  0.00    +0.000 C 
BRANCH  23  24
ATOM     24  C   UNL     1       1.610   3.386  21.417  0.00  0.00    +0.000 C 
BRANCH  24  25
ATOM     25  O   UNL     1       2.681   2.720  22.082  0.00  0.00    +0.000 OA
ATOM     26  H   UNL     1       2.255   2.137  22.738  0.00  0.00    +0.000 HD
ENDBRANCH  24  25
ENDBRANCH  23  24
ENDBRANCH  22  23
ENDBRANCH  21  22
ENDBRANCH   3  21
TORSDOF 10
ENDMDL
MODEL 3
REMARK VINA RESULT:      -7.1      3.877      8.143
REMARK  Name = 
REMARK  10 active torsions:
REMARK  status: ('A' for Active; 'I' for Inactive)
REMARK    1  A    between atoms: C_2  and  C_3
REMARK    2  A    between atoms: C_3  and  O_4
REMARK    3  A    between atoms: O_4  and  C_5
REMARK    4  A    between atoms: C_9  and  C_10
REMARK    5  A    between atoms: C_10  and  C_11
REMARK    6  A    between atoms: N_13  and  C_14
REMARK    7  A    between atoms: C_14  and  O_15
REMARK    8  A    between atoms: O_15  and  C_16
REMARK    9  A    between atoms: C_16  and  C_17
REMARK   10  A    between atoms: C_17  and  O_18
REMARK                            x       y       z     vdW  Elec       q    Type
REMARK                         _______ _______ _______ _____ _____    ______ ____
ROOT
ATOM      1  C   UNL     1       5.168   4.502  16.795  0.00  0.00    +0.000 A 
ATOM      2  C   UNL     1       4.186   3.596  16.886  0.00  0.00    +0.000 A 
ATOM      3  N   UNL     1       3.970   2.844  18.027  0.00  0.00    +0.000 N 
ATOM      4  C   UNL     1       4.787   2.952  19.139  0.00  0.00    +0.000 A 
ATOM      5  O   UNL     1       4.576   2.394  20.214  0.00  0.00    +0.000 OA
ATOM      6  N   UNL     1       5.871   3.771  18.994  0.00  0.00    +0.000 N 
ATOM      7  C   UNL     1       6.081   4.637  17.963  0.00  0.00    +0.000 A 
ATOM      8  O   UNL     1       6.954   5.498  18.008  0.00  0.00    +0.000 OA
ATOM      9  H   UNL     1       6.452   3.894  19.807  0.00  0.00    +0.000 HD
ENDROOT
BRANCH   1  10
ATOM     10  C   UNL     1       5.300   5.494  15.675  0.00  0.00    +0.000 C 
BRANCH  10  15
ATOM     11  C   UNL     1       5.711   3.653  12.352  0.00  0.00    +0.000 A 
ATOM     12  C   UNL     1       7.049   3.923  12.061  0.00  0.00    +0.000 A 
ATOM     13  C   UNL     1       7.808   4.735  12.902  0.00  0.00    +0.000 A 
ATOM     14  C   UNL     1       7.242   5.256  14.066  0.00  0.00    +0.000 A 
ATOM     15  C   UNL     1       5.913   4.959  14.402  0.00  0.00    +0.000 A 
ATOM     16  C   UNL     1       5.146   4.178  13.518  0.00  0.00    +0.000 A 
BRANCH  11  17
ATOM     17  O   UNL     1       5.079   2.816  11.474  0.00  0.00    +0.000 OA
BRANCH  17  18
ATOM     18  C   UNL     1       3.654   2.851  11.479  0.00  0.00    +0.000 C 
BRANCH  18  20
ATOM     19  C   UNL     1       3.072   4.415   9.590  0.00  0.00    +0.000 C 
ATOM     20  C   UNL     1       3.200   3.178  10.086  0.00  0.00    +0.000 C 
ENDBRANCH  18  20
ENDBRANCH  17  18
ENDBRANCH  11  17
ENDBRANCH  10  15
ENDBRANCH   1  10
BRANCH   3  21
ATOM     21  C   UNL     1       2.768   2.032  18.134  0.00  0.00    +0.000 C 
BRANCH  21  22
ATOM     22  O   UNL     1       1.589   2.829  18.004  0.00  0.00    +0.000 OA
BRANCH  22  23
ATOM     23  C   UNL     1       0.608   2.489  18.992  0.00  0.00    +0.000 C 
BRANCH  23  24
ATOM     24  C   UNL     1       1.081   2.994  20.351  0.00  0.00    +0.000 C 
BRANCH  24  25
ATOM     25  O   UNL     1       0.894   4.404  20.448  0.00  0.00    +0.000 OA
ATOM     26  H   UNL     1       0.024   4.521  20.871  0.00  0.00    +0.000 HD
ENDBRANCH  24  25
ENDBRANCH  23  24
ENDBRANCH  22  23
ENDBRANCH  21  22
ENDBRANCH   3  21
TORSDOF 10
ENDMDL
MODEL 4
REMARK VINA RESULT:      -7.0      1.039      1.167
REMARK  Name = 
REMARK  10 active torsions:
REMARK  status: ('A' for Active; 'I' for Inactive)
REMARK    1  A    between atoms: C_2  and  C_3
REMARK    2  A    between atoms: C_3  and  O_4
REMARK    3  A    between atoms: O_4  and  C_5
REMARK    4  A    between atoms: C_9  and  C_10
REMARK    5  A    between atoms: C_10  and  C_11
REMARK    6  A    between atoms: N_13  and  C_14
REMARK    7  A    between atoms: C_14  and  O_15
REMARK    8  A    between atoms: O_15  and  C_16
REMARK    9  A    between atoms: C_16  and  C_17
REMARK   10  A    between atoms: C_17  and  O_18
REMARK                            x       y       z     vdW  Elec       q    Type
REMARK                         _______ _______ _______ _____ _____    ______ ____
ROOT
ATOM      1  C   UNL     1       4.188   5.638  18.095  0.00  0.00    +0.000 A 
ATOM      2  C   UNL     1       5.101   6.045  17.204  0.00  0.00    +0.000 A 
ATOM      3  N   UNL     1       6.422   5.635  17.250  0.00  0.00    +0.000 N 
ATOM      4  C   UNL     1       6.894   4.805  18.252  0.00  0.00    +0.000 A 
ATOM      5  O   UNL     1       8.024   4.321  18.279  0.00  0.00    +0.000 OA
ATOM      6  N   UNL     1       5.997   4.506  19.239  0.00  0.00    +0.000 N 
ATOM      7  C   UNL     1       4.659   4.759  19.200  0.00  0.00    +0.000 A 
ATOM      8  O   UNL     1       3.883   4.266  20.013  0.00  0.00    +0.000 OA
ATOM      9  H   UNL     1       6.312   3.869  19.953  0.00  0.00    +0.000 HD
ENDROOT
BRANCH   1  10
ATOM     10  C   UNL     1       2.710   5.871  17.956  0.00  0.00    +0.000 C 
BRANCH  10  15
ATOM     11  C   UNL     1       1.421   8.410  20.502  0.00  0.00    +0.000 A 
ATOM     12  C   UNL     1       1.200   9.519  19.686  0.00  0.00    +0.000 A 
ATOM     13  C   UNL     1       1.509   9.472  18.327  0.00  0.00    +0.000 A 
ATOM     14  C   UNL     1       2.010   8.297  17.766  0.00  0.00    +0.000 A 
ATOM     15  C   UNL     1       2.196   7.156  18.559  0.00  0.00    +0.000 A 
ATOM     16  C   UNL     1       1.925   7.235  19.938  0.00  0.00    +0.000 A 
BRANCH  11  17
ATOM     17  O   UNL     1       1.046   8.563  21.809  0.00  0.00    +0.000 OA
BRANCH  17  18
ATOM     18  C   UNL     1      -0.328   8.862  22.043  0.00  0.00    +0.000 C 
BRANCH  18  20
ATOM     19  C   UNL     1      -1.231  10.963  23.103  0.00  0.00    +0.000 C 
ATOM     20  C   UNL     1      -0.391   9.920  23.106  0.00  0.00    +0.000 C 
ENDBRANCH  18  20
ENDBRANCH  17  18
ENDBRANCH  11  17
ENDBRANCH  10  15
ENDBRANCH   1  10
BRANCH   3  21
ATOM     21  C   UNL     1       7.309   5.946  16.140  0.00  0.00    +0.000 C 
BRANCH  21  22
ATOM     22  O   UNL     1       7.573   4.787  15.346  0.00  0.00    +0.000 OA
BRANCH  22  23
ATOM     23  C   UNL     1       7.042   4.921  14.021  0.00  0.00    +0.000 C 
BRANCH  23  24
ATOM     24  C   UNL     1       5.966   3.861  13.812  0.00  0.00    +0.000 C 
BRANCH  24  25
ATOM     25  O   UNL     1       6.329   2.991  12.742  0.00  0.00    +0.000 OA
ATOM     26  H   UNL     1       6.409   3.566  11.958  0.00  0.00    +0.000 HD
ENDBRANCH  24  25
ENDBRANCH  23  24
ENDBRANCH  22  23
ENDBRANCH  21  22
ENDBRANCH   3  21
TORSDOF 10
ENDMDL
MODEL 5
REMARK VINA RESULT:      -7.0      2.111      2.878
REMARK  Name = 
REMARK  10 active torsions:
REMARK  status: ('A' for Active; 'I' for Inactive)
REMARK    1  A    between atoms: C_2  and  C_3
REMARK    2  A    between atoms: C_3  and  O_4
REMARK    3  A    between atoms: O_4  and  C_5
REMARK    4  A    between atoms: C_9  and  C_10
REMARK    5  A    between atoms: C_10  and  C_11
REMARK    6  A    between atoms: N_13  and  C_14
REMARK    7  A    between atoms: C_14  and  O_15
REMARK    8  A    between atoms: O_15  and  C_16
REMARK    9  A    between atoms: C_16  and  C_17
REMARK   10  A    between atoms: C_17  and  O_18
REMARK                            x       y       z     vdW  Elec       q    Type
REMARK                         _______ _______ _______ _____ _____    ______ ____
ROOT
ATOM      1  C   UNL     1       5.560   4.251  17.667  0.00  0.00    +0.000 A 
ATOM      2  C   UNL     1       5.125   4.206  16.401  0.00  0.00    +0.000 A 
ATOM      3  N   UNL     1       5.890   4.644  15.335  0.00  0.00    +0.000 N 
ATOM      4  C   UNL     1       7.146   5.200  15.516  0.00  0.00    +0.000 A 
ATOM      5  O   UNL     1       7.911   5.500  14.601  0.00  0.00    +0.000 OA
ATOM      6  N   UNL     1       7.528   5.375  16.815  0.00  0.00    +0.000 N 
ATOM      7  C   UNL     1       6.899   4.858  17.907  0.00  0.00    +0.000 A 
ATOM      8  O   UNL     1       7.418   4.866  19.018  0.00  0.00    +0.000 OA
ATOM      9  H   UNL     1       8.456   5.739  16.964  0.00  0.00    +0.000 HD
ENDROOT
BRANCH   1  10
ATOM     10  C   UNL     1       4.868   3.585  18.822  0.00  0.00    +0.000 C 
BRANCH  10  15
ATOM     11  C   UNL     1       2.499   6.453  19.693  0.00  0.00    +0.000 A 
ATOM     12  C   UNL     1       1.614   5.815  20.562  0.00  0.00    +0.000 A 
ATOM     13  C   UNL     1       1.745   4.453  20.834  0.00  0.00    +0.000 A 
ATOM     14  C   UNL     1       2.789   3.725  20.263  0.00  0.00    +0.000 A 
ATOM     15  C   UNL     1       3.717   4.358  19.423  0.00  0.00    +0.000 A 
ATOM     16  C   UNL     1       3.542   5.721  19.120  0.00  0.00    +0.000 A 
BRANCH  11  17
ATOM     17  O   UNL     1       2.293   7.796  19.532  0.00  0.00    +0.000 OA
BRANCH  17  18
ATOM     18  C   UNL     1       2.202   8.267  18.189  0.00  0.00    +0.000 C 
BRANCH  18  20
ATOM     19  C   UNL     1       0.241   9.841  18.012  0.00  0.00    +0.000 C 
ATOM     20  C   UNL     1       1.544   9.616  18.221  0.00  0.00    +0.000 C 
ENDBRANCH  18  20
ENDBRANCH  17  18
ENDBRANCH  11  17
ENDBRANCH  10  15
ENDBRANCH   1  10
BRANCH   3  21
ATOM     21  C   UNL     1       5.446   4.378  13.975  0.00  0.00    +0.000 C 
BRANCH  21  22
ATOM     22  O   UNL     1       6.154   3.275  13.405  0.00  0.00    +0.000 OA
BRANCH  22  23
ATOM     23  C   UNL     1       5.788   3.063  12.035  0.00  0.00    +0.000 C 
BRANCH  23  24
ATOM     24  C   UNL     1       6.904   2.288  11.342  0.00  0.00    +0.000 C 
BRANCH  24  25
ATOM     25  O   UNL     1       6.552   0.913  11.222  0.00  0.00    +0.000 OA
ATOM     26  H   UNL     1       7.388   0.422  11.329  0.00  0.00    +0.000 HD
ENDBRANCH  24  25
ENDBRANCH  23  24
ENDBRANCH  22  23
ENDBRANCH  21  22
ENDBRANCH   3  21
TORSDOF 10
ENDMDL
MODEL 6
REMARK VINA RESULT:      -6.8      3.271      5.132
REMARK  Name = 
REMARK  10 active torsions:
REMARK  status: ('A' for Active; 'I' for Inactive)
REMARK    1  A    between atoms: C_2  and  C_3
REMARK    2  A    between atoms: C_3  and  O_4
REMARK    3  A    between atoms: O_4  and  C_5
REMARK    4  A    between atoms: C_9  and  C_10
REMARK    5  A    between atoms: C_10  and  C_11
REMARK    6  A    between atoms: N_13  and  C_14
REMARK    7  A    between atoms: C_14  and  O_15
REMARK    8  A    between atoms: O_15  and  C_16
REMARK    9  A    between atoms: C_16  and  C_17
REMARK   10  A    between atoms: C_17  and  O_18
REMARK                            x       y       z     vdW  Elec       q    Type
REMARK                         _______ _______ _______ _____ _____    ______ ____
ROOT
ATOM      1  C   UNL     1       3.650   5.599  17.782  0.00  0.00    +0.000 A 
ATOM      2  C   UNL     1       2.636   4.729  17.884  0.00  0.00    +0.000 A 
ATOM      3  N   UNL     1       2.799   3.451  18.388  0.00  0.00    +0.000 N 
ATOM      4  C   UNL     1       4.038   2.973  18.782  0.00  0.00    +0.000 A 
ATOM      5  O   UNL     1       4.221   1.892  19.339  0.00  0.00    +0.000 OA
ATOM      6  N   UNL     1       5.092   3.809  18.544  0.00  0.00    +0.000 N 
ATOM      7  C   UNL     1       5.003   5.118  18.178  0.00  0.00    +0.000 A 
ATOM      8  O   UNL     1       5.975   5.865  18.201  0.00  0.00    +0.000 OA
ATOM      9  H   UNL     1       5.994   3.494  18.864  0.00  0.00    +0.000 HD
ENDROOT
BRANCH   1  10
ATOM     10  C   UNL     1       3.483   7.056  17.460  0.00  0.00    +0.000 C 
BRANCH  10  15
ATOM     11  C   UNL     1       1.010   9.675  18.734  0.00  0.00    +0.000 A 
ATOM     12  C   UNL     1       0.854   9.273  20.061  0.00  0.00    +0.000 A 
ATOM     13  C   UNL     1       1.502   8.133  20.536  0.00  0.00    +0.000 A 
ATOM     14  C   UNL     1       2.343   7.406  19.694  0.00  0.00    +0.000 A 
ATOM     15  C   UNL     1       2.551   7.820  18.371  0.00  0.00    +0.000 A 
ATOM     16  C   UNL     1       1.852   8.944  17.892  0.00  0.00    +0.000 A 
BRANCH  11  17
ATOM     17  O   UNL     1       0.355  10.827  18.392  0.00  0.00    +0.000 OA
BRANCH  17  18
ATOM     18  C   UNL     1       0.763  12.013  19.071  0.00  0.00    +0.000 C 
BRANCH  18  20
ATOM     19  C   UNL     1       2.793  13.493  18.874  0.00  0.00    +0.000 C 
ATOM     20  C   UNL     1       2.004  12.522  18.398  0.00  0.00    +0.000 C 
ENDBRANCH  18  20
ENDBRANCH  17  18
ENDBRANCH  11  17
ENDBRANCH  10  15
ENDBRANCH   1  10
BRANCH   3  21
ATOM     21  C   UNL     1       1.628   2.633  18.665  0.00  0.00    +0.000 C 
BRANCH  21  22
ATOM     22  O   UNL     1       0.667   3.349  19.443  0.00  0.00    +0.000 OA
BRANCH  22  23
ATOM     23  C   UNL     1       1.217   3.786  20.693  0.00  0.00    +0.000 C 
BRANCH  23  24
ATOM     24  C   UNL     1       1.436   2.570  21.587  0.00  0.00    +0.000 C 
BRANCH  24  25
ATOM     25  O   UNL     1       2.797   2.498  22.003  0.00  0.00    +0.000 OA
ATOM     26  H   UNL     1       2.998   1.546  22.065  0.00  0.00    +0.000 HD
ENDBRANCH  24  25
ENDBRANCH  23  24
ENDBRANCH  22  23
ENDBRANCH  21  22
ENDBRANCH   3  21
TORSDOF 10
ENDMDL
MODEL 7
REMARK VINA RESULT:      -6.8      3.101      6.930
REMARK  Name = 
REMARK  10 active torsions:
REMARK  status: ('A' for Active; 'I' for Inactive)
REMARK    1  A    between atoms: C_2  and  C_3
REMARK    2  A    between atoms: C_3  and  O_4
REMARK    3  A    between atoms: O_4  and  C_5
REMARK    4  A    between atoms: C_9  and  C_10
REMARK    5  A    between atoms: C_10  and  C_11
REMARK    6  A    between atoms: N_13  and  C_14
REMARK    7  A    between atoms: C_14  and  O_15
REMARK    8  A    between atoms: O_15  and  C_16
REMARK    9  A    between atoms: C_16  and  C_17
REMARK   10  A    between atoms: C_17  and  O_18
REMARK                            x       y       z     vdW  Elec       q    Type
REMARK                         _______ _______ _______ _____ _____    ______ ____
ROOT
ATOM      1  C   UNL     1       2.835   3.478  18.108  0.00  0.00    +0.000 A 
ATOM      2  C   UNL     1       2.370   4.585  18.702  0.00  0.00    +0.000 A 
ATOM      3  N   UNL     1       2.131   4.656  20.063  0.00  0.00    +0.000 N 
ATOM      4  C   UNL     1       2.319   3.566  20.895  0.00  0.00    +0.000 A 
ATOM      5  O   UNL     1       2.231   3.603  22.121  0.00  0.00    +0.000 OA
ATOM      6  N   UNL     1       2.656   2.399  20.268  0.00  0.00    +0.000 N 
ATOM      7  C   UNL     1       3.034   2.277  18.965  0.00  0.00    +0.000 A 
ATOM      8  O   UNL     1       3.536   1.246  18.530  0.00  0.00    +0.000 OA
ATOM      9  H   UNL     1       2.838   1.607  20.863  0.00  0.00    +0.000 HD
ENDROOT
BRANCH   1  10
ATOM     10  C   UNL     1       3.322   3.423  16.688  0.00  0.00    +0.000 C 
BRANCH  10  15
ATOM     11  C   UNL     1       6.909   4.543  17.375  0.00  0.00    +0.000 A 
ATOM     12  C   UNL     1       7.359   4.809  16.081  0.00  0.00    +0.000 A 
ATOM     13  C   UNL     1       6.531   4.583  14.983  0.00  0.00    +0.000 A 
ATOM     14  C   UNL     1       5.228   4.123  15.174  0.00  0.00    +0.000 A 
ATOM     15  C   UNL     1       4.740   3.895  16.468  0.00  0.00    +0.000 A 
ATOM     16  C   UNL     1       5.605   4.080  17.564  0.00  0.00    +0.000 A 
BRANCH  11  17
ATOM     17  O   UNL     1       7.797   4.837  18.374  0.00  0.00    +0.000 OA
BRANCH  17  18
ATOM     18  C   UNL     1       7.688   6.134  18.957  0.00  0.00    +0.000 C 
BRANCH  18  20
ATOM     19  C   UNL     1       8.068   8.402  17.923  0.00  0.00    +0.000 C 
ATOM     20  C   UNL     1       7.642   7.135  17.839  0.00  0.00    +0.000 C 
ENDBRANCH  18  20
ENDBRANCH  17  18
ENDBRANCH  11  17
ENDBRANCH  10  15
ENDBRANCH   1  10
BRANCH   3  21
ATOM     21  C   UNL     1       1.827   5.941  20.673  0.00  0.00    +0.000 C 
BRANCH  21  22
ATOM     22  O   UNL     1       2.524   7.003  20.020  0.00  0.00    +0.000 OA
BRANCH  22  23
ATOM     23  C   UNL     1       1.680   8.144  19.816  0.00  0.00    +0.000 C 
BRANCH  23  24
ATOM     24  C   UNL     1       1.917   8.688  18.411  0.00  0.00    +0.000 C 
BRANCH  24  25
ATOM     25  O   UNL     1       2.984   7.983  17.781  0.00  0.00    +0.000 OA
ATOM     26  H   UNL     1       2.656   7.072  17.660  0.00  0.00    +0.000 HD
ENDBRANCH  24  25
ENDBRANCH  23  24
ENDBRANCH  22  23
ENDBRANCH  21  22
ENDBRANCH   3  21
TORSDOF 10
ENDMDL
MODEL 8
REMARK VINA RESULT:      -6.8      3.076      4.305
REMARK  Name = 
REMARK  10 active torsions:
REMARK  status: ('A' for Active; 'I' for Inactive)
REMARK    1  A    between atoms: C_2  and  C_3
REMARK    2  A    between atoms: C_3  and  O_4
REMARK    3  A    between atoms: O_4  and  C_5
REMARK    4  A    between atoms: C_9  and  C_10
REMARK    5  A    between atoms: C_10  and  C_11
REMARK    6  A    between atoms: N_13  and  C_14
REMARK    7  A    between atoms: C_14  and  O_15
REMARK    8  A    between atoms: O_15  and  C_16
REMARK    9  A    between atoms: C_16  and  C_17
REMARK   10  A    between atoms: C_17  and  O_18
REMARK                            x       y       z     vdW  Elec       q    Type
REMARK                         _______ _______ _______ _____ _____    ______ ____
ROOT
ATOM      1  C   UNL     1       5.958   4.324  15.652  0.00  0.00    +0.000 A 
ATOM      2  C   UNL     1       5.477   3.745  14.544  0.00  0.00    +0.000 A 
ATOM      3  N   UNL     1       6.052   3.926  13.299  0.00  0.00    +0.000 N 
ATOM      4  C   UNL     1       7.143   4.758  13.112  0.00  0.00    +0.000 A 
ATOM      5  O   UNL     1       7.761   4.868  12.054  0.00  0.00    +0.000 OA
ATOM      6  N   UNL     1       7.544   5.457  14.215  0.00  0.00    +0.000 N 
ATOM      7  C   UNL     1       7.121   5.240  15.492  0.00  0.00    +0.000 A 
ATOM      8  O   UNL     1       7.684   5.749  16.456  0.00  0.00    +0.000 OA
ATOM      9  H   UNL     1       8.363   6.035  14.106  0.00  0.00    +0.000 HD
ENDROOT
BRANCH   1  10
ATOM     10  C   UNL     1       5.514   3.981  17.045  0.00  0.00    +0.000 C 
BRANCH  10  15
ATOM     11  C   UNL     1       2.094   4.781  18.549  0.00  0.00    +0.000 A 
ATOM     12  C   UNL     1       2.084   6.173  18.465  0.00  0.00    +0.000 A 
ATOM     13  C   UNL     1       3.192   6.861  17.972  0.00  0.00    +0.000 A 
ATOM     14  C   UNL     1       4.308   6.156  17.523  0.00  0.00    +0.000 A 
ATOM     15  C   UNL     1       4.320   4.755  17.555  0.00  0.00    +0.000 A 
ATOM     16  C   UNL     1       3.214   4.077  18.101  0.00  0.00    +0.000 A 
BRANCH  11  17
ATOM     17  O   UNL     1       0.938   4.215  19.014  0.00  0.00    +0.000 OA
BRANCH  17  18
ATOM     18  C   UNL     1       1.054   2.912  19.582  0.00  0.00    +0.000 C 
BRANCH  18  20
ATOM     19  C   UNL     1       2.401   2.564  21.683  0.00  0.00    +0.000 C 
ATOM     20  C   UNL     1       1.340   3.075  21.046  0.00  0.00    +0.000 C 
ENDBRANCH  18  20
ENDBRANCH  17  18
ENDBRANCH  11  17
ENDBRANCH  10  15
ENDBRANCH   1  10
BRANCH   3  21
ATOM     21  C   UNL     1       5.610   3.111  12.178  0.00  0.00    +0.000 C 
BRANCH  21  22
ATOM     22  O   UNL     1       4.747   3.846  11.309  0.00  0.00    +0.000 OA
BRANCH  22  23
ATOM     23  C   UNL     1       3.542   3.123  11.023  0.00  0.00    +0.000 C 
BRANCH  23  24
ATOM     24  C   UNL     1       3.097   3.449   9.602  0.00  0.00    +0.000 C 
BRANCH  24  25
ATOM     25  O   UNL     1       2.564   4.770   9.540  0.00  0.00    +0.000 OA
ATOM     26  H   UNL     1       2.492   4.975   8.590  0.00  0.00    +0.000 HD
ENDBRANCH  24  25
ENDBRANCH  23  24
ENDBRANCH  22  23
ENDBRANCH  21  22
ENDBRANCH   3  21
TORSDOF 10
ENDMDL
MODEL 9
REMARK VINA RESULT:      -6.8      3.346      8.312
REMARK  Name = 
REMARK  10 active torsions:
REMARK  status: ('A' for Active; 'I' for Inactive)
REMARK    1  A    between atoms: C_2  and  C_3
REMARK    2  A    between atoms: C_3  and  O_4
REMARK    3  A    between atoms: O_4  and  C_5
REMARK    4  A    between atoms: C_9  and  C_10
REMARK    5  A    between atoms: C_10  and  C_11
REMARK    6  A    between atoms: N_13  and  C_14
REMARK    7  A    between atoms: C_14  and  O_15
REMARK    8  A    between atoms: O_15  and  C_16
REMARK    9  A    between atoms: C_16  and  C_17
REMARK   10  A    between atoms: C_17  and  O_18
REMARK                            x       y       z     vdW  Elec       q    Type
REMARK                         _______ _______ _______ _____ _____    ______ ____
ROOT
ATOM      1  C   UNL     1       5.675   4.993  16.850  0.00  0.00    +0.000 A 
ATOM      2  C   UNL     1       4.562   4.338  17.204  0.00  0.00    +0.000 A 
ATOM      3  N   UNL     1       3.407   4.991  17.595  0.00  0.00    +0.000 N 
ATOM      4  C   UNL     1       3.342   6.371  17.687  0.00  0.00    +0.000 A 
ATOM      5  O   UNL     1       2.315   7.006  17.918  0.00  0.00    +0.000 OA
ATOM      6  N   UNL     1       4.518   7.030  17.464  0.00  0.00    +0.000 N 
ATOM      7  C   UNL     1       5.654   6.479  16.952  0.00  0.00    +0.000 A 
ATOM      8  O   UNL     1       6.594   7.169  16.570  0.00  0.00    +0.000 OA
ATOM      9  H   UNL     1       4.479   8.037  17.485  0.00  0.00    +0.000 HD
ENDROOT
BRANCH   1  10
ATOM     10  C   UNL     1       6.868   4.345  16.207  0.00  0.00    +0.000 C 
BRANCH  10  15
ATOM     11  C   UNL     1       6.077   3.589  12.546  0.00  0.00    +0.000 A 
ATOM     12  C   UNL     1       6.972   4.440  11.898  0.00  0.00    +0.000 A 
ATOM     13  C   UNL     1       7.796   5.293  12.630  0.00  0.00    +0.000 A 
ATOM     14  C   UNL     1       7.756   5.274  14.024  0.00  0.00    +0.000 A 
ATOM     15  C   UNL     1       6.898   4.393  14.697  0.00  0.00    +0.000 A 
ATOM     16  C   UNL     1       6.037   3.573  13.943  0.00  0.00    +0.000 A 
BRANCH  11  17
ATOM     17  O   UNL     1       5.347   2.773  11.725  0.00  0.00    +0.000 OA
BRANCH  17  18
ATOM     18  C   UNL     1       3.958   3.075  11.604  0.00  0.00    +0.000 C 
BRANCH  18  20
ATOM     19  C   UNL     1       2.854   3.941   9.510  0.00  0.00    +0.000 C 
ATOM     20  C   UNL     1       3.796   4.029  10.457  0.00  0.00    +0.000 C 
ENDBRANCH  18  20
ENDBRANCH  17  18
ENDBRANCH  11  17
ENDBRANCH  10  15
ENDBRANCH   1  10
BRANCH   3  21
ATOM     21  C   UNL     1       2.176   4.234  17.765  0.00  0.00    +0.000 C 
BRANCH  21  22
ATOM     22  O   UNL     1       1.786   4.178  19.138  0.00  0.00    +0.000 OA
BRANCH  22  23
ATOM     23  C   UNL     1       2.752   3.479  19.935  0.00  0.00    +0.000 C 
BRANCH  23  24
ATOM     24  C   UNL     1       2.198   3.314  21.346  0.00  0.00    +0.000 C 
BRANCH  24  25
ATOM     25  O   UNL     1       0.855   2.840  21.300  0.00  0.00    +0.000 OA
ATOM     26  H   UNL     1       0.655   2.723  20.352  0.00  0.00    +0.000 HD
ENDBRANCH  24  25
ENDBRANCH  23  24
ENDBRANCH  22  23
ENDBRANCH  21  22
ENDBRANCH   3  21
TORSDOF 10
ENDMDL
