MODEL 1
REMARK VINA RESULT:      -6.3      0.000      0.000
REMARK  Name = 
REMARK  8 active torsions:
REMARK  status: ('A' for Active; 'I' for Inactive)
REMARK    1  A    between atoms: C_1  and  C_2
REMARK    2  A    between atoms: C_2  and  C_3
REMARK    3  A    between atoms: C_3  and  C_4
REMARK    4  A    between atoms: C_3  and  C_5
REMARK    5  A    between atoms: C_5  and  N_6
REMARK    6  A    between atoms: C_5  and  C_19
REMARK    7  A    between atoms: N_13  and  C_14
REMARK    8  A    between atoms: C_14  and  C_15
REMARK                            x       y       z     vdW  Elec       q    Type
REMARK                         _______ _______ _______ _____ _____    ______ ____
ROOT
ATOM      1  N   UNL     1       2.655   6.536  18.908  0.00  0.00    +0.000 N 
ATOM      2  C   UNL     1       1.955   6.812  20.051  0.00  0.00    +0.000 C 
ATOM      3  O   UNL     1       1.599   5.923  20.819  0.00  0.00    +0.000 OA
ATOM      4  N   UNL     1       1.743   8.153  20.286  0.00  0.00    +0.000 N 
ATOM      5  C   UNL     1       1.223   8.578  21.584  0.00  0.00    +0.000 C 
ATOM      6  C   UNL     1      -0.207   9.114  21.537  0.00  0.00    +0.000 C 
ATOM      7  C   UNL     1      -0.336  10.429  20.765  0.00  0.00    +0.000 C 
ATOM      8  N   UNL     1      -0.415  10.256  19.316  0.00  0.00    +0.000 N 
ATOM      9  C   UNL     1       0.492   9.497  18.585  0.00  0.00    +0.000 C 
ATOM     10  O   UNL     1       0.285   9.153  17.420  0.00  0.00    +0.000 OA
ATOM     11  C   UNL     1       1.830   9.196  19.262  0.00  0.00    +0.000 C 
ATOM     12  H   UNL     1       3.333   7.241  18.667  0.00  0.00    +0.000 HD
ENDROOT
BRANCH   8  13
ATOM     13  C   UNL     1      -1.423  11.015  18.580  0.00  0.00    +0.000 C 
ATOM     14  C   UNL     1      -1.149  12.506  18.553  0.00  0.00    +0.000 C 
ENDBRANCH   8  13
BRANCH   1  15
ATOM     15  C   UNL     1       3.103   5.168  18.589  0.00  0.00    +0.000 C 
BRANCH  15  16
ATOM     16  C   UNL     1       2.034   4.329  17.828  0.00  0.00    +0.000 C 
ATOM     17  F   UNL     1       2.534   3.535  16.862  0.00  0.00    +0.000 F 
ATOM     18  F   UNL     1       1.381   3.525  18.713  0.00  0.00    +0.000 F 
ATOM     19  F   UNL     1       1.075   5.109  17.271  0.00  0.00    +0.000 F 
ENDBRANCH  15  16
BRANCH  15  20
ATOM     20  C   UNL     1       4.528   5.128  17.962  0.00  0.00    +0.000 C 
ATOM     21  C   UNL     1       5.640   5.267  19.012  0.00  0.00    +0.000 C 
BRANCH  20  23
ATOM     22  C   UNL     1       5.402   5.673  15.575  0.00  0.00    +0.000 C 
ATOM     23  C   UNL     1       4.727   6.183  16.843  0.00  0.00    +0.000 C 
ENDBRANCH  20  23
ENDBRANCH  15  20
ENDBRANCH   1  15
TORSDOF 5
ENDMDL
MODEL 2
REMARK VINA RESULT:      -6.0      4.681      6.392
REMARK  Name = 
REMARK  8 active torsions:
REMARK  status: ('A' for Active; 'I' for Inactive)
REMARK    1  A    between atoms: C_1  and  C_2
REMARK    2  A    between atoms: C_2  and  C_3
REMARK    3  A    between atoms: C_3  and  C_4
REMARK    4  A    between atoms: C_3  and  C_5
REMARK    5  A    between atoms: C_5  and  N_6
REMARK    6  A    between atoms: C_5  and  C_19
REMARK    7  A    between atoms: N_13  and  C_14
REMARK    8  A    between atoms: C_14  and  C_15
REMARK                            x       y       z     vdW  Elec       q    Type
REMARK                         _______ _______ _______ _____ _____    ______ ____
ROOT
ATOM      1  N   UNL     1       5.053   4.298  16.701  0.00  0.00    +0.000 N 
ATOM      2  C   UNL     1       3.919   4.936  17.125  0.00  0.00    +0.000 C 
ATOM      3  O   UNL     1       3.811   6.157  17.078  0.00  0.00    +0.000 OA
ATOM      4  N   UNL     1       2.910   4.096  17.545  0.00  0.00    +0.000 N 
ATOM      5  C   UNL     1       1.578   4.647  17.791  0.00  0.00    +0.000 C 
ATOM      6  C   UNL     1       1.174   4.665  19.264  0.00  0.00    +0.000 C 
ATOM      7  C   UNL     1       0.988   3.268  19.859  0.00  0.00    +0.000 C 
ATOM      8  N   UNL     1       2.239   2.633  20.270  0.00  0.00    +0.000 N 
ATOM      9  C   UNL     1       3.352   2.527  19.444  0.00  0.00    +0.000 C 
ATOM     10  O   UNL     1       4.468   2.220  19.867  0.00  0.00    +0.000 OA
ATOM     11  C   UNL     1       3.106   2.702  17.944  0.00  0.00    +0.000 C 
ATOM     12  H   UNL     1       4.878   3.404  16.271  0.00  0.00    +0.000 HD
ENDROOT
BRANCH   8  13
ATOM     13  C   UNL     1       2.285   1.966  21.569  0.00  0.00    +0.000 C 
ATOM     14  C   UNL     1       1.129   2.340  22.477  0.00  0.00    +0.000 C 
ENDBRANCH   8  13
BRANCH   1  15
ATOM     15  C   UNL     1       6.165   5.036  16.075  0.00  0.00    +0.000 C 
BRANCH  15  16
ATOM     16  C   UNL     1       7.287   5.434  17.079  0.00  0.00    +0.000 C 
ATOM     17  F   UNL     1       7.892   6.604  16.803  0.00  0.00    +0.000 F 
ATOM     18  F   UNL     1       6.754   5.541  18.328  0.00  0.00    +0.000 F 
ATOM     19  F   UNL     1       8.247   4.481  17.175  0.00  0.00    +0.000 F 
ENDBRANCH  15  16
BRANCH  15  20
ATOM     20  C   UNL     1       6.673   4.366  14.764  0.00  0.00    +0.000 C 
ATOM     21  C   UNL     1       7.601   5.283  13.953  0.00  0.00    +0.000 C 
BRANCH  20  23
ATOM     22  C   UNL     1       5.943   3.364  12.479  0.00  0.00    +0.000 C 
ATOM     23  C   UNL     1       5.522   3.851  13.861  0.00  0.00    +0.000 C 
ENDBRANCH  20  23
ENDBRANCH  15  20
ENDBRANCH   1  15
TORSDOF 5
ENDMDL
MODEL 3
REMARK VINA RESULT:      -5.9      5.235      6.566
REMARK  Name = 
REMARK  8 active torsions:
REMARK  status: ('A' for Active; 'I' for Inactive)
REMARK    1  A    between atoms: C_1  and  C_2
REMARK    2  A    between atoms: C_2  and  C_3
REMARK    3  A    between atoms: C_3  and  C_4
REMARK    4  A    between atoms: C_3  and  C_5
REMARK    5  A    between atoms: C_5  and  N_6
REMARK    6  A    between atoms: C_5  and  C_19
REMARK    7  A    between atoms: N_13  and  C_14
REMARK    8  A    between atoms: C_14  and  C_15
REMARK                            x       y       z     vdW  Elec       q    Type
REMARK                         _______ _______ _______ _____ _____    ______ ____
ROOT
ATOM      1  N   UNL     1       5.836   3.708  16.924  0.00  0.00    +0.000 N 
ATOM      2  C   UNL     1       4.580   4.251  16.974  0.00  0.00    +0.000 C 
ATOM      3  O   UNL     1       4.368   5.415  16.651  0.00  0.00    +0.000 OA
ATOM      4  N   UNL     1       3.589   3.371  17.353  0.00  0.00    +0.000 N 
ATOM      5  C   UNL     1       2.189   3.769  17.212  0.00  0.00    +0.000 C 
ATOM      6  C   UNL     1       1.471   4.002  18.541  0.00  0.00    +0.000 C 
ATOM      7  C   UNL     1       1.294   2.726  19.366  0.00  0.00    +0.000 C 
ATOM      8  N   UNL     1       2.479   2.357  20.139  0.00  0.00    +0.000 N 
ATOM      9  C   UNL     1       3.752   2.255  19.588  0.00  0.00    +0.000 C 
ATOM     10  O   UNL     1       4.771   2.189  20.276  0.00  0.00    +0.000 OA
ATOM     11  C   UNL     1       3.826   2.115  18.066  0.00  0.00    +0.000 C 
ATOM     12  H   UNL     1       5.847   2.735  16.664  0.00  0.00    +0.000 HD
ENDROOT
BRANCH   8  13
ATOM     13  C   UNL     1       2.302   1.953  21.531  0.00  0.00    +0.000 C 
ATOM     14  C   UNL     1       1.229   2.745  22.254  0.00  0.00    +0.000 C 
ENDBRANCH   8  13
BRANCH   1  15
ATOM     15  C   UNL     1       6.981   4.465  16.387  0.00  0.00    +0.000 C 
BRANCH  15  16
ATOM     16  C   UNL     1       6.777   4.938  14.917  0.00  0.00    +0.000 C 
ATOM     17  F   UNL     1       5.901   5.950  14.775  0.00  0.00    +0.000 F 
ATOM     18  F   UNL     1       7.969   5.361  14.412  0.00  0.00    +0.000 F 
ATOM     19  F   UNL     1       6.378   3.925  14.107  0.00  0.00    +0.000 F 
ENDBRANCH  15  16
BRANCH  15  20
ATOM     20  C   UNL     1       7.486   5.571  17.362  0.00  0.00    +0.000 C 
ATOM     21  C   UNL     1       7.130   5.275  18.826  0.00  0.00    +0.000 C 
BRANCH  20  23
ATOM     22  C   UNL     1       7.800   8.144  17.556  0.00  0.00    +0.000 C 
ATOM     23  C   UNL     1       6.992   6.989  16.976  0.00  0.00    +0.000 C 
ENDBRANCH  20  23
ENDBRANCH  15  20
ENDBRANCH   1  15
TORSDOF 5
ENDMDL
MODEL 4
REMARK VINA RESULT:      -5.9      0.950      1.208
REMARK  Name = 
REMARK  8 active torsions:
REMARK  status: ('A' for Active; 'I' for Inactive)
REMARK    1  A    between atoms: C_1  and  C_2
REMARK    2  A    between atoms: C_2  and  C_3
REMARK    3  A    between atoms: C_3  and  C_4
REMARK    4  A    between atoms: C_3  and  C_5
REMARK    5  A    between atoms: C_5  and  N_6
REMARK    6  A    between atoms: C_5  and  C_19
REMARK    7  A    between atoms: N_13  and  C_14
REMARK    8  A    between atoms: C_14  and  C_15
REMARK                            x       y       z     vdW  Elec       q    Type
REMARK                         _______ _______ _______ _____ _____    ______ ____
ROOT
ATOM      1  N   UNL     1       2.511   5.939  19.068  0.00  0.00    +0.000 N 
ATOM      2  C   UNL     1       1.814   6.401  20.152  0.00  0.00    +0.000 C 
ATOM      3  O   UNL     1       1.273   5.636  20.944  0.00  0.00    +0.000 OA
ATOM      4  N   UNL     1       1.828   7.771  20.302  0.00  0.00    +0.000 N 
ATOM      5  C   UNL     1       1.326   8.358  21.543  0.00  0.00    +0.000 C 
ATOM      6  C   UNL     1       0.015   9.127  21.383  0.00  0.00    +0.000 C 
ATOM      7  C   UNL     1       0.154  10.393  20.537  0.00  0.00    +0.000 C 
ATOM      8  N   UNL     1       0.117  10.146  19.097  0.00  0.00    +0.000 N 
ATOM      9  C   UNL     1       0.913   9.200  18.461  0.00  0.00    +0.000 C 
ATOM     10  O   UNL     1       0.706   8.823  17.307  0.00  0.00    +0.000 OA
ATOM     11  C   UNL     1       2.144   8.717  19.231  0.00  0.00    +0.000 C 
ATOM     12  H   UNL     1       3.312   6.501  18.831  0.00  0.00    +0.000 HD
ENDROOT
BRANCH   8  13
ATOM     13  C   UNL     1      -0.706  11.018  18.264  0.00  0.00    +0.000 C 
ATOM     14  C   UNL     1      -2.163  10.598  18.210  0.00  0.00    +0.000 C 
ENDBRANCH   8  13
BRANCH   1  15
ATOM     15  C   UNL     1       2.729   4.497  18.850  0.00  0.00    +0.000 C 
BRANCH  15  16
ATOM     16  C   UNL     1       1.839   3.901  17.718  0.00  0.00    +0.000 C 
ATOM     17  F   UNL     1       2.527   3.355  16.699  0.00  0.00    +0.000 F 
ATOM     18  F   UNL     1       1.046   2.924  18.239  0.00  0.00    +0.000 F 
ATOM     19  F   UNL     1       0.988   4.822  17.201  0.00  0.00    +0.000 F 
ENDBRANCH  15  16
BRANCH  15  20
ATOM     20  C   UNL     1       4.238   4.121  18.757  0.00  0.00    +0.000 C 
ATOM     21  C   UNL     1       4.580   2.852  19.551  0.00  0.00    +0.000 C 
BRANCH  20  23
ATOM     22  C   UNL     1       6.095   5.813  18.089  0.00  0.00    +0.000 C 
ATOM     23  C   UNL     1       5.178   5.278  19.183  0.00  0.00    +0.000 C 
ENDBRANCH  20  23
ENDBRANCH  15  20
ENDBRANCH   1  15
TORSDOF 5
ENDMDL
MODEL 5
REMARK VINA RESULT:      -5.8      0.857      1.336
REMARK  Name = 
REMARK  8 active torsions:
REMARK  status: ('A' for Active; 'I' for Inactive)
REMARK    1  A    between atoms: C_1  and  C_2
REMARK    2  A    between atoms: C_2  and  C_3
REMARK    3  A    between atoms: C_3  and  C_4
REMARK    4  A    between atoms: C_3  and  C_5
REMARK    5  A    between atoms: C_5  and  N_6
REMARK    6  A    between atoms: C_5  and  C_19
REMARK    7  A    between atoms: N_13  and  C_14
REMARK    8  A    between atoms: C_14  and  C_15
REMARK                            x       y       z     vdW  Elec       q    Type
REMARK                         _______ _______ _______ _____ _____    ______ ____
ROOT
ATOM      1  N   UNL     1       2.461   6.147  19.003  0.00  0.00    +0.000 N 
ATOM      2  C   UNL     1       1.799   6.581  20.120  0.00  0.00    +0.000 C 
ATOM      3  O   UNL     1       1.317   5.794  20.929  0.00  0.00    +0.000 OA
ATOM      4  N   UNL     1       1.778   7.950  20.280  0.00  0.00    +0.000 N 
ATOM      5  C   UNL     1       1.314   8.513  21.547  0.00  0.00    +0.000 C 
ATOM      6  C   UNL     1      -0.025   9.242  21.451  0.00  0.00    +0.000 C 
ATOM      7  C   UNL     1       0.038  10.518  20.610  0.00  0.00    +0.000 C 
ATOM      8  N   UNL     1      -0.056  10.279  19.171  0.00  0.00    +0.000 N 
ATOM      9  C   UNL     1       0.739   9.362  18.493  0.00  0.00    +0.000 C 
ATOM     10  O   UNL     1       0.494   8.987  17.346  0.00  0.00    +0.000 OA
ATOM     11  C   UNL     1       2.018   8.912  19.204  0.00  0.00    +0.000 C 
ATOM     12  H   UNL     1       3.233   6.736  18.735  0.00  0.00    +0.000 HD
ENDROOT
BRANCH   8  13
ATOM     13  C   UNL     1      -0.941  11.131  18.382  0.00  0.00    +0.000 C 
ATOM     14  C   UNL     1      -0.808  12.605  18.712  0.00  0.00    +0.000 C 
ENDBRANCH   8  13
BRANCH   1  15
ATOM     15  C   UNL     1       2.713   4.715  18.764  0.00  0.00    +0.000 C 
BRANCH  15  16
ATOM     16  C   UNL     1       1.685   4.059  17.794  0.00  0.00    +0.000 C 
ATOM     17  F   UNL     1       0.884   4.934  17.158  0.00  0.00    +0.000 F 
ATOM     18  F   UNL     1       2.354   3.356  16.839  0.00  0.00    +0.000 F 
ATOM     19  F   UNL     1       0.895   3.154  18.425  0.00  0.00    +0.000 F 
ENDBRANCH  15  16
BRANCH  15  20
ATOM     20  C   UNL     1       4.204   4.410  18.433  0.00  0.00    +0.000 C 
ATOM     21  C   UNL     1       4.787   3.291  19.308  0.00  0.00    +0.000 C 
BRANCH  20  23
ATOM     22  C   UNL     1       6.482   5.445  19.140  0.00  0.00    +0.000 C 
ATOM     23  C   UNL     1       5.111   5.666  18.511  0.00  0.00    +0.000 C 
ENDBRANCH  20  23
ENDBRANCH  15  20
ENDBRANCH   1  15
TORSDOF 5
ENDMDL
MODEL 6
REMARK VINA RESULT:      -5.8      4.003      5.802
REMARK  Name = 
REMARK  8 active torsions:
REMARK  status: ('A' for Active; 'I' for Inactive)
REMARK    1  A    between atoms: C_1  and  C_2
REMARK    2  A    between atoms: C_2  and  C_3
REMARK    3  A    between atoms: C_3  and  C_4
REMARK    4  A    between atoms: C_3  and  C_5
REMARK    5  A    between atoms: C_5  and  N_6
REMARK    6  A    between atoms: C_5  and  C_19
REMARK    7  A    between atoms: N_13  and  C_14
REMARK    8  A    between atoms: C_14  and  C_15
REMARK                            x       y       z     vdW  Elec       q    Type
REMARK                         _______ _______ _______ _____ _____    ______ ____
ROOT
ATOM      1  N   UNL     1       4.948   4.902  16.719  0.00  0.00    +0.000 N 
ATOM      2  C   UNL     1       4.379   5.770  17.612  0.00  0.00    +0.000 C 
ATOM      3  O   UNL     1       5.002   6.721  18.073  0.00  0.00    +0.000 OA
ATOM      4  N   UNL     1       3.053   5.518  17.892  0.00  0.00    +0.000 N 
ATOM      5  C   UNL     1       2.280   6.510  18.638  0.00  0.00    +0.000 C 
ATOM      6  C   UNL     1       1.900   6.069  20.051  0.00  0.00    +0.000 C 
ATOM      7  C   UNL     1       0.913   4.901  20.077  0.00  0.00    +0.000 C 
ATOM      8  N   UNL     1       1.543   3.594  19.901  0.00  0.00    +0.000 N 
ATOM      9  C   UNL     1       2.422   3.300  18.865  0.00  0.00    +0.000 C 
ATOM     10  O   UNL     1       3.133   2.294  18.860  0.00  0.00    +0.000 OA
ATOM     11  C   UNL     1       2.386   4.237  17.656  0.00  0.00    +0.000 C 
ATOM     12  H   UNL     1       4.305   4.553  16.027  0.00  0.00    +0.000 HD
ENDROOT
BRANCH   8  13
ATOM     13  C   UNL     1       1.139   2.504  20.785  0.00  0.00    +0.000 C 
ATOM     14  C   UNL     1       1.819   2.546  22.140  0.00  0.00    +0.000 C 
ENDBRANCH   8  13
BRANCH   1  15
ATOM     15  C   UNL     1       6.307   5.121  16.191  0.00  0.00    +0.000 C 
BRANCH  15  16
ATOM     16  C   UNL     1       7.425   4.924  17.258  0.00  0.00    +0.000 C 
ATOM     17  F   UNL     1       8.432   4.122  16.868  0.00  0.00    +0.000 F 
ATOM     18  F   UNL     1       7.969   6.134  17.566  0.00  0.00    +0.000 F 
ATOM     19  F   UNL     1       6.934   4.440  18.426  0.00  0.00    +0.000 F 
ENDBRANCH  15  16
BRANCH  15  20
ATOM     20  C   UNL     1       6.558   4.383  14.843  0.00  0.00    +0.000 C 
ATOM     21  C   UNL     1       7.513   5.151  13.917  0.00  0.00    +0.000 C 
BRANCH  20  23
ATOM     22  C   UNL     1       5.429   3.549  12.654  0.00  0.00    +0.000 C 
ATOM     23  C   UNL     1       5.248   4.045  14.084  0.00  0.00    +0.000 C 
ENDBRANCH  20  23
ENDBRANCH  15  20
ENDBRANCH   1  15
TORSDOF 5
ENDMDL
MODEL 7
REMARK VINA RESULT:      -5.7      0.725      1.065
REMARK  Name = 
REMARK  8 active torsions:
REMARK  status: ('A' for Active; 'I' for Inactive)
REMARK    1  A    between atoms: C_1  and  C_2
REMARK    2  A    between atoms: C_2  and  C_3
REMARK    3  A    between atoms: C_3  and  C_4
REMARK    4  A    between atoms: C_3  and  C_5
REMARK    5  A    between atoms: C_5  and  N_6
REMARK    6  A    between atoms: C_5  and  C_19
REMARK    7  A    between atoms: N_13  and  C_14
REMARK    8  A    between atoms: C_14  and  C_15
REMARK                            x       y       z     vdW  Elec       q    Type
REMARK                         _______ _______ _______ _____ _____    ______ ____
ROOT
ATOM      1  N   UNL     1       2.947   6.886  18.943  0.00  0.00    +0.000 N 
ATOM      2  C   UNL     1       2.155   7.010  20.053  0.00  0.00    +0.000 C 
ATOM      3  O   UNL     1       1.870   6.043  20.752  0.00  0.00    +0.000 OA
ATOM      4  N   UNL     1       1.766   8.301  20.339  0.00  0.00    +0.000 N 
ATOM      5  C   UNL     1       1.124   8.585  21.622  0.00  0.00    +0.000 C 
ATOM      6  C   UNL     1      -0.356   8.946  21.512  0.00  0.00    +0.000 C 
ATOM      7  C   UNL     1      -0.604  10.277  20.799  0.00  0.00    +0.000 C 
ATOM      8  N   UNL     1      -0.580  10.178  19.341  0.00  0.00    +0.000 N 
ATOM      9  C   UNL     1       0.454   9.578  18.631  0.00  0.00    +0.000 C 
ATOM     10  O   UNL     1       0.357   9.277  17.441  0.00  0.00    +0.000 OA
ATOM     11  C   UNL     1       1.779   9.403  19.376  0.00  0.00    +0.000 C 
ATOM     12  H   UNL     1       3.545   7.681  18.781  0.00  0.00    +0.000 HD
ENDROOT
BRANCH   8  13
ATOM     13  C   UNL     1      -1.631  10.850  18.582  0.00  0.00    +0.000 C 
ATOM     14  C   UNL     1      -1.306  12.295  18.257  0.00  0.00    +0.000 C 
ENDBRANCH   8  13
BRANCH   1  15
ATOM     15  C   UNL     1       3.579   5.603  18.587  0.00  0.00    +0.000 C 
BRANCH  15  16
ATOM     16  C   UNL     1       2.614   4.620  17.857  0.00  0.00    +0.000 C 
ATOM     17  F   UNL     1       3.163   3.976  16.811  0.00  0.00    +0.000 F 
ATOM     18  F   UNL     1       2.190   3.672  18.738  0.00  0.00    +0.000 F 
ATOM     19  F   UNL     1       1.489   5.240  17.421  0.00  0.00    +0.000 F 
ENDBRANCH  15  16
BRANCH  15  20
ATOM     20  C   UNL     1       4.966   5.781  17.901  0.00  0.00    +0.000 C 
ATOM     21  C   UNL     1       4.855   6.361  16.484  0.00  0.00    +0.000 C 
BRANCH  20  23
ATOM     22  C   UNL     1       7.238   4.625  17.394  0.00  0.00    +0.000 C 
ATOM     23  C   UNL     1       5.798   4.473  17.871  0.00  0.00    +0.000 C 
ENDBRANCH  20  23
ENDBRANCH  15  20
ENDBRANCH   1  15
TORSDOF 5
ENDMDL
MODEL 8
REMARK VINA RESULT:      -5.6      0.811      1.424
REMARK  Name = 
REMARK  8 active torsions:
REMARK  status: ('A' for Active; 'I' for Inactive)
REMARK    1  A    between atoms: C_1  and  C_2
REMARK    2  A    between atoms: C_2  and  C_3
REMARK    3  A    between atoms: C_3  and  C_4
REMARK    4  A    between atoms: C_3  and  C_5
REMARK    5  A    between atoms: C_5  and  N_6
REMARK    6  A    between atoms: C_5  and  C_19
REMARK    7  A    between atoms: N_13  and  C_14
REMARK    8  A    between atoms: C_14  and  C_15
REMARK                            x       y       z     vdW  Elec       q    Type
REMARK                         _______ _______ _______ _____ _____    ______ ____
ROOT
ATOM      1  N   UNL     1       2.487   6.628  19.117  0.00  0.00    +0.000 N 
ATOM      2  C   UNL     1       1.806   6.910  20.270  0.00  0.00    +0.000 C 
ATOM      3  O   UNL     1       1.437   6.024  21.034  0.00  0.00    +0.000 OA
ATOM      4  N   UNL     1       1.630   8.255  20.519  0.00  0.00    +0.000 N 
ATOM      5  C   UNL     1       1.134   8.680  21.826  0.00  0.00    +0.000 C 
ATOM      6  C   UNL     1      -0.282   9.251  21.800  0.00  0.00    +0.000 C 
ATOM      7  C   UNL     1      -0.388  10.576  21.041  0.00  0.00    +0.000 C 
ATOM      8  N   UNL     1      -0.487  10.417  19.592  0.00  0.00    +0.000 N 
ATOM      9  C   UNL     1       0.393   9.644  18.843  0.00  0.00    +0.000 C 
ATOM     10  O   UNL     1       0.165   9.315  17.678  0.00  0.00    +0.000 OA
ATOM     11  C   UNL     1       1.731   9.304  19.503  0.00  0.00    +0.000 C 
ATOM     12  H   UNL     1       3.179   7.318  18.875  0.00  0.00    +0.000 HD
ENDROOT
BRANCH   8  13
ATOM     13  C   UNL     1      -1.483  11.207  18.873  0.00  0.00    +0.000 C 
ATOM     14  C   UNL     1      -2.158  12.254  19.739  0.00  0.00    +0.000 C 
ENDBRANCH   8  13
BRANCH   1  15
ATOM     15  C   UNL     1       2.898   5.252  18.782  0.00  0.00    +0.000 C 
BRANCH  15  16
ATOM     16  C   UNL     1       1.867   4.499  17.888  0.00  0.00    +0.000 C 
ATOM     17  F   UNL     1       2.416   3.642  17.008  0.00  0.00    +0.000 F 
ATOM     18  F   UNL     1       1.027   3.780  18.682  0.00  0.00    +0.000 F 
ATOM     19  F   UNL     1       1.072   5.353  17.197  0.00  0.00    +0.000 F 
ENDBRANCH  15  16
BRANCH  15  20
ATOM     20  C   UNL     1       4.373   5.164  18.289  0.00  0.00    +0.000 C 
ATOM     21  C   UNL     1       4.517   5.484  16.794  0.00  0.00    +0.000 C 
BRANCH  20  23
ATOM     22  C   UNL     1       4.366   2.982  19.702  0.00  0.00    +0.000 C 
ATOM     23  C   UNL     1       5.035   3.797  18.601  0.00  0.00    +0.000 C 
ENDBRANCH  20  23
ENDBRANCH  15  20
ENDBRANCH   1  15
TORSDOF 5
ENDMDL
MODEL 9
REMARK VINA RESULT:      -5.5      4.327      6.226
REMARK  Name = 
REMARK  8 active torsions:
REMARK  status: ('A' for Active; 'I' for Inactive)
REMARK    1  A    between atoms: C_1  and  C_2
REMARK    2  A    between atoms: C_2  and  C_3
REMARK    3  A    between atoms: C_3  and  C_4
REMARK    4  A    between atoms: C_3  and  C_5
REMARK    5  A    between atoms: C_5  and  N_6
REMARK    6  A    between atoms: C_5  and  C_19
REMARK    7  A    between atoms: N_13  and  C_14
REMARK    8  A    between atoms: C_14  and  C_15
REMARK                            x       y       z     vdW  Elec       q    Type
REMARK                         _______ _______ _______ _____ _____    ______ ____
ROOT
ATOM      1  N   UNL     1       4.900   4.631  16.000  0.00  0.00    +0.000 N 
ATOM      2  C   UNL     1       4.355   5.597  16.801  0.00  0.00    +0.000 C 
ATOM      3  O   UNL     1       4.825   6.729  16.858  0.00  0.00    +0.000 OA
ATOM      4  N   UNL     1       3.218   5.208  17.477  0.00  0.00    +0.000 N 
ATOM      5  C   UNL     1       2.418   6.218  18.168  0.00  0.00    +0.000 C 
ATOM      6  C   UNL     1       2.469   6.116  19.692  0.00  0.00    +0.000 C 
ATOM      7  C   UNL     1       1.810   4.848  20.237  0.00  0.00    +0.000 C 
ATOM      8  N   UNL     1       2.673   3.669  20.188  0.00  0.00    +0.000 N 
ATOM      9  C   UNL     1       3.347   3.260  19.043  0.00  0.00    +0.000 C 
ATOM     10  O   UNL     1       4.254   2.427  19.067  0.00  0.00    +0.000 OA
ATOM     11  C   UNL     1       2.832   3.817  17.715  0.00  0.00    +0.000 C 
ATOM     12  H   UNL     1       4.221   4.004  15.601  0.00  0.00    +0.000 HD
ENDROOT
BRANCH   8  13
ATOM     13  C   UNL     1       2.735   2.806  21.364  0.00  0.00    +0.000 C 
ATOM     14  C   UNL     1       1.370   2.451  21.922  0.00  0.00    +0.000 C 
ENDBRANCH   8  13
BRANCH   1  15
ATOM     15  C   UNL     1       6.022   4.927  15.090  0.00  0.00    +0.000 C 
BRANCH  15  16
ATOM     16  C   UNL     1       7.379   5.131  15.828  0.00  0.00    +0.000 C 
ATOM     17  F   UNL     1       7.471   6.285  16.515  0.00  0.00    +0.000 F 
ATOM     18  F   UNL     1       7.563   4.116  16.717  0.00  0.00    +0.000 F 
ATOM     19  F   UNL     1       8.435   5.066  14.979  0.00  0.00    +0.000 F 
ENDBRANCH  15  16
BRANCH  15  20
ATOM     20  C   UNL     1       6.083   3.960  13.871  0.00  0.00    +0.000 C 
ATOM     21  C   UNL     1       7.022   4.463  12.764  0.00  0.00    +0.000 C 
BRANCH  20  23
ATOM     22  C   UNL     1       4.670   3.309  11.788  0.00  0.00    +0.000 C 
ATOM     23  C   UNL     1       4.686   3.648  13.274  0.00  0.00    +0.000 C 
ENDBRANCH  20  23
ENDBRANCH  15  20
ENDBRANCH   1  15
TORSDOF 5
ENDMDL
