MODEL 1
REMARK VINA RESULT:      -7.7      0.000      0.000
REMARK  Name = 
REMARK  7 active torsions:
REMARK  status: ('A' for Active; 'I' for Inactive)
REMARK    1  A    between atoms: C_1  and  C_2
REMARK    2  A    between atoms: C_4  and  C_5
REMARK    3  A    between atoms: C_10  and  C_11
REMARK    4  A    between atoms: C_14  and  C_15
REMARK    5  A    between atoms: C_21  and  C_22
REMARK    6  A    between atoms: C_24  and  N_25
REMARK    7  A    between atoms: C_31  and  C_32
REMARK                            x       y       z     vdW  Elec       q    Type
REMARK                         _______ _______ _______ _____ _____    ______ ____
ROOT
ATOM      1  C   UNL     1      -0.487  10.978  21.206  0.00  0.00    +0.000 C 
ATOM      2  O   UNL     1      -1.466  11.285  21.890  0.00  0.00    +0.000 OA
ATOM      3  N   UNL     1      -0.109   9.652  21.048  0.00  0.00    +0.000 N 
ATOM      4  C   UNL     1      -0.791   8.515  21.657  0.00  0.00    +0.000 C 
ATOM      5  C   UNL     1       0.575   7.937  21.986  0.00  0.00    +0.000 C 
ATOM      6  C   UNL     1       1.231   9.053  21.149  0.00  0.00    +0.000 C 
ENDROOT
BRANCH   1  10
ATOM      7  C   UNL     1       3.333  14.098  20.841  0.00  0.00    +0.000 C 
ATOM      8  C   UNL     1       2.174  13.438  20.149  0.00  0.00    +0.000 A 
ATOM      9  C   UNL     1       1.311  12.632  20.895  0.00  0.00    +0.000 A 
ATOM     10  C   UNL     1       0.170  12.011  20.349  0.00  0.00    +0.000 A 
ATOM     11  C   UNL     1      -0.055  12.164  18.974  0.00  0.00    +0.000 A 
ATOM     12  C   UNL     1       0.857  12.919  18.193  0.00  0.00    +0.000 A 
ATOM     13  C   UNL     1       1.966  13.563  18.766  0.00  0.00    +0.000 A 
ATOM     14  C   UNL     1       2.908  14.350  17.906  0.00  0.00    +0.000 C 
BRANCH  11  15
ATOM     15  N   UNL     1      -1.186  11.615  18.312  0.00  0.00    +0.000 N 
ATOM     16  N   UNL     1      -1.150  10.448  17.609  0.00  0.00    +0.000 NA
ATOM     17  C   UNL     1      -2.401  10.352  17.161  0.00  0.00    +0.000 A 
ATOM     18  C   UNL     1      -3.182  11.375  17.699  0.00  0.00    +0.000 A 
ATOM     19  N   UNL     1      -2.438  12.135  18.496  0.00  0.00    +0.000 NA
ENDBRANCH  11  15
ENDBRANCH   1  10
BRANCH   6  20
ATOM     20  C   UNL     1       1.811   8.507  19.839  0.00  0.00    +0.000 A 
ATOM     21  N   UNL     1       1.511   9.025  18.639  0.00  0.00    +0.000 NA
ATOM     22  O   UNL     1       2.141   8.152  17.745  0.00  0.00    +0.000 OA
ATOM     23  C   UNL     1       2.749   7.188  18.500  0.00  0.00    +0.000 A 
ATOM     24  N   UNL     1       2.641   7.413  19.789  0.00  0.00    +0.000 NA
BRANCH  23  25
ATOM     25  C   UNL     1       3.353   6.059  17.796  0.00  0.00    +0.000 A 
ATOM     26  C   UNL     1       4.513   6.262  17.016  0.00  0.00    +0.000 A 
ATOM     27  C   UNL     1       5.111   5.210  16.318  0.00  0.00    +0.000 A 
ATOM     28  C   UNL     1       4.559   3.938  16.389  0.00  0.00    +0.000 A 
ATOM     29  C   UNL     1       3.402   3.731  17.132  0.00  0.00    +0.000 A 
ATOM     30  F   UNL     1       2.887   2.492  17.173  0.00  0.00    +0.000 F 
ATOM     31  C   UNL     1       2.774   4.771  17.830  0.00  0.00    +0.000 A 
ATOM     32  C   UNL     1       1.503   4.483  18.585  0.00  0.00    +0.000 C 
ENDBRANCH  23  25
ENDBRANCH   6  20
TORSDOF 4
ENDMDL
MODEL 2
REMARK VINA RESULT:      -7.6      7.390     10.915
REMARK  Name = 
REMARK  7 active torsions:
REMARK  status: ('A' for Active; 'I' for Inactive)
REMARK    1  A    between atoms: C_1  and  C_2
REMARK    2  A    between atoms: C_4  and  C_5
REMARK    3  A    between atoms: C_10  and  C_11
REMARK    4  A    between atoms: C_14  and  C_15
REMARK    5  A    between atoms: C_21  and  C_22
REMARK    6  A    between atoms: C_24  and  N_25
REMARK    7  A    between atoms: C_31  and  C_32
REMARK                            x       y       z     vdW  Elec       q    Type
REMARK                         _______ _______ _______ _____ _____    ______ ____
ROOT
ATOM      1  C   UNL     1      11.223  14.558  19.395  0.00  0.00    +0.000 C 
ATOM      2  O   UNL     1      12.271  13.971  19.113  0.00  0.00    +0.000 OA
ATOM      3  N   UNL     1      10.552  15.323  18.451  0.00  0.00    +0.000 N 
ATOM      4  C   UNL     1      10.996  15.523  17.076  0.00  0.00    +0.000 C 
ATOM      5  C   UNL     1      10.624  16.989  17.225  0.00  0.00    +0.000 C 
ATOM      6  C   UNL     1       9.982  16.672  18.589  0.00  0.00    +0.000 C 
ENDROOT
BRANCH   1  10
ATOM      7  C   UNL     1      10.036  16.367  23.842  0.00  0.00    +0.000 C 
ATOM      8  C   UNL     1       9.841  15.269  22.835  0.00  0.00    +0.000 A 
ATOM      9  C   UNL     1      10.611  15.275  21.671  0.00  0.00    +0.000 A 
ATOM     10  C   UNL     1      10.538  14.265  20.691  0.00  0.00    +0.000 A 
ATOM     11  C   UNL     1       9.589  13.250  20.877  0.00  0.00    +0.000 A 
ATOM     12  C   UNL     1       8.749  13.276  22.020  0.00  0.00    +0.000 A 
ATOM     13  C   UNL     1       8.869  14.271  23.005  0.00  0.00    +0.000 A 
ATOM     14  C   UNL     1       7.959  14.264  24.196  0.00  0.00    +0.000 C 
BRANCH  11  15
ATOM     15  N   UNL     1       9.439  12.160  19.979  0.00  0.00    +0.000 N 
ATOM     16  N   UNL     1       9.501  10.855  20.365  0.00  0.00    +0.000 NA
ATOM     17  C   UNL     1       9.332  10.212  19.211  0.00  0.00    +0.000 A 
ATOM     18  C   UNL     1       9.050  11.122  18.193  0.00  0.00    +0.000 A 
ATOM     19  N   UNL     1       9.035  12.356  18.686  0.00  0.00    +0.000 NA
ENDBRANCH  11  15
ENDBRANCH   1  10
BRANCH   6  20
ATOM     20  C   UNL     1       8.452  16.753  18.523  0.00  0.00    +0.000 A 
ATOM     21  N   UNL     1       7.784  17.915  18.540  0.00  0.00    +0.000 NA
ATOM     22  O   UNL     1       6.445  17.516  18.598  0.00  0.00    +0.000 OA
ATOM     23  C   UNL     1       6.443  16.149  18.622  0.00  0.00    +0.000 A 
ATOM     24  N   UNL     1       7.647  15.640  18.495  0.00  0.00    +0.000 NA
BRANCH  23  25
ATOM     25  C   UNL     1       5.163  15.478  18.838  0.00  0.00    +0.000 A 
ATOM     26  C   UNL     1       4.272  15.309  17.756  0.00  0.00    +0.000 A 
ATOM     27  C   UNL     1       3.034  14.684  17.928  0.00  0.00    +0.000 A 
ATOM     28  C   UNL     1       2.668  14.219  19.184  0.00  0.00    +0.000 A 
ATOM     29  C   UNL     1       3.525  14.404  20.262  0.00  0.00    +0.000 A 
ATOM     30  F   UNL     1       3.138  13.952  21.465  0.00  0.00    +0.000 F 
ATOM     31  C   UNL     1       4.766  15.039  20.121  0.00  0.00    +0.000 A 
ATOM     32  C   UNL     1       5.629  15.238  21.339  0.00  0.00    +0.000 C 
ENDBRANCH  23  25
ENDBRANCH   6  20
TORSDOF 4
ENDMDL
MODEL 3
REMARK VINA RESULT:      -7.6      0.750      1.389
REMARK  Name = 
REMARK  7 active torsions:
REMARK  status: ('A' for Active; 'I' for Inactive)
REMARK    1  A    between atoms: C_1  and  C_2
REMARK    2  A    between atoms: C_4  and  C_5
REMARK    3  A    between atoms: C_10  and  C_11
REMARK    4  A    between atoms: C_14  and  C_15
REMARK    5  A    between atoms: C_21  and  C_22
REMARK    6  A    between atoms: C_24  and  N_25
REMARK    7  A    between atoms: C_31  and  C_32
REMARK                            x       y       z     vdW  Elec       q    Type
REMARK                         _______ _______ _______ _____ _____    ______ ____
ROOT
ATOM      1  C   UNL     1      -0.461  11.194  21.348  0.00  0.00    +0.000 C 
ATOM      2  O   UNL     1      -1.412  11.579  22.032  0.00  0.00    +0.000 OA
ATOM      3  N   UNL     1      -0.139   9.846  21.259  0.00  0.00    +0.000 N 
ATOM      4  C   UNL     1      -0.852   8.775  21.947  0.00  0.00    +0.000 C 
ATOM      5  C   UNL     1       0.498   8.162  22.281  0.00  0.00    +0.000 C 
ATOM      6  C   UNL     1       1.178   9.201  21.368  0.00  0.00    +0.000 C 
ENDROOT
BRANCH   1  10
ATOM      7  C   UNL     1       3.418  14.207  20.766  0.00  0.00    +0.000 C 
ATOM      8  C   UNL     1       2.247  13.520  20.121  0.00  0.00    +0.000 A 
ATOM      9  C   UNL     1       1.369  12.787  20.921  0.00  0.00    +0.000 A 
ATOM     10  C   UNL     1       0.216  12.149  20.419  0.00  0.00    +0.000 A 
ATOM     11  C   UNL     1      -0.004  12.204  19.036  0.00  0.00    +0.000 A 
ATOM     12  C   UNL     1       0.924  12.883  18.205  0.00  0.00    +0.000 A 
ATOM     13  C   UNL     1       2.044  13.547  18.732  0.00  0.00    +0.000 A 
ATOM     14  C   UNL     1       3.002  14.250  17.819  0.00  0.00    +0.000 C 
BRANCH  11  15
ATOM     15  N   UNL     1      -1.143  11.629  18.413  0.00  0.00    +0.000 N 
ATOM     16  N   UNL     1      -1.126  10.418  17.788  0.00  0.00    +0.000 NA
ATOM     17  C   UNL     1      -2.378  10.311  17.348  0.00  0.00    +0.000 A 
ATOM     18  C   UNL     1      -3.144  11.378  17.819  0.00  0.00    +0.000 A 
ATOM     19  N   UNL     1      -2.388  12.178  18.563  0.00  0.00    +0.000 NA
ENDBRANCH  11  15
ENDBRANCH   1  10
BRANCH   6  20
ATOM     20  C   UNL     1       1.707   8.557  20.080  0.00  0.00    +0.000 A 
ATOM     21  N   UNL     1       1.587   9.135  18.876  0.00  0.00    +0.000 NA
ATOM     22  O   UNL     1       2.074   8.159  18.001  0.00  0.00    +0.000 OA
ATOM     23  C   UNL     1       2.428   7.084  18.769  0.00  0.00    +0.000 A 
ATOM     24  N   UNL     1       2.297   7.317  20.054  0.00  0.00    +0.000 NA
BRANCH  23  25
ATOM     25  C   UNL     1       2.828   5.861  18.076  0.00  0.00    +0.000 A 
ATOM     26  C   UNL     1       1.983   4.731  18.111  0.00  0.00    +0.000 A 
ATOM     27  C   UNL     1       2.338   3.540  17.472  0.00  0.00    +0.000 A 
ATOM     28  C   UNL     1       3.544   3.462  16.788  0.00  0.00    +0.000 A 
ATOM     29  C   UNL     1       4.397   4.560  16.769  0.00  0.00    +0.000 A 
ATOM     30  F   UNL     1       5.560   4.449  16.108  0.00  0.00    +0.000 F 
ATOM     31  C   UNL     1       4.072   5.761  17.413  0.00  0.00    +0.000 A 
ATOM     32  C   UNL     1       5.059   6.898  17.383  0.00  0.00    +0.000 C 
ENDBRANCH  23  25
ENDBRANCH   6  20
TORSDOF 4
ENDMDL
MODEL 4
REMARK VINA RESULT:      -7.4      4.617      8.100
REMARK  Name = 
REMARK  7 active torsions:
REMARK  status: ('A' for Active; 'I' for Inactive)
REMARK    1  A    between atoms: C_1  and  C_2
REMARK    2  A    between atoms: C_4  and  C_5
REMARK    3  A    between atoms: C_10  and  C_11
REMARK    4  A    between atoms: C_14  and  C_15
REMARK    5  A    between atoms: C_21  and  C_22
REMARK    6  A    between atoms: C_24  and  N_25
REMARK    7  A    between atoms: C_31  and  C_32
REMARK                            x       y       z     vdW  Elec       q    Type
REMARK                         _______ _______ _______ _____ _____    ______ ____
ROOT
ATOM      1  C   UNL     1       0.689  10.794  18.436  0.00  0.00    +0.000 C 
ATOM      2  O   UNL     1       1.192   9.791  17.925  0.00  0.00    +0.000 OA
ATOM      3  N   UNL     1      -0.688  10.935  18.534  0.00  0.00    +0.000 N 
ATOM      4  C   UNL     1      -1.660   9.959  18.054  0.00  0.00    +0.000 C 
ATOM      5  C   UNL     1      -2.474  11.119  17.503  0.00  0.00    +0.000 C 
ATOM      6  C   UNL     1      -1.524  12.103  18.213  0.00  0.00    +0.000 C 
ENDROOT
BRANCH   1  10
ATOM      7  C   UNL     1       3.760  14.639  17.940  0.00  0.00    +0.000 C 
ATOM      8  C   UNL     1       2.961  13.777  18.875  0.00  0.00    +0.000 A 
ATOM      9  C   UNL     1       2.291  12.664  18.363  0.00  0.00    +0.000 A 
ATOM     10  C   UNL     1       1.558  11.767  19.166  0.00  0.00    +0.000 A 
ATOM     11  C   UNL     1       1.448  12.062  20.532  0.00  0.00    +0.000 A 
ATOM     12  C   UNL     1       2.062  13.231  21.048  0.00  0.00    +0.000 A 
ATOM     13  C   UNL     1       2.823  14.089  20.237  0.00  0.00    +0.000 A 
ATOM     14  C   UNL     1       3.454  15.317  20.822  0.00  0.00    +0.000 C 
BRANCH  11  15
ATOM     15  N   UNL     1       0.763  11.221  21.449  0.00  0.00    +0.000 N 
ATOM     16  N   UNL     1       1.198   9.977  21.795  0.00  0.00    +0.000 NA
ATOM     17  C   UNL     1       0.250   9.573  22.639  0.00  0.00    +0.000 A 
ATOM     18  C   UNL     1      -0.650  10.610  22.880  0.00  0.00    +0.000 A 
ATOM     19  N   UNL     1      -0.287  11.688  22.192  0.00  0.00    +0.000 NA
ENDBRANCH  11  15
ENDBRANCH   1  10
BRANCH   6  20
ATOM     20  C   UNL     1      -2.205  12.778  19.410  0.00  0.00    +0.000 A 
ATOM     21  N   UNL     1      -1.758  13.920  19.952  0.00  0.00    +0.000 NA
ATOM     22  O   UNL     1      -2.579  14.089  21.071  0.00  0.00    +0.000 OA
ATOM     23  C   UNL     1      -3.433  13.021  21.096  0.00  0.00    +0.000 A 
ATOM     24  N   UNL     1      -3.292  12.237  20.052  0.00  0.00    +0.000 NA
BRANCH  23  25
ATOM     25  C   UNL     1      -4.302  12.877  22.262  0.00  0.00    +0.000 A 
ATOM     26  C   UNL     1      -3.738  12.565  23.519  0.00  0.00    +0.000 A 
ATOM     27  C   UNL     1      -4.539  12.407  24.653  0.00  0.00    +0.000 A 
ATOM     28  C   UNL     1      -5.915  12.558  24.549  0.00  0.00    +0.000 A 
ATOM     29  C   UNL     1      -6.484  12.839  23.311  0.00  0.00    +0.000 A 
ATOM     30  F   UNL     1      -7.818  12.970  23.241  0.00  0.00    +0.000 F 
ATOM     31  C   UNL     1      -5.707  12.989  22.156  0.00  0.00    +0.000 A 
ATOM     32  C   UNL     1      -6.392  13.257  20.842  0.00  0.00    +0.000 C 
ENDBRANCH  23  25
ENDBRANCH   6  20
TORSDOF 4
ENDMDL
MODEL 5
REMARK VINA RESULT:      -7.4      4.407      8.105
REMARK  Name = 
REMARK  7 active torsions:
REMARK  status: ('A' for Active; 'I' for Inactive)
REMARK    1  A    between atoms: C_1  and  C_2
REMARK    2  A    between atoms: C_4  and  C_5
REMARK    3  A    between atoms: C_10  and  C_11
REMARK    4  A    between atoms: C_14  and  C_15
REMARK    5  A    between atoms: C_21  and  C_22
REMARK    6  A    between atoms: C_24  and  N_25
REMARK    7  A    between atoms: C_31  and  C_32
REMARK                            x       y       z     vdW  Elec       q    Type
REMARK                         _______ _______ _______ _____ _____    ______ ____
ROOT
ATOM      1  C   UNL     1       0.269  11.098  21.379  0.00  0.00    +0.000 C 
ATOM      2  O   UNL     1       1.154  10.609  22.084  0.00  0.00    +0.000 OA
ATOM      3  N   UNL     1      -0.111  10.500  20.186  0.00  0.00    +0.000 N 
ATOM      4  C   UNL     1       0.476   9.279  19.644  0.00  0.00    +0.000 C 
ATOM      5  C   UNL     1       0.475   9.946  18.278  0.00  0.00    +0.000 C 
ATOM      6  C   UNL     1      -0.332  11.119  18.869  0.00  0.00    +0.000 C 
ENDROOT
BRANCH   1  10
ATOM      7  C   UNL     1      -3.688  12.241  24.117  0.00  0.00    +0.000 C 
ATOM      8  C   UNL     1      -2.458  12.737  23.410  0.00  0.00    +0.000 A 
ATOM      9  C   UNL     1      -1.706  11.839  22.651  0.00  0.00    +0.000 A 
ATOM     10  C   UNL     1      -0.567  12.217  21.912  0.00  0.00    +0.000 A 
ATOM     11  C   UNL     1      -0.142  13.549  22.014  0.00  0.00    +0.000 A 
ATOM     12  C   UNL     1      -0.856  14.451  22.843  0.00  0.00    +0.000 A 
ATOM     13  C   UNL     1      -2.013  14.062  23.538  0.00  0.00    +0.000 A 
ATOM     14  C   UNL     1      -2.737  15.047  24.406  0.00  0.00    +0.000 C 
BRANCH  11  15
ATOM     15  N   UNL     1       0.971  14.060  21.295  0.00  0.00    +0.000 N 
ATOM     16  N   UNL     1       0.901  14.479  20.000  0.00  0.00    +0.000 NA
ATOM     17  C   UNL     1       2.158  14.842  19.754  0.00  0.00    +0.000 A 
ATOM     18  C   UNL     1       2.918  14.757  20.919  0.00  0.00    +0.000 A 
ATOM     19  N   UNL     1       2.155  14.339  21.924  0.00  0.00    +0.000 NA
ENDBRANCH  11  15
ENDBRANCH   1  10
BRANCH   6  20
ATOM     20  C   UNL     1      -1.782  11.112  18.370  0.00  0.00    +0.000 A 
ATOM     21  N   UNL     1      -2.152  10.536  17.217  0.00  0.00    +0.000 NA
ATOM     22  O   UNL     1      -3.502  10.882  17.103  0.00  0.00    +0.000 OA
ATOM     23  C   UNL     1      -3.806  11.643  18.197  0.00  0.00    +0.000 A 
ATOM     24  N   UNL     1      -2.803  11.740  19.040  0.00  0.00    +0.000 NA
BRANCH  23  25
ATOM     25  C   UNL     1      -5.128  12.265  18.242  0.00  0.00    +0.000 A 
ATOM     26  C   UNL     1      -5.837  12.486  17.041  0.00  0.00    +0.000 A 
ATOM     27  C   UNL     1      -7.097  13.090  17.044  0.00  0.00    +0.000 A 
ATOM     28  C   UNL     1      -7.668  13.482  18.247  0.00  0.00    +0.000 A 
ATOM     29  C   UNL     1      -6.968  13.294  19.434  0.00  0.00    +0.000 A 
ATOM     30  F   UNL     1      -7.542  13.694  20.579  0.00  0.00    +0.000 F 
ATOM     31  C   UNL     1      -5.697  12.705  19.459  0.00  0.00    +0.000 A 
ATOM     32  C   UNL     1      -4.980  12.565  20.775  0.00  0.00    +0.000 C 
ENDBRANCH  23  25
ENDBRANCH   6  20
TORSDOF 4
ENDMDL
MODEL 6
REMARK VINA RESULT:      -7.4      4.874      7.964
REMARK  Name = 
REMARK  7 active torsions:
REMARK  status: ('A' for Active; 'I' for Inactive)
REMARK    1  A    between atoms: C_1  and  C_2
REMARK    2  A    between atoms: C_4  and  C_5
REMARK    3  A    between atoms: C_10  and  C_11
REMARK    4  A    between atoms: C_14  and  C_15
REMARK    5  A    between atoms: C_21  and  C_22
REMARK    6  A    between atoms: C_24  and  N_25
REMARK    7  A    between atoms: C_31  and  C_32
REMARK                            x       y       z     vdW  Elec       q    Type
REMARK                         _______ _______ _______ _____ _____    ______ ____
ROOT
ATOM      1  C   UNL     1       0.176  14.165  22.152  0.00  0.00    +0.000 C 
ATOM      2  O   UNL     1       1.111  14.919  22.430  0.00  0.00    +0.000 OA
ATOM      3  N   UNL     1      -1.092  14.370  22.678  0.00  0.00    +0.000 N 
ATOM      4  C   UNL     1      -1.448  15.450  23.592  0.00  0.00    +0.000 C 
ATOM      5  C   UNL     1      -2.250  14.438  24.393  0.00  0.00    +0.000 C 
ATOM      6  C   UNL     1      -2.011  13.394  23.285  0.00  0.00    +0.000 C 
ENDROOT
BRANCH   1  10
ATOM      7  C   UNL     1      -0.093   9.359  21.018  0.00  0.00    +0.000 C 
ATOM      8  C   UNL     1       0.043  10.767  20.513  0.00  0.00    +0.000 A 
ATOM      9  C   UNL     1       0.158  11.808  21.436  0.00  0.00    +0.000 A 
ATOM     10  C   UNL     1       0.339  13.155  21.063  0.00  0.00    +0.000 A 
ATOM     11  C   UNL     1       0.329  13.455  19.693  0.00  0.00    +0.000 A 
ATOM     12  C   UNL     1       0.136  12.414  18.749  0.00  0.00    +0.000 A 
ATOM     13  C   UNL     1      -0.001  11.072  19.143  0.00  0.00    +0.000 A 
ATOM     14  C   UNL     1      -0.206  10.001  18.114  0.00  0.00    +0.000 C 
BRANCH  11  15
ATOM     15  N   UNL     1       0.532  14.766  19.189  0.00  0.00    +0.000 N 
ATOM     16  N   UNL     1       1.750  15.245  18.810  0.00  0.00    +0.000 NA
ATOM     17  C   UNL     1       1.460  16.490  18.438  0.00  0.00    +0.000 A 
ATOM     18  C   UNL     1       0.081  16.692  18.477  0.00  0.00    +0.000 A 
ATOM     19  N   UNL     1      -0.525  15.578  18.874  0.00  0.00    +0.000 NA
ENDBRANCH  11  15
ENDBRANCH   1  10
BRANCH   6  20
ATOM     20  C   UNL     1      -3.293  13.113  22.492  0.00  0.00    +0.000 A 
ATOM     21  N   UNL     1      -4.282  12.337  22.959  0.00  0.00    +0.000 NA
ATOM     22  O   UNL     1      -5.164  12.253  21.877  0.00  0.00    +0.000 OA
ATOM     23  C   UNL     1      -4.609  12.980  20.861  0.00  0.00    +0.000 A 
ATOM     24  N   UNL     1      -3.504  13.591  21.221  0.00  0.00    +0.000 NA
BRANCH  23  25
ATOM     25  C   UNL     1      -5.265  12.928  19.555  0.00  0.00    +0.000 A 
ATOM     26  C   UNL     1      -6.462  13.647  19.345  0.00  0.00    +0.000 A 
ATOM     27  C   UNL     1      -7.123  13.610  18.115  0.00  0.00    +0.000 A 
ATOM     28  C   UNL     1      -6.598  12.853  17.076  0.00  0.00    +0.000 A 
ATOM     29  C   UNL     1      -5.435  12.118  17.279  0.00  0.00    +0.000 A 
ATOM     30  F   UNL     1      -4.959  11.389  16.259  0.00  0.00    +0.000 F 
ATOM     31  C   UNL     1      -4.760  12.127  18.507  0.00  0.00    +0.000 A 
ATOM     32  C   UNL     1      -3.525  11.280  18.668  0.00  0.00    +0.000 C 
ENDBRANCH  23  25
ENDBRANCH   6  20
TORSDOF 4
ENDMDL
MODEL 7
REMARK VINA RESULT:      -7.4      2.167      3.370
REMARK  Name = 
REMARK  7 active torsions:
REMARK  status: ('A' for Active; 'I' for Inactive)
REMARK    1  A    between atoms: C_1  and  C_2
REMARK    2  A    between atoms: C_4  and  C_5
REMARK    3  A    between atoms: C_10  and  C_11
REMARK    4  A    between atoms: C_14  and  C_15
REMARK    5  A    between atoms: C_21  and  C_22
REMARK    6  A    between atoms: C_24  and  N_25
REMARK    7  A    between atoms: C_31  and  C_32
REMARK                            x       y       z     vdW  Elec       q    Type
REMARK                         _______ _______ _______ _____ _____    ______ ____
ROOT
ATOM      1  C   UNL     1      -0.193  13.048  18.961  0.00  0.00    +0.000 C 
ATOM      2  O   UNL     1      -1.038  13.918  18.736  0.00  0.00    +0.000 OA
ATOM      3  N   UNL     1      -0.321  11.769  18.438  0.00  0.00    +0.000 N 
ATOM      4  C   UNL     1      -1.431  11.320  17.603  0.00  0.00    +0.000 C 
ATOM      5  C   UNL     1      -1.445  10.030  18.407  0.00  0.00    +0.000 C 
ATOM      6  C   UNL     1      -0.146  10.472  19.110  0.00  0.00    +0.000 C 
ENDROOT
BRANCH   1  10
ATOM      7  C   UNL     1       4.480  14.454  18.156  0.00  0.00    +0.000 C 
ATOM      8  C   UNL     1       3.374  14.270  19.156  0.00  0.00    +0.000 A 
ATOM      9  C   UNL     1       2.176  13.685  18.739  0.00  0.00    +0.000 A 
ATOM     10  C   UNL     1       1.099  13.425  19.610  0.00  0.00    +0.000 A 
ATOM     11  C   UNL     1       1.227  13.846  20.942  0.00  0.00    +0.000 A 
ATOM     12  C   UNL     1       2.410  14.509  21.357  0.00  0.00    +0.000 A 
ATOM     13  C   UNL     1       3.488  14.721  20.481  0.00  0.00    +0.000 A 
ATOM     14  C   UNL     1       4.720  15.428  20.959  0.00  0.00    +0.000 C 
BRANCH  11  15
ATOM     15  N   UNL     1       0.227  13.614  21.923  0.00  0.00    +0.000 N 
ATOM     16  N   UNL     1      -0.267  12.378  22.215  0.00  0.00    +0.000 NA
ATOM     17  C   UNL     1      -1.171  12.651  23.153  0.00  0.00    +0.000 A 
ATOM     18  C   UNL     1      -1.115  14.002  23.493  0.00  0.00    +0.000 A 
ATOM     19  N   UNL     1      -0.173  14.607  22.776  0.00  0.00    +0.000 NA
ENDBRANCH  11  15
ENDBRANCH   1  10
BRANCH   6  20
ATOM     20  C   UNL     1       1.056   9.643  18.643  0.00  0.00    +0.000 A 
ATOM     21  N   UNL     1       1.775   9.953  17.554  0.00  0.00    +0.000 NA
ATOM     22  O   UNL     1       2.661   8.878  17.436  0.00  0.00    +0.000 OA
ATOM     23  C   UNL     1       2.378   8.021  18.464  0.00  0.00    +0.000 A 
ATOM     24  N   UNL     1       1.457   8.491  19.274  0.00  0.00    +0.000 NA
BRANCH  23  25
ATOM     25  C   UNL     1       3.067   6.732  18.479  0.00  0.00    +0.000 A 
ATOM     26  C   UNL     1       3.993   6.423  17.458  0.00  0.00    +0.000 A 
ATOM     27  C   UNL     1       4.661   5.196  17.433  0.00  0.00    +0.000 A 
ATOM     28  C   UNL     1       4.413   4.259  18.427  0.00  0.00    +0.000 A 
ATOM     29  C   UNL     1       3.484   4.541  19.422  0.00  0.00    +0.000 A 
ATOM     30  F   UNL     1       3.259   3.611  20.363  0.00  0.00    +0.000 F 
ATOM     31  C   UNL     1       2.790   5.758  19.464  0.00  0.00    +0.000 A 
ATOM     32  C   UNL     1       1.771   5.983  20.549  0.00  0.00    +0.000 C 
ENDBRANCH  23  25
ENDBRANCH   6  20
TORSDOF 4
ENDMDL
MODEL 8
REMARK VINA RESULT:      -7.2      5.242      8.393
REMARK  Name = 
REMARK  7 active torsions:
REMARK  status: ('A' for Active; 'I' for Inactive)
REMARK    1  A    between atoms: C_1  and  C_2
REMARK    2  A    between atoms: C_4  and  C_5
REMARK    3  A    between atoms: C_10  and  C_11
REMARK    4  A    between atoms: C_14  and  C_15
REMARK    5  A    between atoms: C_21  and  C_22
REMARK    6  A    between atoms: C_24  and  N_25
REMARK    7  A    between atoms: C_31  and  C_32
REMARK                            x       y       z     vdW  Elec       q    Type
REMARK                         _______ _______ _______ _____ _____    ______ ____
ROOT
ATOM      1  C   UNL     1       0.231  14.009  22.134  0.00  0.00    +0.000 C 
ATOM      2  O   UNL     1       1.200  14.720  22.406  0.00  0.00    +0.000 OA
ATOM      3  N   UNL     1      -1.016  14.248  22.693  0.00  0.00    +0.000 N 
ATOM      4  C   UNL     1      -1.311  15.319  23.639  0.00  0.00    +0.000 C 
ATOM      5  C   UNL     1      -2.132  14.319  24.436  0.00  0.00    +0.000 C 
ATOM      6  C   UNL     1      -1.958  13.293  23.299  0.00  0.00    +0.000 C 
ENDROOT
BRANCH   1  10
ATOM      7  C   UNL     1      -0.087   9.221  20.932  0.00  0.00    +0.000 C 
ATOM      8  C   UNL     1       0.012  10.639  20.445  0.00  0.00    +0.000 A 
ATOM      9  C   UNL     1       0.179  11.664  21.378  0.00  0.00    +0.000 A 
ATOM     10  C   UNL     1       0.332  13.019  21.018  0.00  0.00    +0.000 A 
ATOM     11  C   UNL     1       0.236  13.342  19.658  0.00  0.00    +0.000 A 
ATOM     12  C   UNL     1      -0.010  12.316  18.709  0.00  0.00    +0.000 A 
ATOM     13  C   UNL     1      -0.117  10.967  19.086  0.00  0.00    +0.000 A 
ATOM     14  C   UNL     1      -0.380   9.914  18.053  0.00  0.00    +0.000 C 
BRANCH  11  15
ATOM     15  N   UNL     1       0.402  14.663  19.165  0.00  0.00    +0.000 N 
ATOM     16  N   UNL     1      -0.620  15.557  19.054  0.00  0.00    +0.000 NA
ATOM     17  C   UNL     1      -0.007  16.622  18.539  0.00  0.00    +0.000 A 
ATOM     18  C   UNL     1       1.367  16.397  18.472  0.00  0.00    +0.000 A 
ATOM     19  N   UNL     1       1.647  15.187  18.943  0.00  0.00    +0.000 NA
ENDBRANCH  11  15
ENDBRANCH   1  10
BRANCH   6  20
ATOM     20  C   UNL     1      -3.267  13.078  22.530  0.00  0.00    +0.000 A 
ATOM     21  N   UNL     1      -4.303  12.393  23.036  0.00  0.00    +0.000 NA
ATOM     22  O   UNL     1      -5.203  12.335  21.967  0.00  0.00    +0.000 OA
ATOM     23  C   UNL     1      -4.610  12.984  20.919  0.00  0.00    +0.000 A 
ATOM     24  N   UNL     1      -3.459  13.525  21.246  0.00  0.00    +0.000 NA
BRANCH  23  25
ATOM     25  C   UNL     1      -5.285  12.933  19.624  0.00  0.00    +0.000 A 
ATOM     26  C   UNL     1      -4.902  11.961  18.674  0.00  0.00    +0.000 A 
ATOM     27  C   UNL     1      -5.515  11.890  17.421  0.00  0.00    +0.000 A 
ATOM     28  C   UNL     1      -6.521  12.791  17.097  0.00  0.00    +0.000 A 
ATOM     29  C   UNL     1      -6.889  13.770  18.014  0.00  0.00    +0.000 A 
ATOM     30  F   UNL     1      -7.858  14.631  17.668  0.00  0.00    +0.000 F 
ATOM     31  C   UNL     1      -6.281  13.872  19.272  0.00  0.00    +0.000 A 
ATOM     32  C   UNL     1      -6.704  14.978  20.201  0.00  0.00    +0.000 C 
ENDBRANCH  23  25
ENDBRANCH   6  20
TORSDOF 4
ENDMDL
MODEL 9
REMARK VINA RESULT:      -7.1      4.900      8.533
REMARK  Name = 
REMARK  7 active torsions:
REMARK  status: ('A' for Active; 'I' for Inactive)
REMARK    1  A    between atoms: C_1  and  C_2
REMARK    2  A    between atoms: C_4  and  C_5
REMARK    3  A    between atoms: C_10  and  C_11
REMARK    4  A    between atoms: C_14  and  C_15
REMARK    5  A    between atoms: C_21  and  C_22
REMARK    6  A    between atoms: C_24  and  N_25
REMARK    7  A    between atoms: C_31  and  C_32
REMARK                            x       y       z     vdW  Elec       q    Type
REMARK                         _______ _______ _______ _____ _____    ______ ____
ROOT
ATOM      1  C   UNL     1       0.361  11.312  18.741  0.00  0.00    +0.000 C 
ATOM      2  O   UNL     1       1.335  10.613  18.454  0.00  0.00    +0.000 OA
ATOM      3  N   UNL     1      -0.929  10.913  18.419  0.00  0.00    +0.000 N 
ATOM      4  C   UNL     1      -1.267   9.676  17.723  0.00  0.00    +0.000 C 
ATOM      5  C   UNL     1      -2.262  10.474  16.897  0.00  0.00    +0.000 C 
ATOM      6  C   UNL     1      -2.014  11.695  17.805  0.00  0.00    +0.000 C 
ENDROOT
BRANCH   1  10
ATOM      7  C   UNL     1       0.819  16.233  18.930  0.00  0.00    +0.000 C 
ATOM      8  C   UNL     1       0.608  14.957  19.694  0.00  0.00    +0.000 A 
ATOM      9  C   UNL     1       0.671  13.741  19.010  0.00  0.00    +0.000 A 
ATOM     10  C   UNL     1       0.536  12.490  19.644  0.00  0.00    +0.000 A 
ATOM     11  C   UNL     1       0.255  12.487  21.017  0.00  0.00    +0.000 A 
ATOM     12  C   UNL     1       0.114  13.719  21.707  0.00  0.00    +0.000 A 
ATOM     13  C   UNL     1       0.294  14.954  21.062  0.00  0.00    +0.000 A 
ATOM     14  C   UNL     1       0.133  16.233  21.826  0.00  0.00    +0.000 C 
BRANCH  11  15
ATOM     15  N   UNL     1       0.128  11.294  21.777  0.00  0.00    +0.000 N 
ATOM     16  N   UNL     1       1.124  10.371  21.897  0.00  0.00    +0.000 NA
ATOM     17  C   UNL     1       0.554   9.441  22.661  0.00  0.00    +0.000 A 
ATOM     18  C   UNL     1      -0.703   9.873  23.084  0.00  0.00    +0.000 A 
ATOM     19  N   UNL     1      -0.949  11.083  22.594  0.00  0.00    +0.000 NA
ENDBRANCH  11  15
ENDBRANCH   1  10
BRANCH   6  20
ATOM     20  C   UNL     1      -3.219  11.978  18.709  0.00  0.00    +0.000 A 
ATOM     21  N   UNL     1      -4.487  11.827  18.300  0.00  0.00    +0.000 NA
ATOM     22  O   UNL     1      -5.233  12.314  19.378  0.00  0.00    +0.000 OA
ATOM     23  C   UNL     1      -4.335  12.721  20.325  0.00  0.00    +0.000 A 
ATOM     24  N   UNL     1      -3.093  12.457  19.990  0.00  0.00    +0.000 NA
BRANCH  23  25
ATOM     25  C   UNL     1      -4.859  13.417  21.499  0.00  0.00    +0.000 A 
ATOM     26  C   UNL     1      -5.841  12.794  22.300  0.00  0.00    +0.000 A 
ATOM     27  C   UNL     1      -6.374  13.434  23.422  0.00  0.00    +0.000 A 
ATOM     28  C   UNL     1      -5.935  14.707  23.759  0.00  0.00    +0.000 A 
ATOM     29  C   UNL     1      -4.988  15.342  22.962  0.00  0.00    +0.000 A 
ATOM     30  F   UNL     1      -4.592  16.576  23.309  0.00  0.00    +0.000 F 
ATOM     31  C   UNL     1      -4.447  14.729  21.825  0.00  0.00    +0.000 A 
ATOM     32  C   UNL     1      -3.453  15.488  20.987  0.00  0.00    +0.000 C 
ENDBRANCH  23  25
ENDBRANCH   6  20
TORSDOF 4
ENDMDL
