MODEL 1
REMARK VINA RESULT:      -9.4      0.000      0.000
REMARK  Name = 
REMARK  15 active torsions:
REMARK  status: ('A' for Active; 'I' for Inactive)
REMARK    1  A    between atoms: C_1  and  C_2
REMARK    2  A    between atoms: C_2  and  C_3
REMARK    3  A    between atoms: C_4  and  C_5
REMARK    4  A    between atoms: C_5  and  C_6
REMARK    5  A    between atoms: C_6  and  C_7
REMARK    6  A    between atoms: C_7  and  C_8
REMARK    7  A    between atoms: C_9  and  C_10
REMARK    8  A    between atoms: C_10  and  C_11
REMARK    9  A    between atoms: C_11  and  C_12
REMARK   10  A    between atoms: C_12  and  C_13
REMARK   11  A    between atoms: C_14  and  C_15
REMARK   12  A    between atoms: C_15  and  N_16
REMARK   13  A    between atoms: C_24  and  O_25
REMARK   14  A    between atoms: C_29  and  O_30
REMARK   15  A    between atoms: C_32  and  O_33
REMARK                            x       y       z     vdW  Elec       q    Type
REMARK                         _______ _______ _______ _____ _____    ______ ____
ROOT
ATOM      1  N   UNL     1       3.122   5.913  17.883  0.00  0.00    +0.000 N 
ATOM      2  C   UNL     1       2.345   4.757  17.873  0.00  0.00    +0.000 C 
ATOM      3  O   UNL     1       1.280   4.623  17.274  0.00  0.00    +0.000 OA
ATOM      4  C   UNL     1       2.628   3.823  18.960  0.00  0.00    +0.000 A 
ATOM      5  C   UNL     1       1.643   3.648  19.939  0.00  0.00    +0.000 A 
ATOM      6  C   UNL     1       1.931   2.859  21.036  0.00  0.00    +0.000 A 
ATOM      7  F   UNL     1       1.022   2.731  22.011  0.00  0.00    +0.000 F 
ATOM      8  C   UNL     1       3.163   2.227  21.154  0.00  0.00    +0.000 A 
ATOM      9  C   UNL     1       4.117   2.391  20.144  0.00  0.00    +0.000 A 
ATOM     10  C   UNL     1       3.858   3.187  19.019  0.00  0.00    +0.000 A 
ATOM     11  N   UNL     1       4.851   3.452  18.064  0.00  0.00    +0.000 N 
ATOM     12  C   UNL     1       5.360   4.741  17.778  0.00  0.00    +0.000 A 
ATOM     13  C   UNL     1       6.761   4.868  17.592  0.00  0.00    +0.000 A 
ATOM     14  C   UNL     1       7.386   6.092  17.386  0.00  0.00    +0.000 A 
ATOM     15  C   UNL     1       6.613   7.233  17.408  0.00  0.00    +0.000 A 
ATOM     16  C   UNL     1       5.235   7.159  17.616  0.00  0.00    +0.000 A 
ATOM     17  C   UNL     1       4.567   5.925  17.787  0.00  0.00    +0.000 A 
ATOM     18  H   UNL     1       5.473   2.668  17.914  0.00  0.00    +0.000 HD
ENDROOT
BRANCH   9  19
ATOM     19  O   UNL     1       5.356   1.814  20.260  0.00  0.00    +0.000 OA
ATOM     20  H   UNL     1       5.409   1.370  21.125  0.00  0.00    +0.000 HD
ENDBRANCH   9  19
BRANCH  13  21
ATOM     21  O   UNL     1       7.595   3.778  17.661  0.00  0.00    +0.000 OA
ATOM     22  H   UNL     1       7.032   2.985  17.659  0.00  0.00    +0.000 HD
ENDBRANCH  13  21
BRANCH  15  23
ATOM     23  O   UNL     1       7.164   8.469  17.229  0.00  0.00    +0.000 OA
ATOM     24  H   UNL     1       7.459   8.796  18.088  0.00  0.00    +0.000 HD
ENDBRANCH  15  23
BRANCH   1  25
ATOM     25  C   UNL     1       2.344   7.129  18.065  0.00  0.00    +0.000 C 
BRANCH  25  28
ATOM     26  C   UNL     1       1.412   8.419  20.065  0.00  0.00    +0.000 C 
ATOM     27  C   UNL     1       0.958   9.597  19.246  0.00  0.00    +0.000 C 
ATOM     28  C   UNL     1       2.037   7.361  19.507  0.00  0.00    +0.000 C 
BRANCH  26  29
ATOM     29  C   UNL     1       1.127   8.515  21.563  0.00  0.00    +0.000 C 
BRANCH  29  30
ATOM     30  C   UNL     1       0.911   9.955  22.036  0.00  0.00    +0.000 C 
BRANCH  30  33
ATOM     31  C   UNL     1      -0.995  11.452  22.565  0.00  0.00    +0.000 C 
ATOM     32  C   UNL     1      -0.424  12.474  21.604  0.00  0.00    +0.000 C 
ATOM     33  C   UNL     1      -0.359  10.275  22.762  0.00  0.00    +0.000 C 
BRANCH  31  34
ATOM     34  C   UNL     1      -2.273  11.739  23.325  0.00  0.00    +0.000 C 
BRANCH  34  35
ATOM     35  C   UNL     1      -3.006  13.024  22.931  0.00  0.00    +0.000 C 
BRANCH  35  39
ATOM     36  C   UNL     1      -6.395  12.343  21.152  0.00  0.00    +0.000 C 
ATOM     37  C   UNL     1      -4.941  12.654  21.352  0.00  0.00    +0.000 C 
ATOM     38  C   UNL     1      -4.086  12.807  20.122  0.00  0.00    +0.000 C 
ATOM     39  C   UNL     1      -4.450  12.793  22.599  0.00  0.00    +0.000 C 
ENDBRANCH  35  39
ENDBRANCH  34  35
ENDBRANCH  31  34
ENDBRANCH  30  33
ENDBRANCH  29  30
ENDBRANCH  26  29
ENDBRANCH  25  28
ENDBRANCH   1  25
TORSDOF 11
ENDMDL
MODEL 2
REMARK VINA RESULT:      -9.3      1.147      1.662
REMARK  Name = 
REMARK  15 active torsions:
REMARK  status: ('A' for Active; 'I' for Inactive)
REMARK    1  A    between atoms: C_1  and  C_2
REMARK    2  A    between atoms: C_2  and  C_3
REMARK    3  A    between atoms: C_4  and  C_5
REMARK    4  A    between atoms: C_5  and  C_6
REMARK    5  A    between atoms: C_6  and  C_7
REMARK    6  A    between atoms: C_7  and  C_8
REMARK    7  A    between atoms: C_9  and  C_10
REMARK    8  A    between atoms: C_10  and  C_11
REMARK    9  A    between atoms: C_11  and  C_12
REMARK   10  A    between atoms: C_12  and  C_13
REMARK   11  A    between atoms: C_14  and  C_15
REMARK   12  A    between atoms: C_15  and  N_16
REMARK   13  A    between atoms: C_24  and  O_25
REMARK   14  A    between atoms: C_29  and  O_30
REMARK   15  A    between atoms: C_32  and  O_33
REMARK                            x       y       z     vdW  Elec       q    Type
REMARK                         _______ _______ _______ _____ _____    ______ ____
ROOT
ATOM      1  N   UNL     1       3.151   5.919  17.880  0.00  0.00    +0.000 N 
ATOM      2  C   UNL     1       2.370   4.767  17.874  0.00  0.00    +0.000 C 
ATOM      3  O   UNL     1       1.312   4.630  17.263  0.00  0.00    +0.000 OA
ATOM      4  C   UNL     1       2.635   3.844  18.975  0.00  0.00    +0.000 A 
ATOM      5  C   UNL     1       1.637   3.684  19.943  0.00  0.00    +0.000 A 
ATOM      6  C   UNL     1       1.908   2.907  21.053  0.00  0.00    +0.000 A 
ATOM      7  F   UNL     1       0.986   2.794  22.018  0.00  0.00    +0.000 F 
ATOM      8  C   UNL     1       3.136   2.271  21.193  0.00  0.00    +0.000 A 
ATOM      9  C   UNL     1       4.103   2.420  20.194  0.00  0.00    +0.000 A 
ATOM     10  C   UNL     1       3.861   3.204  19.056  0.00  0.00    +0.000 A 
ATOM     11  N   UNL     1       4.867   3.453  18.111  0.00  0.00    +0.000 N 
ATOM     12  C   UNL     1       5.386   4.737  17.817  0.00  0.00    +0.000 A 
ATOM     13  C   UNL     1       6.790   4.856  17.647  0.00  0.00    +0.000 A 
ATOM     14  C   UNL     1       7.422   6.075  17.435  0.00  0.00    +0.000 A 
ATOM     15  C   UNL     1       6.654   7.220  17.434  0.00  0.00    +0.000 A 
ATOM     16  C   UNL     1       5.273   7.153  17.625  0.00  0.00    +0.000 A 
ATOM     17  C   UNL     1       4.597   5.924  17.803  0.00  0.00    +0.000 A 
ATOM     18  H   UNL     1       5.488   2.666  17.978  0.00  0.00    +0.000 HD
ENDROOT
BRANCH   9  19
ATOM     19  O   UNL     1       5.338   1.839  20.332  0.00  0.00    +0.000 OA
ATOM     20  H   UNL     1       5.461   1.201  19.606  0.00  0.00    +0.000 HD
ENDBRANCH   9  19
BRANCH  13  21
ATOM     21  O   UNL     1       7.617   3.764  17.739  0.00  0.00    +0.000 OA
ATOM     22  H   UNL     1       7.297   3.222  18.480  0.00  0.00    +0.000 HD
ENDBRANCH  13  21
BRANCH  15  23
ATOM     23  O   UNL     1       7.212   8.451  17.247  0.00  0.00    +0.000 OA
ATOM     24  H   UNL     1       7.008   8.741  16.349  0.00  0.00    +0.000 HD
ENDBRANCH  15  23
BRANCH   1  25
ATOM     25  C   UNL     1       2.376   7.140  18.039  0.00  0.00    +0.000 C 
BRANCH  25  28
ATOM     26  C   UNL     1       1.431   8.462  20.012  0.00  0.00    +0.000 C 
ATOM     27  C   UNL     1       0.986   9.628  19.172  0.00  0.00    +0.000 C 
ATOM     28  C   UNL     1       2.059   7.395  19.474  0.00  0.00    +0.000 C 
BRANCH  26  29
ATOM     29  C   UNL     1       1.135   8.581  21.506  0.00  0.00    +0.000 C 
BRANCH  29  30
ATOM     30  C   UNL     1       0.909  10.027  21.954  0.00  0.00    +0.000 C 
BRANCH  30  33
ATOM     31  C   UNL     1      -0.745  11.858  21.704  0.00  0.00    +0.000 C 
ATOM     32  C   UNL     1       0.396  12.814  21.425  0.00  0.00    +0.000 C 
ATOM     33  C   UNL     1      -0.492  10.554  21.954  0.00  0.00    +0.000 C 
BRANCH  31  34
ATOM     34  C   UNL     1      -2.177  12.351  21.722  0.00  0.00    +0.000 C 
BRANCH  34  35
ATOM     35  C   UNL     1      -2.687  12.956  20.411  0.00  0.00    +0.000 C 
BRANCH  35  39
ATOM     36  C   UNL     1      -2.100  10.728  17.279  0.00  0.00    +0.000 C 
ATOM     37  C   UNL     1      -1.931  11.834  18.280  0.00  0.00    +0.000 C 
ATOM     38  C   UNL     1      -0.784  12.788  18.076  0.00  0.00    +0.000 C 
ATOM     39  C   UNL     1      -2.795  11.947  19.307  0.00  0.00    +0.000 C 
ENDBRANCH  35  39
ENDBRANCH  34  35
ENDBRANCH  31  34
ENDBRANCH  30  33
ENDBRANCH  29  30
ENDBRANCH  26  29
ENDBRANCH  25  28
ENDBRANCH   1  25
TORSDOF 11
ENDMDL
MODEL 3
REMARK VINA RESULT:      -9.1      1.030      1.795
REMARK  Name = 
REMARK  15 active torsions:
REMARK  status: ('A' for Active; 'I' for Inactive)
REMARK    1  A    between atoms: C_1  and  C_2
REMARK    2  A    between atoms: C_2  and  C_3
REMARK    3  A    between atoms: C_4  and  C_5
REMARK    4  A    between atoms: C_5  and  C_6
REMARK    5  A    between atoms: C_6  and  C_7
REMARK    6  A    between atoms: C_7  and  C_8
REMARK    7  A    between atoms: C_9  and  C_10
REMARK    8  A    between atoms: C_10  and  C_11
REMARK    9  A    between atoms: C_11  and  C_12
REMARK   10  A    between atoms: C_12  and  C_13
REMARK   11  A    between atoms: C_14  and  C_15
REMARK   12  A    between atoms: C_15  and  N_16
REMARK   13  A    between atoms: C_24  and  O_25
REMARK   14  A    between atoms: C_29  and  O_30
REMARK   15  A    between atoms: C_32  and  O_33
REMARK                            x       y       z     vdW  Elec       q    Type
REMARK                         _______ _______ _______ _____ _____    ______ ____
ROOT
ATOM      1  N   UNL     1       3.180   5.939  17.895  0.00  0.00    +0.000 N 
ATOM      2  C   UNL     1       2.387   4.795  17.887  0.00  0.00    +0.000 C 
ATOM      3  O   UNL     1       1.323   4.672  17.284  0.00  0.00    +0.000 OA
ATOM      4  C   UNL     1       2.653   3.862  18.980  0.00  0.00    +0.000 A 
ATOM      5  C   UNL     1       1.661   3.706  19.955  0.00  0.00    +0.000 A 
ATOM      6  C   UNL     1       1.933   2.919  21.058  0.00  0.00    +0.000 A 
ATOM      7  F   UNL     1       1.018   2.809  22.030  0.00  0.00    +0.000 F 
ATOM      8  C   UNL     1       3.155   2.271  21.185  0.00  0.00    +0.000 A 
ATOM      9  C   UNL     1       4.116   2.416  20.178  0.00  0.00    +0.000 A 
ATOM     10  C   UNL     1       3.873   3.210  19.048  0.00  0.00    +0.000 A 
ATOM     11  N   UNL     1       4.873   3.455  18.096  0.00  0.00    +0.000 N 
ATOM     12  C   UNL     1       5.402   4.736  17.806  0.00  0.00    +0.000 A 
ATOM     13  C   UNL     1       6.806   4.842  17.626  0.00  0.00    +0.000 A 
ATOM     14  C   UNL     1       7.448   6.057  17.417  0.00  0.00    +0.000 A 
ATOM     15  C   UNL     1       6.691   7.209  17.429  0.00  0.00    +0.000 A 
ATOM     16  C   UNL     1       5.312   7.155  17.630  0.00  0.00    +0.000 A 
ATOM     17  C   UNL     1       4.625   5.931  17.806  0.00  0.00    +0.000 A 
ATOM     18  H   UNL     1       5.486   2.663  17.954  0.00  0.00    +0.000 HD
ENDROOT
BRANCH   9  19
ATOM     19  O   UNL     1       5.346   1.822  20.303  0.00  0.00    +0.000 OA
ATOM     20  H   UNL     1       5.263   0.885  20.050  0.00  0.00    +0.000 HD
ENDBRANCH   9  19
BRANCH  13  21
ATOM     21  O   UNL     1       7.624   3.741  17.704  0.00  0.00    +0.000 OA
ATOM     22  H   UNL     1       7.372   3.145  16.979  0.00  0.00    +0.000 HD
ENDBRANCH  13  21
BRANCH  15  23
ATOM     23  O   UNL     1       7.260   8.436  17.245  0.00  0.00    +0.000 OA
ATOM     24  H   UNL     1       7.373   8.848  18.111  0.00  0.00    +0.000 HD
ENDBRANCH  15  23
BRANCH   1  25
ATOM     25  C   UNL     1       2.418   7.167  18.067  0.00  0.00    +0.000 C 
BRANCH  25  28
ATOM     26  C   UNL     1       1.410   8.432  20.047  0.00  0.00    +0.000 C 
ATOM     27  C   UNL     1       0.943   9.598  19.217  0.00  0.00    +0.000 C 
ATOM     28  C   UNL     1       2.075   7.391  19.502  0.00  0.00    +0.000 C 
BRANCH  26  29
ATOM     29  C   UNL     1       1.092   8.521  21.538  0.00  0.00    +0.000 C 
BRANCH  29  30
ATOM     30  C   UNL     1       0.901   9.961  22.020  0.00  0.00    +0.000 C 
BRANCH  30  33
ATOM     31  C   UNL     1      -1.054  11.429  22.440  0.00  0.00    +0.000 C 
ATOM     32  C   UNL     1      -0.537  12.375  21.376  0.00  0.00    +0.000 C 
ATOM     33  C   UNL     1      -0.369  10.302  22.736  0.00  0.00    +0.000 C 
BRANCH  31  34
ATOM     34  C   UNL     1      -2.330  11.740  23.194  0.00  0.00    +0.000 C 
BRANCH  34  35
ATOM     35  C   UNL     1      -2.882  13.156  23.009  0.00  0.00    +0.000 C 
BRANCH  35  39
ATOM     36  C   UNL     1      -1.972  15.744  25.764  0.00  0.00    +0.000 C 
ATOM     37  C   UNL     1      -1.889  14.930  24.506  0.00  0.00    +0.000 C 
ATOM     38  C   UNL     1      -0.751  15.219  23.564  0.00  0.00    +0.000 C 
ATOM     39  C   UNL     1      -2.810  13.978  24.261  0.00  0.00    +0.000 C 
ENDBRANCH  35  39
ENDBRANCH  34  35
ENDBRANCH  31  34
ENDBRANCH  30  33
ENDBRANCH  29  30
ENDBRANCH  26  29
ENDBRANCH  25  28
ENDBRANCH   1  25
TORSDOF 11
ENDMDL
MODEL 4
REMARK VINA RESULT:      -9.1      1.047      1.415
REMARK  Name = 
REMARK  15 active torsions:
REMARK  status: ('A' for Active; 'I' for Inactive)
REMARK    1  A    between atoms: C_1  and  C_2
REMARK    2  A    between atoms: C_2  and  C_3
REMARK    3  A    between atoms: C_4  and  C_5
REMARK    4  A    between atoms: C_5  and  C_6
REMARK    5  A    between atoms: C_6  and  C_7
REMARK    6  A    between atoms: C_7  and  C_8
REMARK    7  A    between atoms: C_9  and  C_10
REMARK    8  A    between atoms: C_10  and  C_11
REMARK    9  A    between atoms: C_11  and  C_12
REMARK   10  A    between atoms: C_12  and  C_13
REMARK   11  A    between atoms: C_14  and  C_15
REMARK   12  A    between atoms: C_15  and  N_16
REMARK   13  A    between atoms: C_24  and  O_25
REMARK   14  A    between atoms: C_29  and  O_30
REMARK   15  A    between atoms: C_32  and  O_33
REMARK                            x       y       z     vdW  Elec       q    Type
REMARK                         _______ _______ _______ _____ _____    ______ ____
ROOT
ATOM      1  N   UNL     1       3.173   5.847  17.842  0.00  0.00    +0.000 N 
ATOM      2  C   UNL     1       2.410   4.682  17.840  0.00  0.00    +0.000 C 
ATOM      3  O   UNL     1       1.367   4.518  17.212  0.00  0.00    +0.000 OA
ATOM      4  C   UNL     1       2.670   3.782  18.961  0.00  0.00    +0.000 A 
ATOM      5  C   UNL     1       1.656   3.622  19.913  0.00  0.00    +0.000 A 
ATOM      6  C   UNL     1       1.918   2.867  21.040  0.00  0.00    +0.000 A 
ATOM      7  F   UNL     1       0.980   2.756  21.990  0.00  0.00    +0.000 F 
ATOM      8  C   UNL     1       3.153   2.254  21.215  0.00  0.00    +0.000 A 
ATOM      9  C   UNL     1       4.137   2.402  20.231  0.00  0.00    +0.000 A 
ATOM     10  C   UNL     1       3.904   3.163  19.077  0.00  0.00    +0.000 A 
ATOM     11  N   UNL     1       4.923   3.413  18.146  0.00  0.00    +0.000 N 
ATOM     12  C   UNL     1       5.427   4.701  17.841  0.00  0.00    +0.000 A 
ATOM     13  C   UNL     1       6.832   4.840  17.695  0.00  0.00    +0.000 A 
ATOM     14  C   UNL     1       7.449   6.065  17.475  0.00  0.00    +0.000 A 
ATOM     15  C   UNL     1       6.662   7.197  17.440  0.00  0.00    +0.000 A 
ATOM     16  C   UNL     1       5.280   7.112  17.606  0.00  0.00    +0.000 A 
ATOM     17  C   UNL     1       4.620   5.874  17.792  0.00  0.00    +0.000 A 
ATOM     18  H   UNL     1       5.560   2.634  18.039  0.00  0.00    +0.000 HD
ENDROOT
BRANCH   9  19
ATOM     19  O   UNL     1       5.377   1.844  20.402  0.00  0.00    +0.000 OA
ATOM     20  H   UNL     1       5.792   1.739  19.527  0.00  0.00    +0.000 HD
ENDBRANCH   9  19
BRANCH  13  21
ATOM     21  O   UNL     1       7.675   3.763  17.821  0.00  0.00    +0.000 OA
ATOM     22  H   UNL     1       7.402   3.275  18.616  0.00  0.00    +0.000 HD
ENDBRANCH  13  21
BRANCH  15  23
ATOM     23  O   UNL     1       7.204   8.434  17.244  0.00  0.00    +0.000 OA
ATOM     24  H   UNL     1       6.506   9.091  17.357  0.00  0.00    +0.000 HD
ENDBRANCH  15  23
BRANCH   1  25
ATOM     25  C   UNL     1       2.375   7.058  17.965  0.00  0.00    +0.000 C 
BRANCH  25  28
ATOM     26  C   UNL     1       1.527   8.482  19.911  0.00  0.00    +0.000 C 
ATOM     27  C   UNL     1       1.173   9.663  19.048  0.00  0.00    +0.000 C 
ATOM     28  C   UNL     1       2.074   7.362  19.395  0.00  0.00    +0.000 C 
BRANCH  26  29
ATOM     29  C   UNL     1       1.236   8.650  21.401  0.00  0.00    +0.000 C 
BRANCH  29  30
ATOM     30  C   UNL     1      -0.135   9.274  21.672  0.00  0.00    +0.000 C 
BRANCH  30  33
ATOM     31  C   UNL     1      -0.752  11.676  21.725  0.00  0.00    +0.000 C 
ATOM     32  C   UNL     1      -1.356  11.523  20.345  0.00  0.00    +0.000 C 
ATOM     33  C   UNL     1      -0.179  10.615  22.337  0.00  0.00    +0.000 C 
BRANCH  31  34
ATOM     34  C   UNL     1      -0.769  13.016  22.429  0.00  0.00    +0.000 C 
BRANCH  34  35
ATOM     35  C   UNL     1      -2.123  13.730  22.468  0.00  0.00    +0.000 C 
BRANCH  35  39
ATOM     36  C   UNL     1      -4.869  12.385  24.870  0.00  0.00    +0.000 C 
ATOM     37  C   UNL     1      -3.750  13.229  24.332  0.00  0.00    +0.000 C 
ATOM     38  C   UNL     1      -3.295  14.397  25.167  0.00  0.00    +0.000 C 
ATOM     39  C   UNL     1      -3.189  12.922  23.147  0.00  0.00    +0.000 C 
ENDBRANCH  35  39
ENDBRANCH  34  35
ENDBRANCH  31  34
ENDBRANCH  30  33
ENDBRANCH  29  30
ENDBRANCH  26  29
ENDBRANCH  25  28
ENDBRANCH   1  25
TORSDOF 11
ENDMDL
MODEL 5
REMARK VINA RESULT:      -8.9      1.435      2.566
REMARK  Name = 
REMARK  15 active torsions:
REMARK  status: ('A' for Active; 'I' for Inactive)
REMARK    1  A    between atoms: C_1  and  C_2
REMARK    2  A    between atoms: C_2  and  C_3
REMARK    3  A    between atoms: C_4  and  C_5
REMARK    4  A    between atoms: C_5  and  C_6
REMARK    5  A    between atoms: C_6  and  C_7
REMARK    6  A    between atoms: C_7  and  C_8
REMARK    7  A    between atoms: C_9  and  C_10
REMARK    8  A    between atoms: C_10  and  C_11
REMARK    9  A    between atoms: C_11  and  C_12
REMARK   10  A    between atoms: C_12  and  C_13
REMARK   11  A    between atoms: C_14  and  C_15
REMARK   12  A    between atoms: C_15  and  N_16
REMARK   13  A    between atoms: C_24  and  O_25
REMARK   14  A    between atoms: C_29  and  O_30
REMARK   15  A    between atoms: C_32  and  O_33
REMARK                            x       y       z     vdW  Elec       q    Type
REMARK                         _______ _______ _______ _____ _____    ______ ____
ROOT
ATOM      1  N   UNL     1       3.106   5.894  17.877  0.00  0.00    +0.000 N 
ATOM      2  C   UNL     1       2.332   4.737  17.880  0.00  0.00    +0.000 C 
ATOM      3  O   UNL     1       1.275   4.588  17.269  0.00  0.00    +0.000 OA
ATOM      4  C   UNL     1       2.602   3.825  18.989  0.00  0.00    +0.000 A 
ATOM      5  C   UNL     1       1.604   3.668  19.958  0.00  0.00    +0.000 A 
ATOM      6  C   UNL     1       1.878   2.902  21.074  0.00  0.00    +0.000 A 
ATOM      7  F   UNL     1       0.957   2.792  22.040  0.00  0.00    +0.000 F 
ATOM      8  C   UNL     1       3.110   2.275  21.222  0.00  0.00    +0.000 A 
ATOM      9  C   UNL     1       4.077   2.421  20.221  0.00  0.00    +0.000 A 
ATOM     10  C   UNL     1       3.832   3.193  19.077  0.00  0.00    +0.000 A 
ATOM     11  N   UNL     1       4.837   3.441  18.131  0.00  0.00    +0.000 N 
ATOM     12  C   UNL     1       5.348   4.725  17.826  0.00  0.00    +0.000 A 
ATOM     13  C   UNL     1       6.751   4.851  17.656  0.00  0.00    +0.000 A 
ATOM     14  C   UNL     1       7.376   6.072  17.434  0.00  0.00    +0.000 A 
ATOM     15  C   UNL     1       6.601   7.212  17.423  0.00  0.00    +0.000 A 
ATOM     16  C   UNL     1       5.221   7.139  17.613  0.00  0.00    +0.000 A 
ATOM     17  C   UNL     1       4.552   5.907  17.801  0.00  0.00    +0.000 A 
ATOM     18  H   UNL     1       5.463   2.656  18.005  0.00  0.00    +0.000 HD
ENDROOT
BRANCH   9  19
ATOM     19  O   UNL     1       5.315   1.848  20.366  0.00  0.00    +0.000 OA
ATOM     20  H   UNL     1       5.473   1.260  19.606  0.00  0.00    +0.000 HD
ENDBRANCH   9  19
BRANCH  13  21
ATOM     21  O   UNL     1       7.586   3.764  17.758  0.00  0.00    +0.000 OA
ATOM     22  H   UNL     1       8.274   3.867  17.079  0.00  0.00    +0.000 HD
ENDBRANCH  13  21
BRANCH  15  23
ATOM     23  O   UNL     1       7.152   8.445  17.226  0.00  0.00    +0.000 OA
ATOM     24  H   UNL     1       6.704   9.072  17.808  0.00  0.00    +0.000 HD
ENDBRANCH  15  23
BRANCH   1  25
ATOM     25  C   UNL     1       2.323   7.112  18.024  0.00  0.00    +0.000 C 
BRANCH  25  28
ATOM     26  C   UNL     1       1.497   8.509  19.999  0.00  0.00    +0.000 C 
ATOM     27  C   UNL     1       1.169   9.716  19.161  0.00  0.00    +0.000 C 
ATOM     28  C   UNL     1       2.024   7.390  19.460  0.00  0.00    +0.000 C 
BRANCH  26  29
ATOM     29  C   UNL     1       1.205   8.650  21.491  0.00  0.00    +0.000 C 
BRANCH  29  30
ATOM     30  C   UNL     1      -0.190   9.214  21.773  0.00  0.00    +0.000 C 
BRANCH  30  33
ATOM     31  C   UNL     1      -0.888  11.591  21.913  0.00  0.00    +0.000 C 
ATOM     32  C   UNL     1      -1.469  11.473  20.520  0.00  0.00    +0.000 C 
ATOM     33  C   UNL     1      -0.287  10.526  22.490  0.00  0.00    +0.000 C 
BRANCH  31  34
ATOM     34  C   UNL     1      -0.957  12.901  22.670  0.00  0.00    +0.000 C 
BRANCH  34  35
ATOM     35  C   UNL     1      -0.625  14.155  21.857  0.00  0.00    +0.000 C 
BRANCH  35  39
ATOM     36  C   UNL     1       3.174  14.951  21.629  0.00  0.00    +0.000 C 
ATOM     37  C   UNL     1       1.841  14.324  21.342  0.00  0.00    +0.000 C 
ATOM     38  C   UNL     1       1.767  13.332  20.212  0.00  0.00    +0.000 C 
ATOM     39  C   UNL     1       0.771  14.650  22.093  0.00  0.00    +0.000 C 
ENDBRANCH  35  39
ENDBRANCH  34  35
ENDBRANCH  31  34
ENDBRANCH  30  33
ENDBRANCH  29  30
ENDBRANCH  26  29
ENDBRANCH  25  28
ENDBRANCH   1  25
TORSDOF 11
ENDMDL
MODEL 6
REMARK VINA RESULT:      -8.9      1.157      1.589
REMARK  Name = 
REMARK  15 active torsions:
REMARK  status: ('A' for Active; 'I' for Inactive)
REMARK    1  A    between atoms: C_1  and  C_2
REMARK    2  A    between atoms: C_2  and  C_3
REMARK    3  A    between atoms: C_4  and  C_5
REMARK    4  A    between atoms: C_5  and  C_6
REMARK    5  A    between atoms: C_6  and  C_7
REMARK    6  A    between atoms: C_7  and  C_8
REMARK    7  A    between atoms: C_9  and  C_10
REMARK    8  A    between atoms: C_10  and  C_11
REMARK    9  A    between atoms: C_11  and  C_12
REMARK   10  A    between atoms: C_12  and  C_13
REMARK   11  A    between atoms: C_14  and  C_15
REMARK   12  A    between atoms: C_15  and  N_16
REMARK   13  A    between atoms: C_24  and  O_25
REMARK   14  A    between atoms: C_29  and  O_30
REMARK   15  A    between atoms: C_32  and  O_33
REMARK                            x       y       z     vdW  Elec       q    Type
REMARK                         _______ _______ _______ _____ _____    ______ ____
ROOT
ATOM      1  N   UNL     1       3.095   5.888  17.875  0.00  0.00    +0.000 N 
ATOM      2  C   UNL     1       2.324   4.729  17.882  0.00  0.00    +0.000 C 
ATOM      3  O   UNL     1       1.270   4.573  17.268  0.00  0.00    +0.000 OA
ATOM      4  C   UNL     1       2.593   3.825  18.997  0.00  0.00    +0.000 A 
ATOM      5  C   UNL     1       1.591   3.671  19.963  0.00  0.00    +0.000 A 
ATOM      6  C   UNL     1       1.864   2.912  21.086  0.00  0.00    +0.000 A 
ATOM      7  F   UNL     1       0.939   2.806  22.048  0.00  0.00    +0.000 F 
ATOM      8  C   UNL     1       3.097   2.290  21.242  0.00  0.00    +0.000 A 
ATOM      9  C   UNL     1       4.067   2.433  20.244  0.00  0.00    +0.000 A 
ATOM     10  C   UNL     1       3.824   3.197  19.094  0.00  0.00    +0.000 A 
ATOM     11  N   UNL     1       4.832   3.442  18.150  0.00  0.00    +0.000 N 
ATOM     12  C   UNL     1       5.340   4.726  17.840  0.00  0.00    +0.000 A 
ATOM     13  C   UNL     1       6.744   4.855  17.674  0.00  0.00    +0.000 A 
ATOM     14  C   UNL     1       7.366   6.077  17.447  0.00  0.00    +0.000 A 
ATOM     15  C   UNL     1       6.587   7.214  17.425  0.00  0.00    +0.000 A 
ATOM     16  C   UNL     1       5.206   7.138  17.611  0.00  0.00    +0.000 A 
ATOM     17  C   UNL     1       4.541   5.905  17.804  0.00  0.00    +0.000 A 
ATOM     18  H   UNL     1       5.461   2.658  18.032  0.00  0.00    +0.000 HD
ENDROOT
BRANCH   9  19
ATOM     19  O   UNL     1       5.307   1.865  20.397  0.00  0.00    +0.000 OA
ATOM     20  H   UNL     1       5.194   0.904  20.507  0.00  0.00    +0.000 HD
ENDBRANCH   9  19
BRANCH  13  21
ATOM     21  O   UNL     1       7.581   3.772  17.786  0.00  0.00    +0.000 OA
ATOM     22  H   UNL     1       8.456   4.051  17.467  0.00  0.00    +0.000 HD
ENDBRANCH  13  21
BRANCH  15  23
ATOM     23  O   UNL     1       7.135   8.448  17.223  0.00  0.00    +0.000 OA
ATOM     24  H   UNL     1       7.881   8.549  17.828  0.00  0.00    +0.000 HD
ENDBRANCH  15  23
BRANCH   1  25
ATOM     25  C   UNL     1       2.307   7.104  18.011  0.00  0.00    +0.000 C 
BRANCH  25  28
ATOM     26  C   UNL     1       1.512   8.544  19.968  0.00  0.00    +0.000 C 
ATOM     27  C   UNL     1       1.126   9.715  19.104  0.00  0.00    +0.000 C 
ATOM     28  C   UNL     1       2.049   7.421  19.446  0.00  0.00    +0.000 C 
BRANCH  26  29
ATOM     29  C   UNL     1       1.266   8.725  21.464  0.00  0.00    +0.000 C 
BRANCH  29  30
ATOM     30  C   UNL     1      -0.209   8.956  21.800  0.00  0.00    +0.000 C 
BRANCH  30  33
ATOM     31  C   UNL     1      -1.052  11.241  22.271  0.00  0.00    +0.000 C 
ATOM     32  C   UNL     1      -1.267  11.438  20.785  0.00  0.00    +0.000 C 
ATOM     33  C   UNL     1      -0.552  10.074  22.736  0.00  0.00    +0.000 C 
BRANCH  31  34
ATOM     34  C   UNL     1      -1.377  12.349  23.251  0.00  0.00    +0.000 C 
BRANCH  34  35
ATOM     35  C   UNL     1      -2.573  13.231  22.882  0.00  0.00    +0.000 C 
BRANCH  35  39
ATOM     36  C   UNL     1      -1.814  17.014  22.412  0.00  0.00    +0.000 C 
ATOM     37  C   UNL     1      -1.979  15.556  22.099  0.00  0.00    +0.000 C 
ATOM     38  C   UNL     1      -1.757  15.120  20.676  0.00  0.00    +0.000 C 
ATOM     39  C   UNL     1      -2.304  14.692  23.081  0.00  0.00    +0.000 C 
ENDBRANCH  35  39
ENDBRANCH  34  35
ENDBRANCH  31  34
ENDBRANCH  30  33
ENDBRANCH  29  30
ENDBRANCH  26  29
ENDBRANCH  25  28
ENDBRANCH   1  25
TORSDOF 11
ENDMDL
MODEL 7
REMARK VINA RESULT:      -8.8      1.487      2.254
REMARK  Name = 
REMARK  15 active torsions:
REMARK  status: ('A' for Active; 'I' for Inactive)
REMARK    1  A    between atoms: C_1  and  C_2
REMARK    2  A    between atoms: C_2  and  C_3
REMARK    3  A    between atoms: C_4  and  C_5
REMARK    4  A    between atoms: C_5  and  C_6
REMARK    5  A    between atoms: C_6  and  C_7
REMARK    6  A    between atoms: C_7  and  C_8
REMARK    7  A    between atoms: C_9  and  C_10
REMARK    8  A    between atoms: C_10  and  C_11
REMARK    9  A    between atoms: C_11  and  C_12
REMARK   10  A    between atoms: C_12  and  C_13
REMARK   11  A    between atoms: C_14  and  C_15
REMARK   12  A    between atoms: C_15  and  N_16
REMARK   13  A    between atoms: C_24  and  O_25
REMARK   14  A    between atoms: C_29  and  O_30
REMARK   15  A    between atoms: C_32  and  O_33
REMARK                            x       y       z     vdW  Elec       q    Type
REMARK                         _______ _______ _______ _____ _____    ______ ____
ROOT
ATOM      1  N   UNL     1       3.103   5.900  17.845  0.00  0.00    +0.000 N 
ATOM      2  C   UNL     1       2.323   4.747  17.854  0.00  0.00    +0.000 C 
ATOM      3  O   UNL     1       1.272   4.595  17.235  0.00  0.00    +0.000 OA
ATOM      4  C   UNL     1       2.578   3.848  18.978  0.00  0.00    +0.000 A 
ATOM      5  C   UNL     1       1.569   3.708  19.938  0.00  0.00    +0.000 A 
ATOM      6  C   UNL     1       1.829   2.955  21.067  0.00  0.00    +0.000 A 
ATOM      7  F   UNL     1       0.898   2.862  22.025  0.00  0.00    +0.000 F 
ATOM      8  C   UNL     1       3.056   2.324  21.235  0.00  0.00    +0.000 A 
ATOM      9  C   UNL     1       4.034   2.453  20.243  0.00  0.00    +0.000 A 
ATOM     10  C   UNL     1       3.804   3.212  19.086  0.00  0.00    +0.000 A 
ATOM     11  N   UNL     1       4.819   3.442  18.147  0.00  0.00    +0.000 N 
ATOM     12  C   UNL     1       5.340   4.720  17.831  0.00  0.00    +0.000 A 
ATOM     13  C   UNL     1       6.745   4.837  17.674  0.00  0.00    +0.000 A 
ATOM     14  C   UNL     1       7.378   6.053  17.443  0.00  0.00    +0.000 A 
ATOM     15  C   UNL     1       6.609   7.196  17.408  0.00  0.00    +0.000 A 
ATOM     16  C   UNL     1       5.226   7.132  17.586  0.00  0.00    +0.000 A 
ATOM     17  C   UNL     1       4.550   5.905  17.782  0.00  0.00    +0.000 A 
ATOM     18  H   UNL     1       5.443   2.653  18.038  0.00  0.00    +0.000 HD
ENDROOT
BRANCH   9  19
ATOM     19  O   UNL     1       5.268   1.877  20.407  0.00  0.00    +0.000 OA
ATOM     20  H   UNL     1       5.918   2.389  19.894  0.00  0.00    +0.000 HD
ENDBRANCH   9  19
BRANCH  13  21
ATOM     21  O   UNL     1       7.574   3.749  17.798  0.00  0.00    +0.000 OA
ATOM     22  H   UNL     1       7.678   3.574  18.748  0.00  0.00    +0.000 HD
ENDBRANCH  13  21
BRANCH  15  23
ATOM     23  O   UNL     1       7.167   8.424  17.201  0.00  0.00    +0.000 OA
ATOM     24  H   UNL     1       6.565   9.092  17.552  0.00  0.00    +0.000 HD
ENDBRANCH  15  23
BRANCH   1  25
ATOM     25  C   UNL     1       2.325   7.123  17.968  0.00  0.00    +0.000 C 
BRANCH  25  28
ATOM     26  C   UNL     1       1.428   8.534  19.902  0.00  0.00    +0.000 C 
ATOM     27  C   UNL     1       0.864   9.610  19.013  0.00  0.00    +0.000 C 
ATOM     28  C   UNL     1       2.083   7.466  19.400  0.00  0.00    +0.000 C 
BRANCH  26  29
ATOM     29  C   UNL     1       1.219   8.747  21.400  0.00  0.00    +0.000 C 
BRANCH  29  30
ATOM     30  C   UNL     1      -0.001   9.617  21.712  0.00  0.00    +0.000 C 
BRANCH  30  33
ATOM     31  C   UNL     1      -0.663  11.922  22.348  0.00  0.00    +0.000 C 
ATOM     32  C   UNL     1      -1.777  11.339  23.191  0.00  0.00    +0.000 C 
ATOM     33  C   UNL     1       0.162  11.105  21.655  0.00  0.00    +0.000 C 
BRANCH  31  34
ATOM     34  C   UNL     1      -0.468  13.421  22.257  0.00  0.00    +0.000 C 
BRANCH  34  35
ATOM     35  C   UNL     1       0.753  13.884  21.457  0.00  0.00    +0.000 C 
BRANCH  35  39
ATOM     36  C   UNL     1      -0.341  16.191  18.525  0.00  0.00    +0.000 C 
ATOM     37  C   UNL     1      -0.001  14.949  19.296  0.00  0.00    +0.000 C 
ATOM     38  C   UNL     1      -0.182  13.626  18.600  0.00  0.00    +0.000 C 
ATOM     39  C   UNL     1       0.455  15.048  20.560  0.00  0.00    +0.000 C 
ENDBRANCH  35  39
ENDBRANCH  34  35
ENDBRANCH  31  34
ENDBRANCH  30  33
ENDBRANCH  29  30
ENDBRANCH  26  29
ENDBRANCH  25  28
ENDBRANCH   1  25
TORSDOF 11
ENDMDL
MODEL 8
REMARK VINA RESULT:      -8.4      2.039      2.592
REMARK  Name = 
REMARK  15 active torsions:
REMARK  status: ('A' for Active; 'I' for Inactive)
REMARK    1  A    between atoms: C_1  and  C_2
REMARK    2  A    between atoms: C_2  and  C_3
REMARK    3  A    between atoms: C_4  and  C_5
REMARK    4  A    between atoms: C_5  and  C_6
REMARK    5  A    between atoms: C_6  and  C_7
REMARK    6  A    between atoms: C_7  and  C_8
REMARK    7  A    between atoms: C_9  and  C_10
REMARK    8  A    between atoms: C_10  and  C_11
REMARK    9  A    between atoms: C_11  and  C_12
REMARK   10  A    between atoms: C_12  and  C_13
REMARK   11  A    between atoms: C_14  and  C_15
REMARK   12  A    between atoms: C_15  and  N_16
REMARK   13  A    between atoms: C_24  and  O_25
REMARK   14  A    between atoms: C_29  and  O_30
REMARK   15  A    between atoms: C_32  and  O_33
REMARK                            x       y       z     vdW  Elec       q    Type
REMARK                         _______ _______ _______ _____ _____    ______ ____
ROOT
ATOM      1  N   UNL     1       3.016   5.694  17.796  0.00  0.00    +0.000 N 
ATOM      2  C   UNL     1       2.300   4.501  17.833  0.00  0.00    +0.000 C 
ATOM      3  O   UNL     1       1.273   4.269  17.198  0.00  0.00    +0.000 OA
ATOM      4  C   UNL     1       2.577   3.659  18.994  0.00  0.00    +0.000 A 
ATOM      5  C   UNL     1       1.556   3.499  19.938  0.00  0.00    +0.000 A 
ATOM      6  C   UNL     1       1.831   2.802  21.100  0.00  0.00    +0.000 A 
ATOM      7  F   UNL     1       0.884   2.693  22.041  0.00  0.00    +0.000 F 
ATOM      8  C   UNL     1       3.086   2.246  21.316  0.00  0.00    +0.000 A 
ATOM      9  C   UNL     1       4.077   2.392  20.340  0.00  0.00    +0.000 A 
ATOM     10  C   UNL     1       3.833   3.095  19.152  0.00  0.00    +0.000 A 
ATOM     11  N   UNL     1       4.855   3.346  18.225  0.00  0.00    +0.000 N 
ATOM     12  C   UNL     1       5.313   4.639  17.873  0.00  0.00    +0.000 A 
ATOM     13  C   UNL     1       6.713   4.827  17.740  0.00  0.00    +0.000 A 
ATOM     14  C   UNL     1       7.285   6.066  17.477  0.00  0.00    +0.000 A 
ATOM     15  C   UNL     1       6.456   7.163  17.384  0.00  0.00    +0.000 A 
ATOM     16  C   UNL     1       5.075   7.030  17.535  0.00  0.00    +0.000 A 
ATOM     17  C   UNL     1       4.462   5.776  17.764  0.00  0.00    +0.000 A 
ATOM     18  H   UNL     1       5.523   2.589  18.159  0.00  0.00    +0.000 HD
ENDROOT
BRANCH   9  19
ATOM     19  O   UNL     1       5.336   1.891  20.551  0.00  0.00    +0.000 OA
ATOM     20  H   UNL     1       5.726   2.349  21.318  0.00  0.00    +0.000 HD
ENDBRANCH   9  19
BRANCH  13  21
ATOM     21  O   UNL     1       7.596   3.790  17.922  0.00  0.00    +0.000 OA
ATOM     22  H   UNL     1       8.369   3.969  17.360  0.00  0.00    +0.000 HD
ENDBRANCH  13  21
BRANCH  15  23
ATOM     23  O   UNL     1       6.952   8.411  17.143  0.00  0.00    +0.000 OA
ATOM     24  H   UNL     1       7.899   8.402  17.333  0.00  0.00    +0.000 HD
ENDBRANCH  15  23
BRANCH   1  25
ATOM     25  C   UNL     1       2.170   6.876  17.857  0.00  0.00    +0.000 C 
BRANCH  25  28
ATOM     26  C   UNL     1       1.668   7.389  20.311  0.00  0.00    +0.000 C 
ATOM     27  C   UNL     1       0.560   6.376  20.419  0.00  0.00    +0.000 C 
ATOM     28  C   UNL     1       2.337   7.592  19.157  0.00  0.00    +0.000 C 
BRANCH  26  29
ATOM     29  C   UNL     1       1.966   8.172  21.588  0.00  0.00    +0.000 C 
BRANCH  29  30
ATOM     30  C   UNL     1       1.193   9.491  21.670  0.00  0.00    +0.000 C 
BRANCH  30  33
ATOM     31  C   UNL     1      -0.263  10.322  19.841  0.00  0.00    +0.000 C 
ATOM     32  C   UNL     1       0.921  11.084  19.283  0.00  0.00    +0.000 C 
ATOM     33  C   UNL     1      -0.124   9.580  20.963  0.00  0.00    +0.000 C 
BRANCH  31  34
ATOM     34  C   UNL     1      -1.614  10.391  19.162  0.00  0.00    +0.000 C 
BRANCH  34  35
ATOM     35  C   UNL     1      -1.730  11.399  18.015  0.00  0.00    +0.000 C 
BRANCH  35  39
ATOM     36  C   UNL     1      -3.336  10.135  14.707  0.00  0.00    +0.000 C 
ATOM     37  C   UNL     1      -3.203  10.751  16.070  0.00  0.00    +0.000 C 
ATOM     38  C   UNL     1      -4.440  11.345  16.689  0.00  0.00    +0.000 C 
ATOM     39  C   UNL     1      -2.009  10.748  16.693  0.00  0.00    +0.000 C 
ENDBRANCH  35  39
ENDBRANCH  34  35
ENDBRANCH  31  34
ENDBRANCH  30  33
ENDBRANCH  29  30
ENDBRANCH  26  29
ENDBRANCH  25  28
ENDBRANCH   1  25
TORSDOF 11
ENDMDL
MODEL 9
REMARK VINA RESULT:      -8.3      4.243      8.087
REMARK  Name = 
REMARK  15 active torsions:
REMARK  status: ('A' for Active; 'I' for Inactive)
REMARK    1  A    between atoms: C_1  and  C_2
REMARK    2  A    between atoms: C_2  and  C_3
REMARK    3  A    between atoms: C_4  and  C_5
REMARK    4  A    between atoms: C_5  and  C_6
REMARK    5  A    between atoms: C_6  and  C_7
REMARK    6  A    between atoms: C_7  and  C_8
REMARK    7  A    between atoms: C_9  and  C_10
REMARK    8  A    between atoms: C_10  and  C_11
REMARK    9  A    between atoms: C_11  and  C_12
REMARK   10  A    between atoms: C_12  and  C_13
REMARK   11  A    between atoms: C_14  and  C_15
REMARK   12  A    between atoms: C_15  and  N_16
REMARK   13  A    between atoms: C_24  and  O_25
REMARK   14  A    between atoms: C_29  and  O_30
REMARK   15  A    between atoms: C_32  and  O_33
REMARK                            x       y       z     vdW  Elec       q    Type
REMARK                         _______ _______ _______ _____ _____    ______ ____
ROOT
ATOM      1  N   UNL     1       4.567   6.166  18.354  0.00  0.00    +0.000 N 
ATOM      2  C   UNL     1       4.987   5.132  19.186  0.00  0.00    +0.000 C 
ATOM      3  O   UNL     1       6.157   4.866  19.454  0.00  0.00    +0.000 OA
ATOM      4  C   UNL     1       3.992   4.085  19.407  0.00  0.00    +0.000 A 
ATOM      5  C   UNL     1       4.246   2.822  18.859  0.00  0.00    +0.000 A 
ATOM      6  C   UNL     1       3.270   1.849  18.956  0.00  0.00    +0.000 A 
ATOM      7  F   UNL     1       3.472   0.655  18.383  0.00  0.00    +0.000 F 
ATOM      8  C   UNL     1       2.070   2.107  19.607  0.00  0.00    +0.000 A 
ATOM      9  C   UNL     1       1.856   3.367  20.176  0.00  0.00    +0.000 A 
ATOM     10  C   UNL     1       2.825   4.378  20.094  0.00  0.00    +0.000 A 
ATOM     11  N   UNL     1       2.569   5.677  20.556  0.00  0.00    +0.000 N 
ATOM     12  C   UNL     1       2.553   6.828  19.732  0.00  0.00    +0.000 A 
ATOM     13  C   UNL     1       1.524   7.780  19.953  0.00  0.00    +0.000 A 
ATOM     14  C   UNL     1       1.358   8.908  19.158  0.00  0.00    +0.000 A 
ATOM     15  C   UNL     1       2.204   9.082  18.084  0.00  0.00    +0.000 A 
ATOM     16  C   UNL     1       3.213   8.157  17.812  0.00  0.00    +0.000 A 
ATOM     17  C   UNL     1       3.431   7.022  18.627  0.00  0.00    +0.000 A 
ATOM     18  H   UNL     1       1.984   5.695  21.381  0.00  0.00    +0.000 HD
ENDROOT
BRANCH   9  19
ATOM     19  O   UNL     1       0.662   3.659  20.785  0.00  0.00    +0.000 OA
ATOM     20  H   UNL     1       0.769   3.537  21.746  0.00  0.00    +0.000 HD
ENDBRANCH   9  19
BRANCH  13  21
ATOM     21  O   UNL     1       0.589   7.608  20.945  0.00  0.00    +0.000 OA
ATOM     22  H   UNL     1      -0.248   7.371  20.512  0.00  0.00    +0.000 HD
ENDBRANCH  13  21
BRANCH  15  23
ATOM     23  O   UNL     1       2.087  10.159  17.253  0.00  0.00    +0.000 OA
ATOM     24  H   UNL     1       2.384   9.894  16.373  0.00  0.00    +0.000 HD
ENDBRANCH  15  23
BRANCH   1  25
ATOM     25  C   UNL     1       5.347   6.274  17.130  0.00  0.00    +0.000 C 
BRANCH  25  28
ATOM     26  C   UNL     1       7.356   7.765  17.654  0.00  0.00    +0.000 C 
ATOM     27  C   UNL     1       8.081   6.712  18.448  0.00  0.00    +0.000 C 
ATOM     28  C   UNL     1       6.143   7.536  17.108  0.00  0.00    +0.000 C 
BRANCH  26  29
ATOM     29  C   UNL     1       8.081   9.103  17.525  0.00  0.00    +0.000 C 
BRANCH  29  30
ATOM     30  C   UNL     1       8.631   9.612  18.860  0.00  0.00    +0.000 C 
BRANCH  30  33
ATOM     31  C   UNL     1      10.136  11.271  19.924  0.00  0.00    +0.000 C 
ATOM     32  C   UNL     1       9.345  11.125  21.207  0.00  0.00    +0.000 C 
ATOM     33  C   UNL     1       9.790  10.559  18.829  0.00  0.00    +0.000 C 
BRANCH  31  34
ATOM     34  C   UNL     1      11.311  12.224  19.847  0.00  0.00    +0.000 C 
BRANCH  34  35
ATOM     35  C   UNL     1      11.008  13.681  20.206  0.00  0.00    +0.000 C 
BRANCH  35  39
ATOM     36  C   UNL     1       8.188  15.063  17.914  0.00  0.00    +0.000 C 
ATOM     37  C   UNL     1       9.557  14.691  18.404  0.00  0.00    +0.000 C 
ATOM     38  C   UNL     1      10.718  14.940  17.479  0.00  0.00    +0.000 C 
ATOM     39  C   UNL     1       9.709  14.165  19.635  0.00  0.00    +0.000 C 
ENDBRANCH  35  39
ENDBRANCH  34  35
ENDBRANCH  31  34
ENDBRANCH  30  33
ENDBRANCH  29  30
ENDBRANCH  26  29
ENDBRANCH  25  28
ENDBRANCH   1  25
TORSDOF 11
ENDMDL
