MODEL 1
REMARK VINA RESULT:      -8.0      0.000      0.000
REMARK  Name = 
REMARK  1 active torsions:
REMARK  status: ('A' for Active; 'I' for Inactive)
REMARK    1  A    between atoms: C_7  and  C_8
REMARK                            x       y       z     vdW  Elec       q    Type
REMARK                         _______ _______ _______ _____ _____    ______ ____
ROOT
ATOM      1  O   UNL     1       8.552   8.023  18.204  0.00  0.00    +0.000 OA
ATOM      2  C   UNL     1       7.594   7.304  17.947  0.00  0.00    +0.000 C 
ATOM      3  N   UNL     1       6.896   7.434  16.787  0.00  0.00    +0.000 N 
ATOM      4  C   UNL     1       5.824   6.686  16.392  0.00  0.00    +0.000 C 
ATOM      5  O   UNL     1       5.278   6.892  15.315  0.00  0.00    +0.000 OA
ATOM      6  C   UNL     1       5.396   5.624  17.340  0.00  0.00    +0.000 C 
ATOM      7  C   UNL     1       4.314   4.899  16.987  0.00  0.00    +0.000 C 
ATOM      8  C   UNL     1       6.175   5.425  18.592  0.00  0.00    +0.000 C 
ATOM      9  O   UNL     1       5.981   4.531  19.406  0.00  0.00    +0.000 OA
ATOM     10  N   UNL     1       7.179   6.331  18.801  0.00  0.00    +0.000 N 
ATOM     11  H   UNL     1       7.205   8.154  16.150  0.00  0.00    +0.000 HD
ATOM     12  H   UNL     1       7.718   6.212  19.647  0.00  0.00    +0.000 HD
ENDROOT
BRANCH   7  13
ATOM     13  C   UNL     1       3.722   3.787  17.751  0.00  0.00    +0.000 A 
ATOM     14  C   UNL     1       4.094   2.481  17.400  0.00  0.00    +0.000 A 
ATOM     15  C   UNL     1       3.504   1.389  18.029  0.00  0.00    +0.000 A 
ATOM     16  C   UNL     1       2.552   1.592  19.026  0.00  0.00    +0.000 A 
ATOM     17  C   UNL     1       2.198   2.888  19.430  0.00  0.00    +0.000 A 
ATOM     18  C   UNL     1       1.264   3.074  20.463  0.00  0.00    +0.000 A 
ATOM     19  C   UNL     1       0.911   4.354  20.890  0.00  0.00    +0.000 A 
ATOM     20  C   UNL     1       1.482   5.466  20.284  0.00  0.00    +0.000 A 
ATOM     21  C   UNL     1       2.404   5.297  19.249  0.00  0.00    +0.000 A 
ATOM     22  C   UNL     1       2.786   4.011  18.797  0.00  0.00    +0.000 A 
ENDBRANCH   7  13
TORSDOF 1
ENDMDL
MODEL 2
REMARK VINA RESULT:      -7.9      1.989      2.809
REMARK  Name = 
REMARK  1 active torsions:
REMARK  status: ('A' for Active; 'I' for Inactive)
REMARK    1  A    between atoms: C_7  and  C_8
REMARK                            x       y       z     vdW  Elec       q    Type
REMARK                         _______ _______ _______ _____ _____    ______ ____
ROOT
ATOM      1  O   UNL     1       7.261   5.182  13.787  0.00  0.00    +0.000 OA
ATOM      2  C   UNL     1       6.823   4.863  14.886  0.00  0.00    +0.000 C 
ATOM      3  N   UNL     1       7.620   4.830  15.988  0.00  0.00    +0.000 N 
ATOM      4  C   UNL     1       7.240   4.503  17.258  0.00  0.00    +0.000 C 
ATOM      5  O   UNL     1       8.050   4.515  18.177  0.00  0.00    +0.000 OA
ATOM      6  C   UNL     1       5.806   4.154  17.432  0.00  0.00    +0.000 C 
ATOM      7  C   UNL     1       5.419   3.789  18.673  0.00  0.00    +0.000 C 
ATOM      8  C   UNL     1       4.901   4.234  16.254  0.00  0.00    +0.000 C 
ATOM      9  O   UNL     1       3.689   4.061  16.285  0.00  0.00    +0.000 OA
ATOM     10  N   UNL     1       5.517   4.533  15.068  0.00  0.00    +0.000 N 
ATOM     11  H   UNL     1       8.589   5.078  15.854  0.00  0.00    +0.000 HD
ATOM     12  H   UNL     1       4.919   4.591  14.258  0.00  0.00    +0.000 HD
ENDROOT
BRANCH   7  13
ATOM     13  C   UNL     1       4.054   3.423  19.088  0.00  0.00    +0.000 A 
ATOM     14  C   UNL     1       3.677   2.077  18.981  0.00  0.00    +0.000 A 
ATOM     15  C   UNL     1       2.374   1.686  19.277  0.00  0.00    +0.000 A 
ATOM     16  C   UNL     1       1.444   2.632  19.701  0.00  0.00    +0.000 A 
ATOM     17  C   UNL     1       1.809   3.977  19.864  0.00  0.00    +0.000 A 
ATOM     18  C   UNL     1       0.868   4.911  20.329  0.00  0.00    +0.000 A 
ATOM     19  C   UNL     1       1.214   6.249  20.512  0.00  0.00    +0.000 A 
ATOM     20  C   UNL     1       2.506   6.673  20.227  0.00  0.00    +0.000 A 
ATOM     21  C   UNL     1       3.450   5.759  19.754  0.00  0.00    +0.000 A 
ATOM     22  C   UNL     1       3.129   4.393  19.562  0.00  0.00    +0.000 A 
ENDBRANCH   7  13
TORSDOF 1
ENDMDL
MODEL 3
REMARK VINA RESULT:      -7.9      1.725      2.895
REMARK  Name = 
REMARK  1 active torsions:
REMARK  status: ('A' for Active; 'I' for Inactive)
REMARK    1  A    between atoms: C_7  and  C_8
REMARK                            x       y       z     vdW  Elec       q    Type
REMARK                         _______ _______ _______ _____ _____    ______ ____
ROOT
ATOM      1  O   UNL     1       8.881   4.060  17.458  0.00  0.00    +0.000 OA
ATOM      2  C   UNL     1       7.738   4.501  17.497  0.00  0.00    +0.000 C 
ATOM      3  N   UNL     1       7.193   5.160  16.440  0.00  0.00    +0.000 N 
ATOM      4  C   UNL     1       5.933   5.681  16.366  0.00  0.00    +0.000 C 
ATOM      5  O   UNL     1       5.548   6.252  15.352  0.00  0.00    +0.000 OA
ATOM      6  C   UNL     1       5.087   5.495  17.574  0.00  0.00    +0.000 C 
ATOM      7  C   UNL     1       3.852   6.037  17.536  0.00  0.00    +0.000 C 
ATOM      8  C   UNL     1       5.640   4.731  18.724  0.00  0.00    +0.000 C 
ATOM      9  O   UNL     1       5.017   4.432  19.735  0.00  0.00    +0.000 OA
ATOM     10  N   UNL     1       6.948   4.349  18.592  0.00  0.00    +0.000 N 
ATOM     11  H   UNL     1       7.777   5.271  15.623  0.00  0.00    +0.000 HD
ATOM     12  H   UNL     1       7.341   3.830  19.364  0.00  0.00    +0.000 HD
ENDROOT
BRANCH   7  13
ATOM     13  C   UNL     1       2.835   5.964  18.600  0.00  0.00    +0.000 A 
ATOM     14  C   UNL     1       2.613   7.113  19.373  0.00  0.00    +0.000 A 
ATOM     15  C   UNL     1       1.727   7.078  20.446  0.00  0.00    +0.000 A 
ATOM     16  C   UNL     1       1.040   5.903  20.743  0.00  0.00    +0.000 A 
ATOM     17  C   UNL     1       1.206   4.753  19.954  0.00  0.00    +0.000 A 
ATOM     18  C   UNL     1       0.478   3.588  20.245  0.00  0.00    +0.000 A 
ATOM     19  C   UNL     1       0.617   2.441  19.464  0.00  0.00    +0.000 A 
ATOM     20  C   UNL     1       1.492   2.442  18.386  0.00  0.00    +0.000 A 
ATOM     21  C   UNL     1       2.232   3.589  18.091  0.00  0.00    +0.000 A 
ATOM     22  C   UNL     1       2.109   4.770  18.862  0.00  0.00    +0.000 A 
ENDBRANCH   7  13
TORSDOF 1
ENDMDL
MODEL 4
REMARK VINA RESULT:      -7.8      1.834      3.391
REMARK  Name = 
REMARK  1 active torsions:
REMARK  status: ('A' for Active; 'I' for Inactive)
REMARK    1  A    between atoms: C_7  and  C_8
REMARK                            x       y       z     vdW  Elec       q    Type
REMARK                         _______ _______ _______ _____ _____    ______ ____
ROOT
ATOM      1  O   UNL     1       7.622   5.261  14.064  0.00  0.00    +0.000 OA
ATOM      2  C   UNL     1       7.089   5.141  15.161  0.00  0.00    +0.000 C 
ATOM      3  N   UNL     1       7.805   4.808  16.268  0.00  0.00    +0.000 N 
ATOM      4  C   UNL     1       7.323   4.660  17.537  0.00  0.00    +0.000 C 
ATOM      5  O   UNL     1       8.070   4.363  18.461  0.00  0.00    +0.000 OA
ATOM      6  C   UNL     1       5.865   4.894  17.703  0.00  0.00    +0.000 C 
ATOM      7  C   UNL     1       5.361   4.714  18.942  0.00  0.00    +0.000 C 
ATOM      8  C   UNL     1       5.067   5.312  16.519  0.00  0.00    +0.000 C 
ATOM      9  O   UNL     1       3.883   5.622  16.543  0.00  0.00    +0.000 OA
ATOM     10  N   UNL     1       5.757   5.344  15.337  0.00  0.00    +0.000 N 
ATOM     11  H   UNL     1       8.796   4.661  16.140  0.00  0.00    +0.000 HD
ATOM     12  H   UNL     1       5.231   5.624  14.522  0.00  0.00    +0.000 HD
ENDROOT
BRANCH   7  13
ATOM     13  C   UNL     1       3.959   4.907  19.350  0.00  0.00    +0.000 A 
ATOM     14  C   UNL     1       3.590   6.164  19.852  0.00  0.00    +0.000 A 
ATOM     15  C   UNL     1       2.302   6.379  20.332  0.00  0.00    +0.000 A 
ATOM     16  C   UNL     1       1.365   5.348  20.295  0.00  0.00    +0.000 A 
ATOM     17  C   UNL     1       1.693   4.096  19.752  0.00  0.00    +0.000 A 
ATOM     18  C   UNL     1       0.725   3.080  19.689  0.00  0.00    +0.000 A 
ATOM     19  C   UNL     1       1.027   1.835  19.140  0.00  0.00    +0.000 A 
ATOM     20  C   UNL     1       2.303   1.587  18.651  0.00  0.00    +0.000 A 
ATOM     21  C   UNL     1       3.279   2.583  18.716  0.00  0.00    +0.000 A 
ATOM     22  C   UNL     1       3.002   3.859  19.265  0.00  0.00    +0.000 A 
ENDBRANCH   7  13
TORSDOF 1
ENDMDL
MODEL 5
REMARK VINA RESULT:      -7.7      1.223      2.092
REMARK  Name = 
REMARK  1 active torsions:
REMARK  status: ('A' for Active; 'I' for Inactive)
REMARK    1  A    between atoms: C_7  and  C_8
REMARK                            x       y       z     vdW  Elec       q    Type
REMARK                         _______ _______ _______ _____ _____    ______ ____
ROOT
ATOM      1  O   UNL     1       8.018   8.677  17.132  0.00  0.00    +0.000 OA
ATOM      2  C   UNL     1       7.484   7.659  17.558  0.00  0.00    +0.000 C 
ATOM      3  N   UNL     1       8.043   6.926  18.557  0.00  0.00    +0.000 N 
ATOM      4  C   UNL     1       7.534   5.789  19.116  0.00  0.00    +0.000 C 
ATOM      5  O   UNL     1       8.128   5.215  20.022  0.00  0.00    +0.000 OA
ATOM      6  C   UNL     1       6.235   5.324  18.562  0.00  0.00    +0.000 C 
ATOM      7  C   UNL     1       5.735   4.180  19.074  0.00  0.00    +0.000 C 
ATOM      8  C   UNL     1       5.576   6.137  17.505  0.00  0.00    +0.000 C 
ATOM      9  O   UNL     1       4.468   5.913  17.034  0.00  0.00    +0.000 OA
ATOM     10  N   UNL     1       6.300   7.211  17.063  0.00  0.00    +0.000 N 
ATOM     11  H   UNL     1       8.920   7.260  18.929  0.00  0.00    +0.000 HD
ATOM     12  H   UNL     1       5.868   7.774  16.344  0.00  0.00    +0.000 HD
ENDROOT
BRANCH   7  13
ATOM     13  C   UNL     1       4.461   3.541  18.699  0.00  0.00    +0.000 A 
ATOM     14  C   UNL     1       4.488   2.577  17.680  0.00  0.00    +0.000 A 
ATOM     15  C   UNL     1       3.305   2.002  17.225  0.00  0.00    +0.000 A 
ATOM     16  C   UNL     1       2.089   2.370  17.797  0.00  0.00    +0.000 A 
ATOM     17  C   UNL     1       2.039   3.295  18.852  0.00  0.00    +0.000 A 
ATOM     18  C   UNL     1       0.808   3.625  19.441  0.00  0.00    +0.000 A 
ATOM     19  C   UNL     1       0.739   4.530  20.500  0.00  0.00    +0.000 A 
ATOM     20  C   UNL     1       1.901   5.122  20.979  0.00  0.00    +0.000 A 
ATOM     21  C   UNL     1       3.131   4.812  20.396  0.00  0.00    +0.000 A 
ATOM     22  C   UNL     1       3.234   3.894  19.323  0.00  0.00    +0.000 A 
ENDBRANCH   7  13
TORSDOF 1
ENDMDL
MODEL 6
REMARK VINA RESULT:      -7.6      2.154      2.927
REMARK  Name = 
REMARK  1 active torsions:
REMARK  status: ('A' for Active; 'I' for Inactive)
REMARK    1  A    between atoms: C_7  and  C_8
REMARK                            x       y       z     vdW  Elec       q    Type
REMARK                         _______ _______ _______ _____ _____    ______ ____
ROOT
ATOM      1  O   UNL     1       6.861   4.540  13.252  0.00  0.00    +0.000 OA
ATOM      2  C   UNL     1       6.597   4.630  14.445  0.00  0.00    +0.000 C 
ATOM      3  N   UNL     1       7.332   5.411  15.281  0.00  0.00    +0.000 N 
ATOM      4  C   UNL     1       7.124   5.597  16.617  0.00  0.00    +0.000 C 
ATOM      5  O   UNL     1       7.853   6.335  17.270  0.00  0.00    +0.000 OA
ATOM      6  C   UNL     1       5.968   4.864  17.197  0.00  0.00    +0.000 C 
ATOM      7  C   UNL     1       5.769   5.002  18.525  0.00  0.00    +0.000 C 
ATOM      8  C   UNL     1       5.115   4.045  16.295  0.00  0.00    +0.000 C 
ATOM      9  O   UNL     1       4.087   3.469  16.631  0.00  0.00    +0.000 OA
ATOM     10  N   UNL     1       5.550   3.964  15.000  0.00  0.00    +0.000 N 
ATOM     11  H   UNL     1       8.108   5.910  14.870  0.00  0.00    +0.000 HD
ATOM     12  H   UNL     1       4.983   3.411  14.373  0.00  0.00    +0.000 HD
ENDROOT
BRANCH   7  13
ATOM     13  C   UNL     1       4.683   4.393  19.312  0.00  0.00    +0.000 A 
ATOM     14  C   UNL     1       4.810   3.041  19.664  0.00  0.00    +0.000 A 
ATOM     15  C   UNL     1       3.778   2.389  20.332  0.00  0.00    +0.000 A 
ATOM     16  C   UNL     1       2.620   3.085  20.673  0.00  0.00    +0.000 A 
ATOM     17  C   UNL     1       2.489   4.451  20.376  0.00  0.00    +0.000 A 
ATOM     18  C   UNL     1       1.331   5.147  20.760  0.00  0.00    +0.000 A 
ATOM     19  C   UNL     1       1.187   6.507  20.489  0.00  0.00    +0.000 A 
ATOM     20  C   UNL     1       2.199   7.189  19.824  0.00  0.00    +0.000 A 
ATOM     21  C   UNL     1       3.351   6.508  19.426  0.00  0.00    +0.000 A 
ATOM     22  C   UNL     1       3.528   5.129  19.691  0.00  0.00    +0.000 A 
ENDBRANCH   7  13
TORSDOF 1
ENDMDL
MODEL 7
REMARK VINA RESULT:      -7.6      2.216      3.601
REMARK  Name = 
REMARK  1 active torsions:
REMARK  status: ('A' for Active; 'I' for Inactive)
REMARK    1  A    between atoms: C_7  and  C_8
REMARK                            x       y       z     vdW  Elec       q    Type
REMARK                         _______ _______ _______ _____ _____    ______ ____
ROOT
ATOM      1  O   UNL     1       6.765   3.925  13.340  0.00  0.00    +0.000 OA
ATOM      2  C   UNL     1       6.424   4.376  14.427  0.00  0.00    +0.000 C 
ATOM      3  N   UNL     1       7.220   5.227  15.127  0.00  0.00    +0.000 N 
ATOM      4  C   UNL     1       6.940   5.798  16.335  0.00  0.00    +0.000 C 
ATOM      5  O   UNL     1       7.737   6.560  16.869  0.00  0.00    +0.000 OA
ATOM      6  C   UNL     1       5.623   5.443  16.925  0.00  0.00    +0.000 C 
ATOM      7  C   UNL     1       5.343   5.965  18.137  0.00  0.00    +0.000 C 
ATOM      8  C   UNL     1       4.709   4.556  16.155  0.00  0.00    +0.000 C 
ATOM      9  O   UNL     1       3.568   4.264  16.488  0.00  0.00    +0.000 OA
ATOM     10  N   UNL     1       5.228   4.060  14.990  0.00  0.00    +0.000 N 
ATOM     11  H   UNL     1       8.108   5.466  14.708  0.00  0.00    +0.000 HD
ATOM     12  H   UNL     1       4.622   3.455  14.455  0.00  0.00    +0.000 HD
ENDROOT
BRANCH   7  13
ATOM     13  C   UNL     1       4.100   5.772  18.904  0.00  0.00    +0.000 A 
ATOM     14  C   UNL     1       3.175   6.826  18.927  0.00  0.00    +0.000 A 
ATOM     15  C   UNL     1       2.023   6.734  19.704  0.00  0.00    +0.000 A 
ATOM     16  C   UNL     1       1.776   5.582  20.447  0.00  0.00    +0.000 A 
ATOM     17  C   UNL     1       2.660   4.493  20.402  0.00  0.00    +0.000 A 
ATOM     18  C   UNL     1       2.376   3.324  21.128  0.00  0.00    +0.000 A 
ATOM     19  C   UNL     1       3.234   2.226  21.084  0.00  0.00    +0.000 A 
ATOM     20  C   UNL     1       4.392   2.284  20.319  0.00  0.00    +0.000 A 
ATOM     21  C   UNL     1       4.693   3.443  19.601  0.00  0.00    +0.000 A 
ATOM     22  C   UNL     1       3.840   4.572  19.621  0.00  0.00    +0.000 A 
ENDBRANCH   7  13
TORSDOF 1
ENDMDL
MODEL 8
REMARK VINA RESULT:      -7.4      3.708      5.304
REMARK  Name = 
REMARK  1 active torsions:
REMARK  status: ('A' for Active; 'I' for Inactive)
REMARK    1  A    between atoms: C_7  and  C_8
REMARK                            x       y       z     vdW  Elec       q    Type
REMARK                         _______ _______ _______ _____ _____    ______ ____
ROOT
ATOM      1  O   UNL     1       0.708   9.848  22.463  0.00  0.00    +0.000 OA
ATOM      2  C   UNL     1       1.062   9.277  21.439  0.00  0.00    +0.000 C 
ATOM      3  N   UNL     1       1.004   9.889  20.226  0.00  0.00    +0.000 N 
ATOM      4  C   UNL     1       1.381   9.357  19.026  0.00  0.00    +0.000 C 
ATOM      5  O   UNL     1       1.289  10.011  17.993  0.00  0.00    +0.000 OA
ATOM      6  C   UNL     1       1.907   7.968  19.074  0.00  0.00    +0.000 C 
ATOM      7  C   UNL     1       2.248   7.409  17.893  0.00  0.00    +0.000 C 
ATOM      8  C   UNL     1       2.031   7.294  20.394  0.00  0.00    +0.000 C 
ATOM      9  O   UNL     1       2.532   6.192  20.577  0.00  0.00    +0.000 OA
ATOM     10  N   UNL     1       1.540   8.005  21.457  0.00  0.00    +0.000 N 
ATOM     11  H   UNL     1       0.653  10.835  20.211  0.00  0.00    +0.000 HD
ATOM     12  H   UNL     1       1.615   7.562  22.361  0.00  0.00    +0.000 HD
ENDROOT
BRANCH   7  13
ATOM     13  C   UNL     1       2.808   6.061  17.696  0.00  0.00    +0.000 A 
ATOM     14  C   UNL     1       1.925   4.973  17.746  0.00  0.00    +0.000 A 
ATOM     15  C   UNL     1       2.408   3.671  17.652  0.00  0.00    +0.000 A 
ATOM     16  C   UNL     1       3.773   3.446  17.486  0.00  0.00    +0.000 A 
ATOM     17  C   UNL     1       4.672   4.519  17.383  0.00  0.00    +0.000 A 
ATOM     18  C   UNL     1       6.040   4.275  17.178  0.00  0.00    +0.000 A 
ATOM     19  C   UNL     1       6.947   5.328  17.058  0.00  0.00    +0.000 A 
ATOM     20  C   UNL     1       6.498   6.640  17.146  0.00  0.00    +0.000 A 
ATOM     21  C   UNL     1       5.142   6.898  17.360  0.00  0.00    +0.000 A 
ATOM     22  C   UNL     1       4.197   5.851  17.482  0.00  0.00    +0.000 A 
ENDBRANCH   7  13
TORSDOF 1
ENDMDL
MODEL 9
REMARK VINA RESULT:      -7.4      3.360      5.921
REMARK  Name = 
REMARK  1 active torsions:
REMARK  status: ('A' for Active; 'I' for Inactive)
REMARK    1  A    between atoms: C_7  and  C_8
REMARK                            x       y       z     vdW  Elec       q    Type
REMARK                         _______ _______ _______ _____ _____    ______ ____
ROOT
ATOM      1  O   UNL     1       1.174   2.111  22.204  0.00  0.00    +0.000 OA
ATOM      2  C   UNL     1       1.862   2.866  21.528  0.00  0.00    +0.000 C 
ATOM      3  N   UNL     1       1.479   4.147  21.278  0.00  0.00    +0.000 N 
ATOM      4  C   UNL     1       2.168   5.076  20.553  0.00  0.00    +0.000 C 
ATOM      5  O   UNL     1       1.724   6.208  20.400  0.00  0.00    +0.000 OA
ATOM      6  C   UNL     1       3.467   4.622  19.990  0.00  0.00    +0.000 C 
ATOM      7  C   UNL     1       4.144   5.513  19.237  0.00  0.00    +0.000 C 
ATOM      8  C   UNL     1       3.934   3.242  20.293  0.00  0.00    +0.000 C 
ATOM      9  O   UNL     1       5.021   2.781  19.968  0.00  0.00    +0.000 OA
ATOM     10  N   UNL     1       3.049   2.471  20.998  0.00  0.00    +0.000 N 
ATOM     11  H   UNL     1       0.599   4.443  21.675  0.00  0.00    +0.000 HD
ATOM     12  H   UNL     1       3.350   1.531  21.212  0.00  0.00    +0.000 HD
ENDROOT
BRANCH   7  13
ATOM     13  C   UNL     1       5.453   5.297  18.597  0.00  0.00    +0.000 A 
ATOM     14  C   UNL     1       6.603   5.522  19.368  0.00  0.00    +0.000 A 
ATOM     15  C   UNL     1       7.867   5.417  18.794  0.00  0.00    +0.000 A 
ATOM     16  C   UNL     1       7.993   5.067  17.452  0.00  0.00    +0.000 A 
ATOM     17  C   UNL     1       6.861   4.788  16.671  0.00  0.00    +0.000 A 
ATOM     18  C   UNL     1       7.009   4.400  15.329  0.00  0.00    +0.000 A 
ATOM     19  C   UNL     1       5.898   4.103  14.541  0.00  0.00    +0.000 A 
ATOM     20  C   UNL     1       4.622   4.197  15.083  0.00  0.00    +0.000 A 
ATOM     21  C   UNL     1       4.458   4.592  16.412  0.00  0.00    +0.000 A 
ATOM     22  C   UNL     1       5.567   4.895  17.238  0.00  0.00    +0.000 A 
ENDBRANCH   7  13
TORSDOF 1
ENDMDL
