MODEL 1
REMARK VINA RESULT:      -7.8      0.000      0.000
REMARK  Name = 
REMARK  5 active torsions:
REMARK  status: ('A' for Active; 'I' for Inactive)
REMARK    1  A    between atoms: C_1  and  C_2
REMARK    2  A    between atoms: C_7  and  C_8
REMARK    3  A    between atoms: C_9  and  C_10
REMARK    4  A    between atoms: N_16  and  C_17
REMARK    5  A    between atoms: C_22  and  C_23
REMARK                            x       y       z     vdW  Elec       q    Type
REMARK                         _______ _______ _______ _____ _____    ______ ____
ROOT
ATOM      1  C   UNL     1      -0.202  10.316  20.966  0.00  0.00    +0.000 C 
ATOM      2  C   UNL     1       0.737   9.555  20.077  0.00  0.00    +0.000 A 
ATOM      3  C   UNL     1       1.274  10.136  18.922  0.00  0.00    +0.000 A 
ATOM      4  C   UNL     1       2.157   9.415  18.112  0.00  0.00    +0.000 A 
ATOM      5  C   UNL     1       2.516   8.104  18.435  0.00  0.00    +0.000 A 
ATOM      6  N   UNL     1       3.376   7.409  17.581  0.00  0.00    +0.000 NA
ATOM      7  C   UNL     1       3.591   6.144  17.800  0.00  0.00    +0.000 A 
ATOM      8  N   UNL     1       3.044   5.451  18.883  0.00  0.00    +0.000 N 
ATOM      9  C   UNL     1       2.339   6.136  19.879  0.00  0.00    +0.000 A 
ATOM     10  O   UNL     1       2.031   5.683  20.981  0.00  0.00    +0.000 OA
ATOM     11  C   UNL     1       1.978   7.530  19.579  0.00  0.00    +0.000 A 
ATOM     12  C   UNL     1       1.099   8.243  20.404  0.00  0.00    +0.000 A 
ENDROOT
BRANCH   8  13
ATOM     13  C   UNL     1       3.248   4.046  19.081  0.00  0.00    +0.000 A 
ATOM     14  C   UNL     1       4.447   3.597  19.660  0.00  0.00    +0.000 A 
ATOM     15  C   UNL     1       4.724   2.235  19.763  0.00  0.00    +0.000 A 
ATOM     16  C   UNL     1       3.796   1.303  19.308  0.00  0.00    +0.000 A 
ATOM     17  C   UNL     1       2.584   1.732  18.770  0.00  0.00    +0.000 A 
ATOM     18  C   UNL     1       2.289   3.101  18.650  0.00  0.00    +0.000 A 
ATOM     19  C   UNL     1       0.985   3.493  18.005  0.00  0.00    +0.000 C 
ENDBRANCH   8  13
BRANCH   7  20
ATOM     20  C   UNL     1       4.392   5.384  16.796  0.00  0.00    +0.000 C 
ATOM     21  C   UNL     1       5.000   6.011  15.775  0.00  0.00    +0.000 C 
BRANCH  21  22
ATOM     22  C   UNL     1       5.745   5.299  14.724  0.00  0.00    +0.000 A 
ATOM     23  C   UNL     1       5.141   4.277  13.998  0.00  0.00    +0.000 A 
ATOM     24  C   UNL     1       5.892   3.595  13.042  0.00  0.00    +0.000 A 
ATOM     25  C   UNL     1       7.218   3.953  12.836  0.00  0.00    +0.000 A 
ATOM     26  C   UNL     1       7.737   4.988  13.592  0.00  0.00    +0.000 A 
ATOM     27  N   UNL     1       7.033   5.666  14.524  0.00  0.00    +0.000 NA
ENDBRANCH  21  22
ENDBRANCH   7  20
TORSDOF 3
ENDMDL
MODEL 2
REMARK VINA RESULT:      -7.6      0.418      1.360
REMARK  Name = 
REMARK  5 active torsions:
REMARK  status: ('A' for Active; 'I' for Inactive)
REMARK    1  A    between atoms: C_1  and  C_2
REMARK    2  A    between atoms: C_7  and  C_8
REMARK    3  A    between atoms: C_9  and  C_10
REMARK    4  A    between atoms: N_16  and  C_17
REMARK    5  A    between atoms: C_22  and  C_23
REMARK                            x       y       z     vdW  Elec       q    Type
REMARK                         _______ _______ _______ _____ _____    ______ ____
ROOT
ATOM      1  C   UNL     1       0.109  10.501  21.179  0.00  0.00    +0.000 C 
ATOM      2  C   UNL     1       0.918   9.739  20.172  0.00  0.00    +0.000 A 
ATOM      3  C   UNL     1       1.344  10.336  18.981  0.00  0.00    +0.000 A 
ATOM      4  C   UNL     1       2.108   9.613  18.058  0.00  0.00    +0.000 A 
ATOM      5  C   UNL     1       2.455   8.282  18.306  0.00  0.00    +0.000 A 
ATOM      6  N   UNL     1       3.192   7.586  17.344  0.00  0.00    +0.000 NA
ATOM      7  C   UNL     1       3.386   6.309  17.505  0.00  0.00    +0.000 A 
ATOM      8  N   UNL     1       2.938   5.602  18.623  0.00  0.00    +0.000 N 
ATOM      9  C   UNL     1       2.370   6.279  19.709  0.00  0.00    +0.000 A 
ATOM     10  O   UNL     1       2.169   5.803  20.826  0.00  0.00    +0.000 OA
ATOM     11  C   UNL     1       2.027   7.692  19.487  0.00  0.00    +0.000 A 
ATOM     12  C   UNL     1       1.268   8.407  20.423  0.00  0.00    +0.000 A 
ENDROOT
BRANCH   8  13
ATOM     13  C   UNL     1       3.114   4.186  18.761  0.00  0.00    +0.000 A 
ATOM     14  C   UNL     1       2.032   3.327  18.504  0.00  0.00    +0.000 A 
ATOM     15  C   UNL     1       2.138   1.956  18.737  0.00  0.00    +0.000 A 
ATOM     16  C   UNL     1       3.333   1.424  19.210  0.00  0.00    +0.000 A 
ATOM     17  C   UNL     1       4.429   2.257  19.429  0.00  0.00    +0.000 A 
ATOM     18  C   UNL     1       4.341   3.643  19.209  0.00  0.00    +0.000 A 
ATOM     19  C   UNL     1       5.545   4.491  19.523  0.00  0.00    +0.000 C 
ENDBRANCH   8  13
BRANCH   7  20
ATOM     20  C   UNL     1       4.045   5.555  16.399  0.00  0.00    +0.000 C 
ATOM     21  C   UNL     1       5.258   5.909  15.944  0.00  0.00    +0.000 C 
BRANCH  21  22
ATOM     22  C   UNL     1       5.920   5.238  14.813  0.00  0.00    +0.000 A 
ATOM     23  C   UNL     1       5.253   4.259  14.083  0.00  0.00    +0.000 A 
ATOM     24  C   UNL     1       5.927   3.612  13.049  0.00  0.00    +0.000 A 
ATOM     25  C   UNL     1       7.242   3.964  12.770  0.00  0.00    +0.000 A 
ATOM     26  C   UNL     1       7.826   4.956  13.535  0.00  0.00    +0.000 A 
ATOM     27  N   UNL     1       7.198   5.598  14.543  0.00  0.00    +0.000 NA
ENDBRANCH  21  22
ENDBRANCH   7  20
TORSDOF 3
ENDMDL
MODEL 3
REMARK VINA RESULT:      -7.5      3.676      9.712
REMARK  Name = 
REMARK  5 active torsions:
REMARK  status: ('A' for Active; 'I' for Inactive)
REMARK    1  A    between atoms: C_1  and  C_2
REMARK    2  A    between atoms: C_7  and  C_8
REMARK    3  A    between atoms: C_9  and  C_10
REMARK    4  A    between atoms: N_16  and  C_17
REMARK    5  A    between atoms: C_22  and  C_23
REMARK                            x       y       z     vdW  Elec       q    Type
REMARK                         _______ _______ _______ _____ _____    ______ ____
ROOT
ATOM      1  C   UNL     1       2.761   4.233  17.658  0.00  0.00    +0.000 C 
ATOM      2  C   UNL     1       2.378   5.325  18.612  0.00  0.00    +0.000 A 
ATOM      3  C   UNL     1       2.171   5.062  19.971  0.00  0.00    +0.000 A 
ATOM      4  C   UNL     1       1.826   6.095  20.849  0.00  0.00    +0.000 A 
ATOM      5  C   UNL     1       1.676   7.404  20.387  0.00  0.00    +0.000 A 
ATOM      6  N   UNL     1       1.299   8.401  21.291  0.00  0.00    +0.000 NA
ATOM      7  C   UNL     1       1.014   9.587  20.836  0.00  0.00    +0.000 A 
ATOM      8  N   UNL     1       1.116   9.933  19.486  0.00  0.00    +0.000 N 
ATOM      9  C   UNL     1       1.677   9.040  18.566  0.00  0.00    +0.000 A 
ATOM     10  O   UNL     1       2.039   9.320  17.423  0.00  0.00    +0.000 OA
ATOM     11  C   UNL     1       1.878   7.661  19.038  0.00  0.00    +0.000 A 
ATOM     12  C   UNL     1       2.232   6.638  18.149  0.00  0.00    +0.000 A 
ENDROOT
BRANCH   8  13
ATOM     13  C   UNL     1       0.749  11.228  18.993  0.00  0.00    +0.000 A 
ATOM     14  C   UNL     1       1.646  12.301  19.135  0.00  0.00    +0.000 A 
ATOM     15  C   UNL     1       1.275  13.594  18.769  0.00  0.00    +0.000 A 
ATOM     16  C   UNL     1       0.011  13.828  18.237  0.00  0.00    +0.000 A 
ATOM     17  C   UNL     1      -0.874  12.768  18.050  0.00  0.00    +0.000 A 
ATOM     18  C   UNL     1      -0.523  11.457  18.420  0.00  0.00    +0.000 A 
ATOM     19  C   UNL     1      -1.550  10.370  18.245  0.00  0.00    +0.000 C 
ENDBRANCH   8  13
BRANCH   7  20
ATOM     20  C   UNL     1       0.471  10.594  21.794  0.00  0.00    +0.000 C 
ATOM     21  C   UNL     1      -0.809  10.996  21.726  0.00  0.00    +0.000 C 
BRANCH  21  22
ATOM     22  C   UNL     1      -1.373  12.034  22.604  0.00  0.00    +0.000 A 
ATOM     23  C   UNL     1      -2.630  11.869  23.177  0.00  0.00    +0.000 A 
ATOM     24  C   UNL     1      -3.151  12.893  23.966  0.00  0.00    +0.000 A 
ATOM     25  C   UNL     1      -2.402  14.046  24.166  0.00  0.00    +0.000 A 
ATOM     26  C   UNL     1      -1.157  14.123  23.570  0.00  0.00    +0.000 A 
ATOM     27  N   UNL     1      -0.628  13.148  22.801  0.00  0.00    +0.000 NA
ENDBRANCH  21  22
ENDBRANCH   7  20
TORSDOF 3
ENDMDL
MODEL 4
REMARK VINA RESULT:      -7.3      2.812      4.796
REMARK  Name = 
REMARK  5 active torsions:
REMARK  status: ('A' for Active; 'I' for Inactive)
REMARK    1  A    between atoms: C_1  and  C_2
REMARK    2  A    between atoms: C_7  and  C_8
REMARK    3  A    between atoms: C_9  and  C_10
REMARK    4  A    between atoms: N_16  and  C_17
REMARK    5  A    between atoms: C_22  and  C_23
REMARK                            x       y       z     vdW  Elec       q    Type
REMARK                         _______ _______ _______ _____ _____    ______ ____
ROOT
ATOM      1  C   UNL     1       1.045   2.495  22.323  0.00  0.00    +0.000 C 
ATOM      2  C   UNL     1       1.815   2.612  21.040  0.00  0.00    +0.000 A 
ATOM      3  C   UNL     1       1.721   1.632  20.046  0.00  0.00    +0.000 A 
ATOM      4  C   UNL     1       2.437   1.763  18.851  0.00  0.00    +0.000 A 
ATOM      5  C   UNL     1       3.260   2.869  18.630  0.00  0.00    +0.000 A 
ATOM      6  N   UNL     1       3.983   2.946  17.437  0.00  0.00    +0.000 NA
ATOM      7  C   UNL     1       4.861   3.896  17.294  0.00  0.00    +0.000 A 
ATOM      8  N   UNL     1       5.086   4.882  18.258  0.00  0.00    +0.000 N 
ATOM      9  C   UNL     1       4.258   4.974  19.383  0.00  0.00    +0.000 A 
ATOM     10  O   UNL     1       4.203   5.929  20.158  0.00  0.00    +0.000 OA
ATOM     11  C   UNL     1       3.354   3.837  19.621  0.00  0.00    +0.000 A 
ATOM     12  C   UNL     1       2.637   3.723  20.818  0.00  0.00    +0.000 A 
ENDROOT
BRANCH   8  13
ATOM     13  C   UNL     1       6.093   5.890  18.109  0.00  0.00    +0.000 A 
ATOM     14  C   UNL     1       7.332   5.730  18.754  0.00  0.00    +0.000 A 
ATOM     15  C   UNL     1       8.289   6.743  18.722  0.00  0.00    +0.000 A 
ATOM     16  C   UNL     1       8.030   7.920  18.027  0.00  0.00    +0.000 A 
ATOM     17  C   UNL     1       6.823   8.076  17.346  0.00  0.00    +0.000 A 
ATOM     18  C   UNL     1       5.841   7.071  17.374  0.00  0.00    +0.000 A 
ATOM     19  C   UNL     1       4.538   7.332  16.666  0.00  0.00    +0.000 C 
ENDBRANCH   8  13
BRANCH   7  20
ATOM     20  C   UNL     1       5.727   3.875  16.078  0.00  0.00    +0.000 C 
ATOM     21  C   UNL     1       5.289   4.366  14.907  0.00  0.00    +0.000 C 
BRANCH  21  22
ATOM     22  C   UNL     1       6.080   4.309  13.667  0.00  0.00    +0.000 A 
ATOM     23  C   UNL     1       5.769   3.387  12.672  0.00  0.00    +0.000 A 
ATOM     24  C   UNL     1       6.569   3.331  11.531  0.00  0.00    +0.000 A 
ATOM     25  C   UNL     1       7.648   4.197  11.414  0.00  0.00    +0.000 A 
ATOM     26  C   UNL     1       7.879   5.091  12.443  0.00  0.00    +0.000 A 
ATOM     27  N   UNL     1       7.123   5.167  13.559  0.00  0.00    +0.000 NA
ENDBRANCH  21  22
ENDBRANCH   7  20
TORSDOF 3
ENDMDL
MODEL 5
REMARK VINA RESULT:      -7.2      3.911     10.235
REMARK  Name = 
REMARK  5 active torsions:
REMARK  status: ('A' for Active; 'I' for Inactive)
REMARK    1  A    between atoms: C_1  and  C_2
REMARK    2  A    between atoms: C_7  and  C_8
REMARK    3  A    between atoms: C_9  and  C_10
REMARK    4  A    between atoms: N_16  and  C_17
REMARK    5  A    between atoms: C_22  and  C_23
REMARK                            x       y       z     vdW  Elec       q    Type
REMARK                         _______ _______ _______ _____ _____    ______ ____
ROOT
ATOM      1  C   UNL     1       2.720   5.002  17.818  0.00  0.00    +0.000 C 
ATOM      2  C   UNL     1       2.242   6.065  18.762  0.00  0.00    +0.000 A 
ATOM      3  C   UNL     1       1.815   5.747  20.056  0.00  0.00    +0.000 A 
ATOM      4  C   UNL     1       1.383   6.752  20.928  0.00  0.00    +0.000 A 
ATOM      5  C   UNL     1       1.365   8.089  20.523  0.00  0.00    +0.000 A 
ATOM      6  N   UNL     1       0.896   9.058  21.413  0.00  0.00    +0.000 NA
ATOM      7  C   UNL     1       0.739  10.278  20.988  0.00  0.00    +0.000 A 
ATOM      8  N   UNL     1       1.065  10.684  19.691  0.00  0.00    +0.000 N 
ATOM      9  C   UNL     1       1.722   9.809  18.819  0.00  0.00    +0.000 A 
ATOM     10  O   UNL     1       2.269  10.125  17.763  0.00  0.00    +0.000 OA
ATOM     11  C   UNL     1       1.786   8.400  19.237  0.00  0.00    +0.000 A 
ATOM     12  C   UNL     1       2.228   7.404  18.357  0.00  0.00    +0.000 A 
ENDROOT
BRANCH   8  13
ATOM     13  C   UNL     1       0.837  12.019  19.222  0.00  0.00    +0.000 A 
ATOM     14  C   UNL     1       1.845  12.987  19.374  0.00  0.00    +0.000 A 
ATOM     15  C   UNL     1       1.613  14.319  19.031  0.00  0.00    +0.000 A 
ATOM     16  C   UNL     1       0.379  14.696  18.513  0.00  0.00    +0.000 A 
ATOM     17  C   UNL     1      -0.617  13.740  18.316  0.00  0.00    +0.000 A 
ATOM     18  C   UNL     1      -0.407  12.394  18.663  0.00  0.00    +0.000 A 
ATOM     19  C   UNL     1      -1.547  11.427  18.479  0.00  0.00    +0.000 C 
ENDBRANCH   8  13
BRANCH   7  20
ATOM     20  C   UNL     1       0.099  11.265  21.907  0.00  0.00    +0.000 C 
ATOM     21  C   UNL     1      -1.224  11.237  22.142  0.00  0.00    +0.000 C 
BRANCH  21  22
ATOM     22  C   UNL     1      -1.910  12.227  22.987  0.00  0.00    +0.000 A 
ATOM     23  C   UNL     1      -1.329  13.465  23.241  0.00  0.00    +0.000 A 
ATOM     24  C   UNL     1      -1.987  14.359  24.084  0.00  0.00    +0.000 A 
ATOM     25  C   UNL     1      -3.205  13.996  24.644  0.00  0.00    +0.000 A 
ATOM     26  C   UNL     1      -3.718  12.751  24.330  0.00  0.00    +0.000 A 
ATOM     27  N   UNL     1      -3.103  11.865  23.518  0.00  0.00    +0.000 NA
ENDBRANCH  21  22
ENDBRANCH   7  20
TORSDOF 3
ENDMDL
MODEL 6
REMARK VINA RESULT:      -7.2      1.880      6.864
REMARK  Name = 
REMARK  5 active torsions:
REMARK  status: ('A' for Active; 'I' for Inactive)
REMARK    1  A    between atoms: C_1  and  C_2
REMARK    2  A    between atoms: C_7  and  C_8
REMARK    3  A    between atoms: C_9  and  C_10
REMARK    4  A    between atoms: N_16  and  C_17
REMARK    5  A    between atoms: C_22  and  C_23
REMARK                            x       y       z     vdW  Elec       q    Type
REMARK                         _______ _______ _______ _____ _____    ______ ____
ROOT
ATOM      1  C   UNL     1       7.098   3.971  13.552  0.00  0.00    +0.000 C 
ATOM      2  C   UNL     1       6.245   4.677  14.563  0.00  0.00    +0.000 A 
ATOM      3  C   UNL     1       6.222   6.073  14.645  0.00  0.00    +0.000 A 
ATOM      4  C   UNL     1       5.411   6.715  15.588  0.00  0.00    +0.000 A 
ATOM      5  C   UNL     1       4.614   5.977  16.465  0.00  0.00    +0.000 A 
ATOM      6  N   UNL     1       3.843   6.656  17.412  0.00  0.00    +0.000 NA
ATOM      7  C   UNL     1       3.219   5.968  18.324  0.00  0.00    +0.000 A 
ATOM      8  N   UNL     1       3.237   4.572  18.376  0.00  0.00    +0.000 N 
ATOM      9  C   UNL     1       3.825   3.832  17.343  0.00  0.00    +0.000 A 
ATOM     10  O   UNL     1       3.688   2.623  17.159  0.00  0.00    +0.000 OA
ATOM     11  C   UNL     1       4.642   4.591  16.384  0.00  0.00    +0.000 A 
ATOM     12  C   UNL     1       5.443   3.935  15.440  0.00  0.00    +0.000 A 
ENDROOT
BRANCH   8  13
ATOM     13  C   UNL     1       2.588   3.831  19.417  0.00  0.00    +0.000 A 
ATOM     14  C   UNL     1       1.186   3.868  19.520  0.00  0.00    +0.000 A 
ATOM     15  C   UNL     1       0.533   3.251  20.587  0.00  0.00    +0.000 A 
ATOM     16  C   UNL     1       1.270   2.571  21.551  0.00  0.00    +0.000 A 
ATOM     17  C   UNL     1       2.657   2.489  21.439  0.00  0.00    +0.000 A 
ATOM     18  C   UNL     1       3.336   3.111  20.377  0.00  0.00    +0.000 A 
ATOM     19  C   UNL     1       4.840   3.032  20.351  0.00  0.00    +0.000 C 
ENDBRANCH   8  13
BRANCH   7  20
ATOM     20  C   UNL     1       2.523   6.714  19.413  0.00  0.00    +0.000 C 
ATOM     21  C   UNL     1       2.008   7.936  19.197  0.00  0.00    +0.000 C 
BRANCH  21  22
ATOM     22  C   UNL     1       1.372   8.738  20.255  0.00  0.00    +0.000 A 
ATOM     23  C   UNL     1       1.232   8.228  21.542  0.00  0.00    +0.000 A 
ATOM     24  C   UNL     1       0.583   8.999  22.505  0.00  0.00    +0.000 A 
ATOM     25  C   UNL     1       0.097  10.253  22.159  0.00  0.00    +0.000 A 
ATOM     26  C   UNL     1       0.289  10.689  20.861  0.00  0.00    +0.000 A 
ATOM     27  N   UNL     1       0.913   9.965  19.908  0.00  0.00    +0.000 NA
ENDBRANCH  21  22
ENDBRANCH   7  20
TORSDOF 3
ENDMDL
MODEL 7
REMARK VINA RESULT:      -7.2      0.903      1.252
REMARK  Name = 
REMARK  5 active torsions:
REMARK  status: ('A' for Active; 'I' for Inactive)
REMARK    1  A    between atoms: C_1  and  C_2
REMARK    2  A    between atoms: C_7  and  C_8
REMARK    3  A    between atoms: C_9  and  C_10
REMARK    4  A    between atoms: N_16  and  C_17
REMARK    5  A    between atoms: C_22  and  C_23
REMARK                            x       y       z     vdW  Elec       q    Type
REMARK                         _______ _______ _______ _____ _____    ______ ____
ROOT
ATOM      1  C   UNL     1      -0.314   9.731  22.493  0.00  0.00    +0.000 C 
ATOM      2  C   UNL     1       0.494   9.167  21.362  0.00  0.00    +0.000 A 
ATOM      3  C   UNL     1       0.813   9.941  20.241  0.00  0.00    +0.000 A 
ATOM      4  C   UNL     1       1.578   9.402  19.201  0.00  0.00    +0.000 A 
ATOM      5  C   UNL     1       2.032   8.082  19.259  0.00  0.00    +0.000 A 
ATOM      6  N   UNL     1       2.765   7.573  18.185  0.00  0.00    +0.000 NA
ATOM      7  C   UNL     1       3.059   6.305  18.170  0.00  0.00    +0.000 A 
ATOM      8  N   UNL     1       2.722   5.429  19.205  0.00  0.00    +0.000 N 
ATOM      9  C   UNL     1       2.165   5.917  20.393  0.00  0.00    +0.000 A 
ATOM     10  O   UNL     1       2.058   5.290  21.446  0.00  0.00    +0.000 OA
ATOM     11  C   UNL     1       1.710   7.316  20.371  0.00  0.00    +0.000 A 
ATOM     12  C   UNL     1       0.952   7.846  21.423  0.00  0.00    +0.000 A 
ENDROOT
BRANCH   8  13
ATOM     13  C   UNL     1       3.007   4.025  19.151  0.00  0.00    +0.000 A 
ATOM     14  C   UNL     1       4.210   3.543  19.694  0.00  0.00    +0.000 A 
ATOM     15  C   UNL     1       4.568   2.202  19.556  0.00  0.00    +0.000 A 
ATOM     16  C   UNL     1       3.719   1.323  18.894  0.00  0.00    +0.000 A 
ATOM     17  C   UNL     1       2.502   1.777  18.387  0.00  0.00    +0.000 A 
ATOM     18  C   UNL     1       2.125   3.126  18.507  0.00  0.00    +0.000 A 
ATOM     19  C   UNL     1       0.825   3.559  17.884  0.00  0.00    +0.000 C 
ENDBRANCH   8  13
BRANCH   7  20
ATOM     20  C   UNL     1       3.712   5.749  16.948  0.00  0.00    +0.000 C 
ATOM     21  C   UNL     1       5.047   5.615  16.875  0.00  0.00    +0.000 C 
BRANCH  21  22
ATOM     22  C   UNL     1       5.740   5.134  15.669  0.00  0.00    +0.000 A 
ATOM     23  C   UNL     1       7.040   5.545  15.389  0.00  0.00    +0.000 A 
ATOM     24  C   UNL     1       7.648   5.106  14.214  0.00  0.00    +0.000 A 
ATOM     25  C   UNL     1       6.945   4.268  13.357  0.00  0.00    +0.000 A 
ATOM     26  C   UNL     1       5.663   3.898  13.716  0.00  0.00    +0.000 A 
ATOM     27  N   UNL     1       5.050   4.308  14.847  0.00  0.00    +0.000 NA
ENDBRANCH  21  22
ENDBRANCH   7  20
TORSDOF 3
ENDMDL
MODEL 8
REMARK VINA RESULT:      -7.1      1.848      6.759
REMARK  Name = 
REMARK  5 active torsions:
REMARK  status: ('A' for Active; 'I' for Inactive)
REMARK    1  A    between atoms: C_1  and  C_2
REMARK    2  A    between atoms: C_7  and  C_8
REMARK    3  A    between atoms: C_9  and  C_10
REMARK    4  A    between atoms: N_16  and  C_17
REMARK    5  A    between atoms: C_22  and  C_23
REMARK                            x       y       z     vdW  Elec       q    Type
REMARK                         _______ _______ _______ _____ _____    ______ ____
ROOT
ATOM      1  C   UNL     1       7.012   3.893  13.678  0.00  0.00    +0.000 C 
ATOM      2  C   UNL     1       6.186   4.649  14.676  0.00  0.00    +0.000 A 
ATOM      3  C   UNL     1       6.193   6.048  14.712  0.00  0.00    +0.000 A 
ATOM      4  C   UNL     1       5.407   6.737  15.642  0.00  0.00    +0.000 A 
ATOM      5  C   UNL     1       4.606   6.045  16.553  0.00  0.00    +0.000 A 
ATOM      6  N   UNL     1       3.862   6.771  17.486  0.00  0.00    +0.000 NA
ATOM      7  C   UNL     1       3.235   6.126  18.428  0.00  0.00    +0.000 A 
ATOM      8  N   UNL     1       3.226   4.733  18.526  0.00  0.00    +0.000 N 
ATOM      9  C   UNL     1       3.785   3.948  17.511  0.00  0.00    +0.000 A 
ATOM     10  O   UNL     1       3.621   2.736  17.368  0.00  0.00    +0.000 OA
ATOM     11  C   UNL     1       4.605   4.657  16.517  0.00  0.00    +0.000 A 
ATOM     12  C   UNL     1       5.381   3.954  15.586  0.00  0.00    +0.000 A 
ENDROOT
BRANCH   8  13
ATOM     13  C   UNL     1       2.574   4.040  19.598  0.00  0.00    +0.000 A 
ATOM     14  C   UNL     1       3.251   3.863  20.818  0.00  0.00    +0.000 A 
ATOM     15  C   UNL     1       2.691   3.097  21.839  0.00  0.00    +0.000 A 
ATOM     16  C   UNL     1       1.438   2.517  21.664  0.00  0.00    +0.000 A 
ATOM     17  C   UNL     1       0.736   2.720  20.477  0.00  0.00    +0.000 A 
ATOM     18  C   UNL     1       1.287   3.481  19.431  0.00  0.00    +0.000 A 
ATOM     19  C   UNL     1       0.498   3.609  18.154  0.00  0.00    +0.000 C 
ENDBRANCH   8  13
BRANCH   7  20
ATOM     20  C   UNL     1       2.569   6.923  19.500  0.00  0.00    +0.000 C 
ATOM     21  C   UNL     1       1.815   7.994  19.201  0.00  0.00    +0.000 C 
BRANCH  21  22
ATOM     22  C   UNL     1       1.192   8.849  20.225  0.00  0.00    +0.000 A 
ATOM     23  C   UNL     1       0.853   8.328  21.470  0.00  0.00    +0.000 A 
ATOM     24  C   UNL     1       0.222   9.155  22.397  0.00  0.00    +0.000 A 
ATOM     25  C   UNL     1      -0.046  10.476  22.059  0.00  0.00    +0.000 A 
ATOM     26  C   UNL     1       0.336  10.916  20.806  0.00  0.00    +0.000 A 
ATOM     27  N   UNL     1       0.947  10.138  19.888  0.00  0.00    +0.000 NA
ENDBRANCH  21  22
ENDBRANCH   7  20
TORSDOF 3
ENDMDL
MODEL 9
REMARK VINA RESULT:      -6.8      2.644      4.720
REMARK  Name = 
REMARK  5 active torsions:
REMARK  status: ('A' for Active; 'I' for Inactive)
REMARK    1  A    between atoms: C_1  and  C_2
REMARK    2  A    between atoms: C_7  and  C_8
REMARK    3  A    between atoms: C_9  and  C_10
REMARK    4  A    between atoms: N_16  and  C_17
REMARK    5  A    between atoms: C_22  and  C_23
REMARK                            x       y       z     vdW  Elec       q    Type
REMARK                         _______ _______ _______ _____ _____    ______ ____
ROOT
ATOM      1  C   UNL     1       0.948   2.164  22.369  0.00  0.00    +0.000 C 
ATOM      2  C   UNL     1       1.461   2.491  20.998  0.00  0.00    +0.000 A 
ATOM      3  C   UNL     1       0.996   1.810  19.867  0.00  0.00    +0.000 A 
ATOM      4  C   UNL     1       1.478   2.136  18.595  0.00  0.00    +0.000 A 
ATOM      5  C   UNL     1       2.432   3.142  18.429  0.00  0.00    +0.000 A 
ATOM      6  N   UNL     1       2.910   3.415  17.145  0.00  0.00    +0.000 NA
ATOM      7  C   UNL     1       3.904   4.244  17.007  0.00  0.00    +0.000 A 
ATOM      8  N   UNL     1       4.490   4.921  18.080  0.00  0.00    +0.000 N 
ATOM      9  C   UNL     1       3.928   4.842  19.359  0.00  0.00    +0.000 A 
ATOM     10  O   UNL     1       4.203   5.573  20.310  0.00  0.00    +0.000 OA
ATOM     11  C   UNL     1       2.894   3.813  19.553  0.00  0.00    +0.000 A 
ATOM     12  C   UNL     1       2.415   3.502  20.832  0.00  0.00    +0.000 A 
ENDROOT
BRANCH   8  13
ATOM     13  C   UNL     1       5.618   5.791  17.919  0.00  0.00    +0.000 A 
ATOM     14  C   UNL     1       6.899   5.335  18.276  0.00  0.00    +0.000 A 
ATOM     15  C   UNL     1       7.997   6.192  18.238  0.00  0.00    +0.000 A 
ATOM     16  C   UNL     1       7.834   7.510  17.822  0.00  0.00    +0.000 A 
ATOM     17  C   UNL     1       6.578   7.965  17.424  0.00  0.00    +0.000 A 
ATOM     18  C   UNL     1       5.455   7.119  17.463  0.00  0.00    +0.000 A 
ATOM     19  C   UNL     1       4.119   7.695  17.075  0.00  0.00    +0.000 C 
ENDBRANCH   8  13
BRANCH   7  20
ATOM     20  C   UNL     1       4.497   4.410  15.648  0.00  0.00    +0.000 C 
ATOM     21  C   UNL     1       5.682   3.858  15.336  0.00  0.00    +0.000 C 
BRANCH  21  22
ATOM     22  C   UNL     1       6.337   4.047  14.032  0.00  0.00    +0.000 A 
ATOM     23  C   UNL     1       7.272   5.062  13.850  0.00  0.00    +0.000 A 
ATOM     24  C   UNL     1       7.837   5.240  12.589  0.00  0.00    +0.000 A 
ATOM     25  C   UNL     1       7.460   4.400  11.549  0.00  0.00    +0.000 A 
ATOM     26  C   UNL     1       6.534   3.409  11.818  0.00  0.00    +0.000 A 
ATOM     27  N   UNL     1       5.970   3.213  13.029  0.00  0.00    +0.000 NA
ENDBRANCH  21  22
ENDBRANCH   7  20
TORSDOF 3
ENDMDL
