MODEL 1
REMARK VINA RESULT:      -6.9      0.000      0.000
REMARK  Name = 
REMARK  12 active torsions:
REMARK  status: ('A' for Active; 'I' for Inactive)
REMARK    1  A    between atoms: C_1  and  C_2
REMARK    2  A    between atoms: C_2  and  O_3
REMARK    3  A    between atoms: O_3  and  C_4
REMARK    4  A    between atoms: C_4  and  C_6
REMARK    5  A    between atoms: N_9  and  C_10
REMARK    6  A    between atoms: C_10  and  C_11
REMARK    7  A    between atoms: C_17  and  C_19
REMARK    8  A    between atoms: C_19  and  S_20
REMARK    9  A    between atoms: S_20  and  C_21
REMARK   10  A    between atoms: C_24  and  C_25
REMARK   11  A    between atoms: N_28  and  N_29
REMARK   12  A    between atoms: C_31  and  C_32
REMARK                            x       y       z     vdW  Elec       q    Type
REMARK                         _______ _______ _______ _____ _____    ______ ____
ROOT
ATOM      1  C   UNL     1       1.940  14.558  18.745  0.00  0.00    +0.000 A 
ATOM      2  S   UNL     1       2.041  12.873  18.383  0.00  0.00    +0.000 S 
ATOM      3  C   UNL     1       0.518  12.638  19.115  0.00  0.00    +0.000 A 
ATOM      4  N   UNL     1       0.065  11.336  19.311  0.00  0.00    +0.000 N 
ATOM      5  C   UNL     1       0.343  10.852  20.600  0.00  0.00    +0.000 C 
ATOM      6  O   UNL     1       0.943  11.533  21.442  0.00  0.00    +0.000 OA
ATOM      7  N   UNL     1      -0.094  13.714  19.544  0.00  0.00    +0.000 NA
ATOM      8  C   UNL     1       0.708  14.825  19.327  0.00  0.00    +0.000 A 
ATOM      9  C   UNL     1       0.195  16.153  19.765  0.00  0.00    +0.000 C 
ENDROOT
BRANCH   1  10
ATOM     10  C   UNL     1       2.985  15.512  18.429  0.00  0.00    +0.000 C 
ATOM     11  O   UNL     1       3.079  16.119  17.367  0.00  0.00    +0.000 OA
BRANCH  10  12
ATOM     12  O   UNL     1       3.893  15.619  19.442  0.00  0.00    +0.000 OA
BRANCH  12  14
ATOM     13  C   UNL     1       5.909  16.897  19.344  0.00  0.00    +0.000 C 
ATOM     14  C   UNL     1       4.423  16.935  19.654  0.00  0.00    +0.000 C 
ENDBRANCH  12  14
ENDBRANCH  10  12
ENDBRANCH   1  10
BRANCH   4  15
ATOM     15  C   UNL     1      -0.390  10.478  18.212  0.00  0.00    +0.000 C 
BRANCH  15  16
ATOM     16  C   UNL     1      -1.808  10.710  17.732  0.00  0.00    +0.000 A 
ATOM     17  C   UNL     1      -2.234  10.190  16.501  0.00  0.00    +0.000 A 
ATOM     18  C   UNL     1      -3.525  10.445  16.031  0.00  0.00    +0.000 A 
ATOM     19  C   UNL     1      -4.408  11.208  16.792  0.00  0.00    +0.000 A 
ATOM     20  C   UNL     1      -4.016  11.682  18.042  0.00  0.00    +0.000 A 
ATOM     21  C   UNL     1      -2.727  11.423  18.516  0.00  0.00    +0.000 A 
ENDBRANCH  15  16
ENDBRANCH   4  15
BRANCH   5  22
ATOM     22  C   UNL     1      -0.102   9.413  20.920  0.00  0.00    +0.000 C 
BRANCH  22  23
ATOM     23  S   UNL     1       1.330   8.420  21.462  0.00  0.00    +0.000 S 
BRANCH  23  24
ATOM     24  C   UNL     1       1.929   7.711  20.008  0.00  0.00    +0.000 A 
ATOM     25  N   UNL     1       2.176   8.290  18.855  0.00  0.00    +0.000 NA
ATOM     26  N   UNL     1       2.695   7.320  18.008  0.00  0.00    +0.000 NA
ATOM     27  C   UNL     1       2.749   6.180  18.672  0.00  0.00    +0.000 A 
ATOM     28  N   UNL     1       2.264   6.378  19.942  0.00  0.00    +0.000 N 
BRANCH  27  29
ATOM     29  C   UNL     1       3.302   4.865  18.128  0.00  0.00    +0.000 C 
ATOM     30  C   UNL     1       4.302   4.886  16.994  0.00  0.00    +0.000 C 
ATOM     31  C   UNL     1       4.767   4.565  18.372  0.00  0.00    +0.000 C 
ENDBRANCH  27  29
BRANCH  28  32
ATOM     32  N   UNL     1       2.187   5.400  20.995  0.00  0.00    +0.000 N 
ATOM     33  H   UNL     1       2.735   4.569  20.781  0.00  0.00    +0.000 HD
ATOM     34  H   UNL     1       2.589   5.782  21.854  0.00  0.00    +0.000 HD
ENDBRANCH  28  32
ENDBRANCH  23  24
ENDBRANCH  22  23
ENDBRANCH   5  22
TORSDOF 10
ENDMDL
MODEL 2
REMARK VINA RESULT:      -6.9      3.664      8.672
REMARK  Name = 
REMARK  12 active torsions:
REMARK  status: ('A' for Active; 'I' for Inactive)
REMARK    1  A    between atoms: C_1  and  C_2
REMARK    2  A    between atoms: C_2  and  O_3
REMARK    3  A    between atoms: O_3  and  C_4
REMARK    4  A    between atoms: C_4  and  C_6
REMARK    5  A    between atoms: N_9  and  C_10
REMARK    6  A    between atoms: C_10  and  C_11
REMARK    7  A    between atoms: C_17  and  C_19
REMARK    8  A    between atoms: C_19  and  S_20
REMARK    9  A    between atoms: S_20  and  C_21
REMARK   10  A    between atoms: C_24  and  C_25
REMARK   11  A    between atoms: N_28  and  N_29
REMARK   12  A    between atoms: C_31  and  C_32
REMARK                            x       y       z     vdW  Elec       q    Type
REMARK                         _______ _______ _______ _____ _____    ______ ____
ROOT
ATOM      1  C   UNL     1       5.726   5.519  17.815  0.00  0.00    +0.000 A 
ATOM      2  S   UNL     1       5.052   6.151  19.273  0.00  0.00    +0.000 S 
ATOM      3  C   UNL     1       3.512   6.170  18.538  0.00  0.00    +0.000 A 
ATOM      4  N   UNL     1       2.460   6.788  19.208  0.00  0.00    +0.000 N 
ATOM      5  C   UNL     1       2.260   8.116  18.798  0.00  0.00    +0.000 C 
ATOM      6  O   UNL     1       2.973   8.654  17.940  0.00  0.00    +0.000 OA
ATOM      7  N   UNL     1       3.440   5.681  17.325  0.00  0.00    +0.000 NA
ATOM      8  C   UNL     1       4.703   5.293  16.902  0.00  0.00    +0.000 A 
ATOM      9  C   UNL     1       4.837   4.724  15.532  0.00  0.00    +0.000 C 
ENDROOT
BRANCH   1  10
ATOM     10  C   UNL     1       7.137   5.240  17.636  0.00  0.00    +0.000 C 
ATOM     11  O   UNL     1       7.729   4.284  18.127  0.00  0.00    +0.000 OA
BRANCH  10  12
ATOM     12  O   UNL     1       7.751   6.205  16.891  0.00  0.00    +0.000 OA
BRANCH  12  14
ATOM     13  C   UNL     1       8.304   8.046  18.308  0.00  0.00    +0.000 C 
ATOM     14  C   UNL     1       7.381   7.554  17.208  0.00  0.00    +0.000 C 
ENDBRANCH  12  14
ENDBRANCH  10  12
ENDBRANCH   1  10
BRANCH   4  15
ATOM     15  C   UNL     1       1.827   6.212  20.399  0.00  0.00    +0.000 C 
BRANCH  15  16
ATOM     16  C   UNL     1       1.742   4.699  20.439  0.00  0.00    +0.000 A 
ATOM     17  C   UNL     1       2.318   3.984  21.500  0.00  0.00    +0.000 A 
ATOM     18  C   UNL     1       2.287   2.588  21.514  0.00  0.00    +0.000 A 
ATOM     19  C   UNL     1       1.667   1.892  20.479  0.00  0.00    +0.000 A 
ATOM     20  C   UNL     1       1.041   2.591  19.449  0.00  0.00    +0.000 A 
ATOM     21  C   UNL     1       1.067   3.988  19.436  0.00  0.00    +0.000 A 
ENDBRANCH  15  16
ENDBRANCH   4  15
BRANCH   5  22
ATOM     22  C   UNL     1       1.129   8.900  19.488  0.00  0.00    +0.000 C 
BRANCH  22  23
ATOM     23  S   UNL     1       0.254   9.942  18.271  0.00  0.00    +0.000 S 
BRANCH  23  24
ATOM     24  C   UNL     1       0.494  11.552  18.842  0.00  0.00    +0.000 A 
ATOM     25  N   UNL     1      -0.254  12.248  19.668  0.00  0.00    +0.000 NA
ATOM     26  N   UNL     1       0.377  13.469  19.866  0.00  0.00    +0.000 NA
ATOM     27  C   UNL     1       1.490  13.478  19.154  0.00  0.00    +0.000 A 
ATOM     28  N   UNL     1       1.600  12.286  18.481  0.00  0.00    +0.000 N 
BRANCH  27  29
ATOM     29  C   UNL     1       2.509  14.614  19.122  0.00  0.00    +0.000 C 
ATOM     30  C   UNL     1       2.626  15.549  20.304  0.00  0.00    +0.000 C 
ATOM     31  C   UNL     1       3.686  14.529  20.072  0.00  0.00    +0.000 C 
ENDBRANCH  27  29
BRANCH  28  32
ATOM     32  N   UNL     1       2.685  11.878  17.627  0.00  0.00    +0.000 N 
ATOM     33  H   UNL     1       2.543  12.179  16.665  0.00  0.00    +0.000 HD
ATOM     34  H   UNL     1       3.552  12.325  17.932  0.00  0.00    +0.000 HD
ENDBRANCH  28  32
ENDBRANCH  23  24
ENDBRANCH  22  23
ENDBRANCH   5  22
TORSDOF 10
ENDMDL
MODEL 3
REMARK VINA RESULT:      -6.8      3.469      4.813
REMARK  Name = 
REMARK  12 active torsions:
REMARK  status: ('A' for Active; 'I' for Inactive)
REMARK    1  A    between atoms: C_1  and  C_2
REMARK    2  A    between atoms: C_2  and  O_3
REMARK    3  A    between atoms: O_3  and  C_4
REMARK    4  A    between atoms: C_4  and  C_6
REMARK    5  A    between atoms: N_9  and  C_10
REMARK    6  A    between atoms: C_10  and  C_11
REMARK    7  A    between atoms: C_17  and  C_19
REMARK    8  A    between atoms: C_19  and  S_20
REMARK    9  A    between atoms: S_20  and  C_21
REMARK   10  A    between atoms: C_24  and  C_25
REMARK   11  A    between atoms: N_28  and  N_29
REMARK   12  A    between atoms: C_31  and  C_32
REMARK                            x       y       z     vdW  Elec       q    Type
REMARK                         _______ _______ _______ _____ _____    ______ ____
ROOT
ATOM      1  C   UNL     1      -2.428  14.014  23.889  0.00  0.00    +0.000 A 
ATOM      2  S   UNL     1      -1.221  14.068  22.656  0.00  0.00    +0.000 S 
ATOM      3  C   UNL     1      -1.717  12.524  22.123  0.00  0.00    +0.000 A 
ATOM      4  N   UNL     1      -0.950  11.872  21.161  0.00  0.00    +0.000 N 
ATOM      5  C   UNL     1      -0.029  10.972  21.720  0.00  0.00    +0.000 C 
ATOM      6  O   UNL     1       0.075  10.812  22.943  0.00  0.00    +0.000 OA
ATOM      7  N   UNL     1      -2.749  12.000  22.737  0.00  0.00    +0.000 NA
ATOM      8  C   UNL     1      -3.174  12.852  23.746  0.00  0.00    +0.000 A 
ATOM      9  C   UNL     1      -4.333  12.425  24.578  0.00  0.00    +0.000 C 
ENDROOT
BRANCH   1  10
ATOM     10  C   UNL     1      -2.622  15.066  24.869  0.00  0.00    +0.000 C 
ATOM     11  O   UNL     1      -2.324  14.980  26.056  0.00  0.00    +0.000 OA
BRANCH  10  12
ATOM     12  O   UNL     1      -3.232  16.157  24.322  0.00  0.00    +0.000 OA
BRANCH  12  14
ATOM     13  C   UNL     1      -5.172  16.389  22.947  0.00  0.00    +0.000 C 
ATOM     14  C   UNL     1      -4.666  16.141  24.356  0.00  0.00    +0.000 C 
ENDBRANCH  12  14
ENDBRANCH  10  12
ENDBRANCH   1  10
BRANCH   4  15
ATOM     15  C   UNL     1      -0.916  12.288  19.755  0.00  0.00    +0.000 C 
BRANCH  15  16
ATOM     16  C   UNL     1      -1.833  11.532  18.816  0.00  0.00    +0.000 A 
ATOM     17  C   UNL     1      -1.318  10.545  17.962  0.00  0.00    +0.000 A 
ATOM     18  C   UNL     1      -2.152   9.882  17.059  0.00  0.00    +0.000 A 
ATOM     19  C   UNL     1      -3.511  10.186  17.009  0.00  0.00    +0.000 A 
ATOM     20  C   UNL     1      -4.045  11.124  17.890  0.00  0.00    +0.000 A 
ATOM     21  C   UNL     1      -3.213  11.784  18.798  0.00  0.00    +0.000 A 
ENDBRANCH  15  16
ENDBRANCH   4  15
BRANCH   5  22
ATOM     22  C   UNL     1       0.883  10.206  20.743  0.00  0.00    +0.000 C 
BRANCH  22  23
ATOM     23  S   UNL     1       1.094   8.482  21.302  0.00  0.00    +0.000 S 
BRANCH  23  24
ATOM     24  C   UNL     1       1.860   7.696  19.971  0.00  0.00    +0.000 A 
ATOM     25  N   UNL     1       2.172   8.193  18.795  0.00  0.00    +0.000 NA
ATOM     26  N   UNL     1       2.820   7.192  18.083  0.00  0.00    +0.000 NA
ATOM     27  C   UNL     1       2.882   6.117  18.847  0.00  0.00    +0.000 A 
ATOM     28  N   UNL     1       2.277   6.388  20.051  0.00  0.00    +0.000 N 
BRANCH  27  29
ATOM     29  C   UNL     1       3.557   4.801  18.469  0.00  0.00    +0.000 C 
ATOM     30  C   UNL     1       2.778   3.508  18.552  0.00  0.00    +0.000 C 
ATOM     31  C   UNL     1       3.073   4.098  17.217  0.00  0.00    +0.000 C 
ENDBRANCH  27  29
BRANCH  28  32
ATOM     32  N   UNL     1       2.165   5.497  21.176  0.00  0.00    +0.000 N 
ATOM     33  H   UNL     1       2.542   5.911  22.026  0.00  0.00    +0.000 HD
ATOM     34  H   UNL     1       1.180   5.309  21.373  0.00  0.00    +0.000 HD
ENDBRANCH  28  32
ENDBRANCH  23  24
ENDBRANCH  22  23
ENDBRANCH   5  22
TORSDOF 10
ENDMDL
MODEL 4
REMARK VINA RESULT:      -6.8      3.756      8.588
REMARK  Name = 
REMARK  12 active torsions:
REMARK  status: ('A' for Active; 'I' for Inactive)
REMARK    1  A    between atoms: C_1  and  C_2
REMARK    2  A    between atoms: C_2  and  O_3
REMARK    3  A    between atoms: O_3  and  C_4
REMARK    4  A    between atoms: C_4  and  C_6
REMARK    5  A    between atoms: N_9  and  C_10
REMARK    6  A    between atoms: C_10  and  C_11
REMARK    7  A    between atoms: C_17  and  C_19
REMARK    8  A    between atoms: C_19  and  S_20
REMARK    9  A    between atoms: S_20  and  C_21
REMARK   10  A    between atoms: C_24  and  C_25
REMARK   11  A    between atoms: N_28  and  N_29
REMARK   12  A    between atoms: C_31  and  C_32
REMARK                            x       y       z     vdW  Elec       q    Type
REMARK                         _______ _______ _______ _____ _____    ______ ____
ROOT
ATOM      1  C   UNL     1       5.854   5.673  17.807  0.00  0.00    +0.000 A 
ATOM      2  S   UNL     1       5.116   6.249  19.257  0.00  0.00    +0.000 S 
ATOM      3  C   UNL     1       3.596   6.212  18.482  0.00  0.00    +0.000 A 
ATOM      4  N   UNL     1       2.501   6.771  19.134  0.00  0.00    +0.000 N 
ATOM      5  C   UNL     1       2.252   8.096  18.740  0.00  0.00    +0.000 C 
ATOM      6  O   UNL     1       2.961   8.679  17.910  0.00  0.00    +0.000 OA
ATOM      7  N   UNL     1       3.577   5.741  17.259  0.00  0.00    +0.000 NA
ATOM      8  C   UNL     1       4.867   5.417  16.864  0.00  0.00    +0.000 A 
ATOM      9  C   UNL     1       5.062   4.879  15.489  0.00  0.00    +0.000 C 
ENDROOT
BRANCH   1  10
ATOM     10  C   UNL     1       7.281   5.460  17.661  0.00  0.00    +0.000 C 
ATOM     11  O   UNL     1       7.797   4.414  17.280  0.00  0.00    +0.000 OA
BRANCH  10  12
ATOM     12  O   UNL     1       7.996   6.555  18.051  0.00  0.00    +0.000 OA
BRANCH  12  14
ATOM     13  C   UNL     1       8.295   8.924  18.134  0.00  0.00    +0.000 C 
ATOM     14  C   UNL     1       7.683   7.772  17.358  0.00  0.00    +0.000 C 
ENDBRANCH  12  14
ENDBRANCH  10  12
ENDBRANCH   1  10
BRANCH   4  15
ATOM     15  C   UNL     1       1.863   6.146  20.298  0.00  0.00    +0.000 C 
BRANCH  15  16
ATOM     16  C   UNL     1       1.760   4.634  20.267  0.00  0.00    +0.000 A 
ATOM     17  C   UNL     1       1.222   3.983  19.147  0.00  0.00    +0.000 A 
ATOM     18  C   UNL     1       1.079   2.593  19.136  0.00  0.00    +0.000 A 
ATOM     19  C   UNL     1       1.484   1.839  20.235  0.00  0.00    +0.000 A 
ATOM     20  C   UNL     1       2.072   2.469  21.330  0.00  0.00    +0.000 A 
ATOM     21  C   UNL     1       2.222   3.858  21.340  0.00  0.00    +0.000 A 
ENDBRANCH  15  16
ENDBRANCH   4  15
BRANCH   5  22
ATOM     22  C   UNL     1       1.069   8.816  19.413  0.00  0.00    +0.000 C 
BRANCH  22  23
ATOM     23  S   UNL     1       0.621  10.309  18.463  0.00  0.00    +0.000 S 
BRANCH  23  24
ATOM     24  C   UNL     1       1.155  11.617  19.453  0.00  0.00    +0.000 A 
ATOM     25  N   UNL     1       0.881  11.854  20.716  0.00  0.00    +0.000 NA
ATOM     26  N   UNL     1       1.584  12.993  21.084  0.00  0.00    +0.000 NA
ATOM     27  C   UNL     1       2.265  13.414  20.034  0.00  0.00    +0.000 A 
ATOM     28  N   UNL     1       2.016  12.577  18.974  0.00  0.00    +0.000 N 
BRANCH  27  29
ATOM     29  C   UNL     1       3.211  14.613  20.016  0.00  0.00    +0.000 C 
ATOM     30  C   UNL     1       3.315  15.503  21.233  0.00  0.00    +0.000 C 
ATOM     31  C   UNL     1       4.426  14.562  20.919  0.00  0.00    +0.000 C 
ENDBRANCH  27  29
BRANCH  28  32
ATOM     32  N   UNL     1       2.592  12.662  17.657  0.00  0.00    +0.000 N 
ATOM     33  H   UNL     1       3.215  13.462  17.568  0.00  0.00    +0.000 HD
ATOM     34  H   UNL     1       3.172  11.839  17.478  0.00  0.00    +0.000 HD
ENDBRANCH  28  32
ENDBRANCH  23  24
ENDBRANCH  22  23
ENDBRANCH   5  22
TORSDOF 10
ENDMDL
MODEL 5
REMARK VINA RESULT:      -6.8      3.822      8.722
REMARK  Name = 
REMARK  12 active torsions:
REMARK  status: ('A' for Active; 'I' for Inactive)
REMARK    1  A    between atoms: C_1  and  C_2
REMARK    2  A    between atoms: C_2  and  O_3
REMARK    3  A    between atoms: O_3  and  C_4
REMARK    4  A    between atoms: C_4  and  C_6
REMARK    5  A    between atoms: N_9  and  C_10
REMARK    6  A    between atoms: C_10  and  C_11
REMARK    7  A    between atoms: C_17  and  C_19
REMARK    8  A    between atoms: C_19  and  S_20
REMARK    9  A    between atoms: S_20  and  C_21
REMARK   10  A    between atoms: C_24  and  C_25
REMARK   11  A    between atoms: N_28  and  N_29
REMARK   12  A    between atoms: C_31  and  C_32
REMARK                            x       y       z     vdW  Elec       q    Type
REMARK                         _______ _______ _______ _____ _____    ______ ____
ROOT
ATOM      1  C   UNL     1       5.747   5.577  18.025  0.00  0.00    +0.000 A 
ATOM      2  S   UNL     1       4.963   6.160  19.448  0.00  0.00    +0.000 S 
ATOM      3  C   UNL     1       3.479   6.179  18.606  0.00  0.00    +0.000 A 
ATOM      4  N   UNL     1       2.373   6.765  19.217  0.00  0.00    +0.000 N 
ATOM      5  C   UNL     1       2.183   8.101  18.829  0.00  0.00    +0.000 C 
ATOM      6  O   UNL     1       2.946   8.671  18.038  0.00  0.00    +0.000 OA
ATOM      7  N   UNL     1       3.500   5.723  17.379  0.00  0.00    +0.000 NA
ATOM      8  C   UNL     1       4.795   5.363  17.037  0.00  0.00    +0.000 A 
ATOM      9  C   UNL     1       5.034   4.834  15.665  0.00  0.00    +0.000 C 
ENDROOT
BRANCH   1  10
ATOM     10  C   UNL     1       7.171   5.322  17.939  0.00  0.00    +0.000 C 
ATOM     11  O   UNL     1       7.674   4.220  17.739  0.00  0.00    +0.000 OA
BRANCH  10  12
ATOM     12  O   UNL     1       7.901   6.453  18.162  0.00  0.00    +0.000 OA
BRANCH  12  14
ATOM     13  C   UNL     1       8.074   8.824  17.933  0.00  0.00    +0.000 C 
ATOM     14  C   UNL     1       7.648   7.535  17.255  0.00  0.00    +0.000 C 
ENDBRANCH  12  14
ENDBRANCH  10  12
ENDBRANCH   1  10
BRANCH   4  15
ATOM     15  C   UNL     1       1.666   6.148  20.344  0.00  0.00    +0.000 C 
BRANCH  15  16
ATOM     16  C   UNL     1       1.672   4.633  20.382  0.00  0.00    +0.000 A 
ATOM     17  C   UNL     1       1.118   3.894  19.327  0.00  0.00    +0.000 A 
ATOM     18  C   UNL     1       1.077   2.498  19.382  0.00  0.00    +0.000 A 
ATOM     19  C   UNL     1       1.601   1.827  20.484  0.00  0.00    +0.000 A 
ATOM     20  C   UNL     1       2.205   2.547  21.513  0.00  0.00    +0.000 A 
ATOM     21  C   UNL     1       2.253   3.941  21.456  0.00  0.00    +0.000 A 
ENDBRANCH  15  16
ENDBRANCH   4  15
BRANCH   5  22
ATOM     22  C   UNL     1       0.994   8.851  19.458  0.00  0.00    +0.000 C 
BRANCH  22  23
ATOM     23  S   UNL     1       0.810  10.495  18.686  0.00  0.00    +0.000 S 
BRANCH  23  24
ATOM     24  C   UNL     1      -0.821  10.519  18.126  0.00  0.00    +0.000 A 
ATOM     25  N   UNL     1      -1.394   9.741  17.236  0.00  0.00    +0.000 NA
ATOM     26  N   UNL     1      -2.730  10.111  17.162  0.00  0.00    +0.000 NA
ATOM     27  C   UNL     1      -2.930  11.104  18.010  0.00  0.00    +0.000 A 
ATOM     28  N   UNL     1      -1.744  11.402  18.637  0.00  0.00    +0.000 N 
BRANCH  27  29
ATOM     29  C   UNL     1      -4.272  11.779  18.280  0.00  0.00    +0.000 C 
ATOM     30  C   UNL     1      -5.333  11.795  17.203  0.00  0.00    +0.000 C 
ATOM     31  C   UNL     1      -5.497  10.893  18.376  0.00  0.00    +0.000 C 
ENDBRANCH  27  29
BRANCH  28  32
ATOM     32  N   UNL     1      -1.539  12.394  19.660  0.00  0.00    +0.000 N 
ATOM     33  H   UNL     1      -1.427  11.972  20.579  0.00  0.00    +0.000 HD
ATOM     34  H   UNL     1      -0.671  12.902  19.481  0.00  0.00    +0.000 HD
ENDBRANCH  28  32
ENDBRANCH  23  24
ENDBRANCH  22  23
ENDBRANCH   5  22
TORSDOF 10
ENDMDL
MODEL 6
REMARK VINA RESULT:      -6.7      3.699      8.836
REMARK  Name = 
REMARK  12 active torsions:
REMARK  status: ('A' for Active; 'I' for Inactive)
REMARK    1  A    between atoms: C_1  and  C_2
REMARK    2  A    between atoms: C_2  and  O_3
REMARK    3  A    between atoms: O_3  and  C_4
REMARK    4  A    between atoms: C_4  and  C_6
REMARK    5  A    between atoms: N_9  and  C_10
REMARK    6  A    between atoms: C_10  and  C_11
REMARK    7  A    between atoms: C_17  and  C_19
REMARK    8  A    between atoms: C_19  and  S_20
REMARK    9  A    between atoms: S_20  and  C_21
REMARK   10  A    between atoms: C_24  and  C_25
REMARK   11  A    between atoms: N_28  and  N_29
REMARK   12  A    between atoms: C_31  and  C_32
REMARK                            x       y       z     vdW  Elec       q    Type
REMARK                         _______ _______ _______ _____ _____    ______ ____
ROOT
ATOM      1  C   UNL     1       5.902   5.641  17.567  0.00  0.00    +0.000 A 
ATOM      2  S   UNL     1       5.246   6.240  19.047  0.00  0.00    +0.000 S 
ATOM      3  C   UNL     1       3.682   6.168  18.368  0.00  0.00    +0.000 A 
ATOM      4  N   UNL     1       2.622   6.728  19.075  0.00  0.00    +0.000 N 
ATOM      5  C   UNL     1       2.331   8.041  18.669  0.00  0.00    +0.000 C 
ATOM      6  O   UNL     1       2.981   8.614  17.785  0.00  0.00    +0.000 OA
ATOM      7  N   UNL     1       3.595   5.670  17.160  0.00  0.00    +0.000 NA
ATOM      8  C   UNL     1       4.862   5.353  16.693  0.00  0.00    +0.000 A 
ATOM      9  C   UNL     1       4.979   4.787  15.320  0.00  0.00    +0.000 C 
ENDROOT
BRANCH   1  10
ATOM     10  C   UNL     1       7.320   5.443  17.338  0.00  0.00    +0.000 C 
ATOM     11  O   UNL     1       7.902   4.368  17.445  0.00  0.00    +0.000 OA
BRANCH  10  12
ATOM     12  O   UNL     1       7.950   6.614  17.035  0.00  0.00    +0.000 OA
BRANCH  12  14
ATOM     13  C   UNL     1       7.900   8.912  17.688  0.00  0.00    +0.000 C 
ATOM     14  C   UNL     1       8.180   7.492  18.146  0.00  0.00    +0.000 C 
ENDBRANCH  12  14
ENDBRANCH  10  12
ENDBRANCH   1  10
BRANCH   4  15
ATOM     15  C   UNL     1       2.065   6.121  20.289  0.00  0.00    +0.000 C 
BRANCH  15  16
ATOM     16  C   UNL     1       1.760   4.639  20.211  0.00  0.00    +0.000 A 
ATOM     17  C   UNL     1       1.963   3.813  21.326  0.00  0.00    +0.000 A 
ATOM     18  C   UNL     1       1.732   2.438  21.242  0.00  0.00    +0.000 A 
ATOM     19  C   UNL     1       1.282   1.876  20.050  0.00  0.00    +0.000 A 
ATOM     20  C   UNL     1       1.022   2.693  18.952  0.00  0.00    +0.000 A 
ATOM     21  C   UNL     1       1.247   4.069  19.036  0.00  0.00    +0.000 A 
ENDBRANCH  15  16
ENDBRANCH   4  15
BRANCH   5  22
ATOM     22  C   UNL     1       1.183   8.762  19.398  0.00  0.00    +0.000 C 
BRANCH  22  23
ATOM     23  S   UNL     1       0.381   9.958  18.277  0.00  0.00    +0.000 S 
BRANCH  23  24
ATOM     24  C   UNL     1       0.376  11.435  19.168  0.00  0.00    +0.000 A 
ATOM     25  N   UNL     1       1.060  11.745  20.246  0.00  0.00    +0.000 NA
ATOM     26  N   UNL     1       0.761  13.063  20.560  0.00  0.00    +0.000 NA
ATOM     27  C   UNL     1      -0.096  13.517  19.663  0.00  0.00    +0.000 A 
ATOM     28  N   UNL     1      -0.376  12.515  18.765  0.00  0.00    +0.000 N 
BRANCH  27  29
ATOM     29  C   UNL     1      -0.650  14.938  19.609  0.00  0.00    +0.000 C 
ATOM     30  C   UNL     1       0.154  16.078  20.192  0.00  0.00    +0.000 C 
ATOM     31  C   UNL     1       0.058  15.934  18.713  0.00  0.00    +0.000 C 
ENDBRANCH  27  29
BRANCH  28  32
ATOM     32  N   UNL     1      -1.232  12.609  17.612  0.00  0.00    +0.000 N 
ATOM     33  H   UNL     1      -2.207  12.436  17.849  0.00  0.00    +0.000 HD
ATOM     34  H   UNL     1      -1.204  13.559  17.236  0.00  0.00    +0.000 HD
ENDBRANCH  28  32
ENDBRANCH  23  24
ENDBRANCH  22  23
ENDBRANCH   5  22
TORSDOF 10
ENDMDL
MODEL 7
REMARK VINA RESULT:      -6.7      3.672      8.706
REMARK  Name = 
REMARK  12 active torsions:
REMARK  status: ('A' for Active; 'I' for Inactive)
REMARK    1  A    between atoms: C_1  and  C_2
REMARK    2  A    between atoms: C_2  and  O_3
REMARK    3  A    between atoms: O_3  and  C_4
REMARK    4  A    between atoms: C_4  and  C_6
REMARK    5  A    between atoms: N_9  and  C_10
REMARK    6  A    between atoms: C_10  and  C_11
REMARK    7  A    between atoms: C_17  and  C_19
REMARK    8  A    between atoms: C_19  and  S_20
REMARK    9  A    between atoms: S_20  and  C_21
REMARK   10  A    between atoms: C_24  and  C_25
REMARK   11  A    between atoms: N_28  and  N_29
REMARK   12  A    between atoms: C_31  and  C_32
REMARK                            x       y       z     vdW  Elec       q    Type
REMARK                         _______ _______ _______ _____ _____    ______ ____
ROOT
ATOM      1  C   UNL     1       5.776   5.521  17.859  0.00  0.00    +0.000 A 
ATOM      2  S   UNL     1       5.064   6.213  19.271  0.00  0.00    +0.000 S 
ATOM      3  C   UNL     1       3.537   6.159  18.510  0.00  0.00    +0.000 A 
ATOM      4  N   UNL     1       2.460   6.787  19.130  0.00  0.00    +0.000 N 
ATOM      5  C   UNL     1       2.239   8.087  18.647  0.00  0.00    +0.000 C 
ATOM      6  O   UNL     1       2.955   8.595  17.773  0.00  0.00    +0.000 OA
ATOM      7  N   UNL     1       3.497   5.605  17.324  0.00  0.00    +0.000 NA
ATOM      8  C   UNL     1       4.775   5.224  16.943  0.00  0.00    +0.000 A 
ATOM      9  C   UNL     1       4.946   4.587  15.607  0.00  0.00    +0.000 C 
ENDROOT
BRANCH   1  10
ATOM     10  C   UNL     1       7.196   5.265  17.719  0.00  0.00    +0.000 C 
ATOM     11  O   UNL     1       7.745   4.200  17.984  0.00  0.00    +0.000 OA
BRANCH  10  12
ATOM     12  O   UNL     1       7.870   6.376  17.301  0.00  0.00    +0.000 OA
BRANCH  12  14
ATOM     13  C   UNL     1       7.978   8.723  17.731  0.00  0.00    +0.000 C 
ATOM     14  C   UNL     1       8.161   7.338  18.324  0.00  0.00    +0.000 C 
ENDBRANCH  12  14
ENDBRANCH  10  12
ENDBRANCH   1  10
BRANCH   4  15
ATOM     15  C   UNL     1       1.819   6.260  20.339  0.00  0.00    +0.000 C 
BRANCH  15  16
ATOM     16  C   UNL     1       1.751   4.750  20.450  0.00  0.00    +0.000 A 
ATOM     17  C   UNL     1       1.082   3.996  19.475  0.00  0.00    +0.000 A 
ATOM     18  C   UNL     1       0.973   2.609  19.601  0.00  0.00    +0.000 A 
ATOM     19  C   UNL     1       1.545   1.960  20.693  0.00  0.00    +0.000 A 
ATOM     20  C   UNL     1       2.262   2.691  21.638  0.00  0.00    +0.000 A 
ATOM     21  C   UNL     1       2.376   4.077  21.510  0.00  0.00    +0.000 A 
ENDBRANCH  15  16
ENDBRANCH   4  15
BRANCH   5  22
ATOM     22  C   UNL     1       1.079   8.881  19.276  0.00  0.00    +0.000 C 
BRANCH  22  23
ATOM     23  S   UNL     1       1.058  10.585  18.624  0.00  0.00    +0.000 S 
BRANCH  23  24
ATOM     24  C   UNL     1      -0.513  11.173  19.025  0.00  0.00    +0.000 A 
ATOM     25  N   UNL     1      -0.899  11.806  20.110  0.00  0.00    +0.000 NA
ATOM     26  N   UNL     1      -2.242  12.121  19.948  0.00  0.00    +0.000 NA
ATOM     27  C   UNL     1      -2.632  11.670  18.770  0.00  0.00    +0.000 A 
ATOM     28  N   UNL     1      -1.571  11.053  18.153  0.00  0.00    +0.000 N 
BRANCH  27  29
ATOM     29  C   UNL     1      -4.026  11.846  18.173  0.00  0.00    +0.000 C 
ATOM     30  C   UNL     1      -4.381  11.147  16.881  0.00  0.00    +0.000 C 
ATOM     31  C   UNL     1      -4.943  10.641  18.164  0.00  0.00    +0.000 C 
ENDBRANCH  27  29
BRANCH  28  32
ATOM     32  N   UNL     1      -1.564  10.463  16.840  0.00  0.00    +0.000 N 
ATOM     33  H   UNL     1      -0.967  10.978  16.196  0.00  0.00    +0.000 HD
ATOM     34  H   UNL     1      -1.174   9.520  16.886  0.00  0.00    +0.000 HD
ENDBRANCH  28  32
ENDBRANCH  23  24
ENDBRANCH  22  23
ENDBRANCH   5  22
TORSDOF 10
ENDMDL
MODEL 8
REMARK VINA RESULT:      -6.6      3.878      8.752
REMARK  Name = 
REMARK  12 active torsions:
REMARK  status: ('A' for Active; 'I' for Inactive)
REMARK    1  A    between atoms: C_1  and  C_2
REMARK    2  A    between atoms: C_2  and  O_3
REMARK    3  A    between atoms: O_3  and  C_4
REMARK    4  A    between atoms: C_4  and  C_6
REMARK    5  A    between atoms: N_9  and  C_10
REMARK    6  A    between atoms: C_10  and  C_11
REMARK    7  A    between atoms: C_17  and  C_19
REMARK    8  A    between atoms: C_19  and  S_20
REMARK    9  A    between atoms: S_20  and  C_21
REMARK   10  A    between atoms: C_24  and  C_25
REMARK   11  A    between atoms: N_28  and  N_29
REMARK   12  A    between atoms: C_31  and  C_32
REMARK                            x       y       z     vdW  Elec       q    Type
REMARK                         _______ _______ _______ _____ _____    ______ ____
ROOT
ATOM      1  C   UNL     1       5.856   5.681  17.461  0.00  0.00    +0.000 A 
ATOM      2  S   UNL     1       5.216   6.474  18.854  0.00  0.00    +0.000 S 
ATOM      3  C   UNL     1       3.638   6.229  18.251  0.00  0.00    +0.000 A 
ATOM      4  N   UNL     1       2.572   6.846  18.901  0.00  0.00    +0.000 N 
ATOM      5  C   UNL     1       2.207   8.065  18.307  0.00  0.00    +0.000 C 
ATOM      6  O   UNL     1       2.802   8.522  17.322  0.00  0.00    +0.000 OA
ATOM      7  N   UNL     1       3.540   5.546  17.137  0.00  0.00    +0.000 NA
ATOM      8  C   UNL     1       4.807   5.215  16.680  0.00  0.00    +0.000 A 
ATOM      9  C   UNL     1       4.912   4.447  15.407  0.00  0.00    +0.000 C 
ENDROOT
BRANCH   1  10
ATOM     10  C   UNL     1       7.275   5.511  17.214  0.00  0.00    +0.000 C 
ATOM     11  O   UNL     1       7.872   4.441  17.275  0.00  0.00    +0.000 OA
BRANCH  10  12
ATOM     12  O   UNL     1       7.887   6.702  16.954  0.00  0.00    +0.000 OA
BRANCH  12  14
ATOM     13  C   UNL     1       8.014   8.965  17.708  0.00  0.00    +0.000 C 
ATOM     14  C   UNL     1       8.175   7.509  18.104  0.00  0.00    +0.000 C 
ENDBRANCH  12  14
ENDBRANCH  10  12
ENDBRANCH   1  10
BRANCH   4  15
ATOM     15  C   UNL     1       2.081   6.412  20.212  0.00  0.00    +0.000 C 
BRANCH  15  16
ATOM     16  C   UNL     1       1.876   4.921  20.385  0.00  0.00    +0.000 A 
ATOM     17  C   UNL     1       1.122   4.196  19.450  0.00  0.00    +0.000 A 
ATOM     18  C   UNL     1       0.887   2.831  19.633  0.00  0.00    +0.000 A 
ATOM     19  C   UNL     1       1.415   2.173  20.742  0.00  0.00    +0.000 A 
ATOM     20  C   UNL     1       2.213   2.869  21.647  0.00  0.00    +0.000 A 
ATOM     21  C   UNL     1       2.453   4.233  21.463  0.00  0.00    +0.000 A 
ENDBRANCH  15  16
ENDBRANCH   4  15
BRANCH   5  22
ATOM     22  C   UNL     1       1.046   8.841  18.957  0.00  0.00    +0.000 C 
BRANCH  22  23
ATOM     23  S   UNL     1       1.224  10.627  18.630  0.00  0.00    +0.000 S 
BRANCH  23  24
ATOM     24  C   UNL     1      -0.328  11.282  19.003  0.00  0.00    +0.000 A 
ATOM     25  N   UNL     1      -1.467  11.099  18.374  0.00  0.00    +0.000 NA
ATOM     26  N   UNL     1      -2.444  11.789  19.080  0.00  0.00    +0.000 NA
ATOM     27  C   UNL     1      -1.869  12.369  20.118  0.00  0.00    +0.000 A 
ATOM     28  N   UNL     1      -0.526  12.083  20.104  0.00  0.00    +0.000 N 
BRANCH  27  29
ATOM     29  C   UNL     1      -2.591  13.189  21.184  0.00  0.00    +0.000 C 
ATOM     30  C   UNL     1      -4.041  12.898  21.499  0.00  0.00    +0.000 C 
ATOM     31  C   UNL     1      -2.986  12.483  22.465  0.00  0.00    +0.000 C 
ENDBRANCH  27  29
BRANCH  28  32
ATOM     32  N   UNL     1       0.451  12.492  21.080  0.00  0.00    +0.000 N 
ATOM     33  H   UNL     1       1.173  11.787  21.211  0.00  0.00    +0.000 HD
ATOM     34  H   UNL     1       0.938  13.329  20.753  0.00  0.00    +0.000 HD
ENDBRANCH  28  32
ENDBRANCH  23  24
ENDBRANCH  22  23
ENDBRANCH   5  22
TORSDOF 10
ENDMDL
MODEL 9
REMARK VINA RESULT:      -6.6      3.854      8.862
REMARK  Name = 
REMARK  12 active torsions:
REMARK  status: ('A' for Active; 'I' for Inactive)
REMARK    1  A    between atoms: C_1  and  C_2
REMARK    2  A    between atoms: C_2  and  O_3
REMARK    3  A    between atoms: O_3  and  C_4
REMARK    4  A    between atoms: C_4  and  C_6
REMARK    5  A    between atoms: N_9  and  C_10
REMARK    6  A    between atoms: C_10  and  C_11
REMARK    7  A    between atoms: C_17  and  C_19
REMARK    8  A    between atoms: C_19  and  S_20
REMARK    9  A    between atoms: S_20  and  C_21
REMARK   10  A    between atoms: C_24  and  C_25
REMARK   11  A    between atoms: N_28  and  N_29
REMARK   12  A    between atoms: C_31  and  C_32
REMARK                            x       y       z     vdW  Elec       q    Type
REMARK                         _______ _______ _______ _____ _____    ______ ____
ROOT
ATOM      1  C   UNL     1       5.794   5.553  17.819  0.00  0.00    +0.000 A 
ATOM      2  S   UNL     1       5.075   6.257  19.222  0.00  0.00    +0.000 S 
ATOM      3  C   UNL     1       3.553   6.201  18.452  0.00  0.00    +0.000 A 
ATOM      4  N   UNL     1       2.474   6.837  19.061  0.00  0.00    +0.000 N 
ATOM      5  C   UNL     1       2.259   8.134  18.567  0.00  0.00    +0.000 C 
ATOM      6  O   UNL     1       2.981   8.633  17.694  0.00  0.00    +0.000 OA
ATOM      7  N   UNL     1       3.518   5.639  17.269  0.00  0.00    +0.000 NA
ATOM      8  C   UNL     1       4.798   5.252  16.899  0.00  0.00    +0.000 A 
ATOM      9  C   UNL     1       4.975   4.605  15.569  0.00  0.00    +0.000 C 
ENDROOT
BRANCH   1  10
ATOM     10  C   UNL     1       7.214   5.292  17.689  0.00  0.00    +0.000 C 
ATOM     11  O   UNL     1       7.758   4.226  17.961  0.00  0.00    +0.000 OA
BRANCH  10  12
ATOM     12  O   UNL     1       7.894   6.400  17.273  0.00  0.00    +0.000 OA
BRANCH  12  14
ATOM     13  C   UNL     1       7.946   8.753  17.681  0.00  0.00    +0.000 C 
ATOM     14  C   UNL     1       8.155   7.378  18.289  0.00  0.00    +0.000 C 
ENDBRANCH  12  14
ENDBRANCH  10  12
ENDBRANCH   1  10
BRANCH   4  15
ATOM     15  C   UNL     1       1.823   6.320  20.269  0.00  0.00    +0.000 C 
BRANCH  15  16
ATOM     16  C   UNL     1       1.766   4.811  20.399  0.00  0.00    +0.000 A 
ATOM     17  C   UNL     1       1.113   4.039  19.426  0.00  0.00    +0.000 A 
ATOM     18  C   UNL     1       1.014   2.653  19.568  0.00  0.00    +0.000 A 
ATOM     19  C   UNL     1       1.579   2.022  20.674  0.00  0.00    +0.000 A 
ATOM     20  C   UNL     1       2.280   2.770  21.618  0.00  0.00    +0.000 A 
ATOM     21  C   UNL     1       2.384   4.156  21.474  0.00  0.00    +0.000 A 
ENDBRANCH  15  16
ENDBRANCH   4  15
BRANCH   5  22
ATOM     22  C   UNL     1       1.097   8.935  19.183  0.00  0.00    +0.000 C 
BRANCH  22  23
ATOM     23  S   UNL     1       1.228  10.693  18.713  0.00  0.00    +0.000 S 
BRANCH  23  24
ATOM     24  C   UNL     1       0.502  11.539  20.030  0.00  0.00    +0.000 A 
ATOM     25  N   UNL     1       0.854  11.542  21.295  0.00  0.00    +0.000 NA
ATOM     26  N   UNL     1       0.001  12.414  21.959  0.00  0.00    +0.000 NA
ATOM     27  C   UNL     1      -0.843  12.916  21.076  0.00  0.00    +0.000 A 
ATOM     28  N   UNL     1      -0.569  12.382  19.840  0.00  0.00    +0.000 N 
BRANCH  27  29
ATOM     29  C   UNL     1      -1.921  13.956  21.375  0.00  0.00    +0.000 C 
ATOM     30  C   UNL     1      -3.380  13.577  21.258  0.00  0.00    +0.000 C 
ATOM     31  C   UNL     1      -2.775  13.746  22.608  0.00  0.00    +0.000 C 
ENDBRANCH  27  29
BRANCH  28  32
ATOM     32  N   UNL     1      -1.232  12.696  18.602  0.00  0.00    +0.000 N 
ATOM     33  H   UNL     1      -2.230  12.499  18.647  0.00  0.00    +0.000 HD
ATOM     34  H   UNL     1      -1.156  13.697  18.412  0.00  0.00    +0.000 HD
ENDBRANCH  28  32
ENDBRANCH  23  24
ENDBRANCH  22  23
ENDBRANCH   5  22
TORSDOF 10
ENDMDL
