MODEL 1
REMARK VINA RESULT:      -7.0      0.000      0.000
REMARK  Name = 
REMARK  3 active torsions:
REMARK  status: ('A' for Active; 'I' for Inactive)
REMARK    1  A    between atoms: C_2  and  O_3
REMARK    2  A    between atoms: C_2  and  C_4
REMARK    3  A    between atoms: C_8  and  C_9
REMARK                            x       y       z     vdW  Elec       q    Type
REMARK                         _______ _______ _______ _____ _____    ______ ____
ROOT
ATOM      1  C   UNL     1       5.770   4.703  18.260  0.00  0.00    +0.000 A 
ATOM      2  C   UNL     1       6.530   5.760  18.751  0.00  0.00    +0.000 A 
ATOM      3  C   UNL     1       7.368   6.410  17.870  0.00  0.00    +0.000 A 
ATOM      4  N   UNL     1       7.480   6.081  16.565  0.00  0.00    +0.000 NA
ATOM      5  C   UNL     1       6.710   5.068  16.080  0.00  0.00    +0.000 A 
ATOM      6  C   UNL     1       5.846   4.356  16.910  0.00  0.00    +0.000 A 
ENDROOT
BRANCH   5   7
ATOM      7  C   UNL     1       6.813   4.785  14.627  0.00  0.00    +0.000 A 
ATOM      8  C   UNL     1       6.018   3.826  13.996  0.00  0.00    +0.000 A 
ATOM      9  C   UNL     1       6.192   3.573  12.637  0.00  0.00    +0.000 A 
ATOM     10  C   UNL     1       7.152   4.284  11.932  0.00  0.00    +0.000 A 
ATOM     11  C   UNL     1       7.896   5.229  12.617  0.00  0.00    +0.000 A 
ATOM     12  N   UNL     1       7.749   5.495  13.935  0.00  0.00    +0.000 NA
ENDBRANCH   5   7
BRANCH   1  14
ATOM     13  O   UNL     1       3.867   4.560  19.665  0.00  0.00    +0.000 OA
ATOM     14  C   UNL     1       4.851   4.016  19.192  0.00  0.00    +0.000 C 
BRANCH  14  15
ATOM     15  O   UNL     1       5.228   2.760  19.511  0.00  0.00    +0.000 OA
ATOM     16  H   UNL     1       5.049   2.083  18.833  0.00  0.00    +0.000 HD
ENDBRANCH  14  15
ENDBRANCH   1  14
TORSDOF 3
ENDMDL
MODEL 2
REMARK VINA RESULT:      -6.9      3.385      5.699
REMARK  Name = 
REMARK  3 active torsions:
REMARK  status: ('A' for Active; 'I' for Inactive)
REMARK    1  A    between atoms: C_2  and  O_3
REMARK    2  A    between atoms: C_2  and  C_4
REMARK    3  A    between atoms: C_8  and  C_9
REMARK                            x       y       z     vdW  Elec       q    Type
REMARK                         _______ _______ _______ _____ _____    ______ ____
ROOT
ATOM      1  C   UNL     1       6.428   4.426  15.909  0.00  0.00    +0.000 A 
ATOM      2  C   UNL     1       7.443   4.741  16.806  0.00  0.00    +0.000 A 
ATOM      3  C   UNL     1       7.143   4.707  18.152  0.00  0.00    +0.000 A 
ATOM      4  N   UNL     1       5.927   4.376  18.637  0.00  0.00    +0.000 NA
ATOM      5  C   UNL     1       4.945   4.036  17.758  0.00  0.00    +0.000 A 
ATOM      6  C   UNL     1       5.168   4.056  16.382  0.00  0.00    +0.000 A 
ENDROOT
BRANCH   5   7
ATOM      7  C   UNL     1       3.646   3.613  18.336  0.00  0.00    +0.000 A 
ATOM      8  C   UNL     1       2.431   3.845  17.688  0.00  0.00    +0.000 A 
ATOM      9  C   UNL     1       1.240   3.464  18.302  0.00  0.00    +0.000 A 
ATOM     10  C   UNL     1       1.283   2.855  19.548  0.00  0.00    +0.000 A 
ATOM     11  C   UNL     1       2.521   2.644  20.127  0.00  0.00    +0.000 A 
ATOM     12  N   UNL     1       3.693   3.003  19.555  0.00  0.00    +0.000 NA
ENDBRANCH   5   7
BRANCH   1  14
ATOM     13  O   UNL     1       7.373   5.342  13.938  0.00  0.00    +0.000 OA
ATOM     14  C   UNL     1       6.748   4.437  14.466  0.00  0.00    +0.000 C 
BRANCH  14  15
ATOM     15  O   UNL     1       6.240   3.390  13.782  0.00  0.00    +0.000 OA
ATOM     16  H   UNL     1       5.568   2.866  14.256  0.00  0.00    +0.000 HD
ENDBRANCH  14  15
ENDBRANCH   1  14
TORSDOF 3
ENDMDL
MODEL 3
REMARK VINA RESULT:      -6.9      3.153      5.604
REMARK  Name = 
REMARK  3 active torsions:
REMARK  status: ('A' for Active; 'I' for Inactive)
REMARK    1  A    between atoms: C_2  and  O_3
REMARK    2  A    between atoms: C_2  and  C_4
REMARK    3  A    between atoms: C_8  and  C_9
REMARK                            x       y       z     vdW  Elec       q    Type
REMARK                         _______ _______ _______ _____ _____    ______ ____
ROOT
ATOM      1  C   UNL     1       6.197   3.670  12.556  0.00  0.00    +0.000 A 
ATOM      2  C   UNL     1       7.219   4.365  11.918  0.00  0.00    +0.000 A 
ATOM      3  C   UNL     1       7.952   5.259  12.669  0.00  0.00    +0.000 A 
ATOM      4  N   UNL     1       7.737   5.483  13.984  0.00  0.00    +0.000 NA
ATOM      5  C   UNL     1       6.757   4.776  14.613  0.00  0.00    +0.000 A 
ATOM      6  C   UNL     1       5.967   3.862  13.919  0.00  0.00    +0.000 A 
ENDROOT
BRANCH   5   7
ATOM      7  C   UNL     1       6.600   5.002  16.071  0.00  0.00    +0.000 A 
ATOM      8  C   UNL     1       5.450   5.578  16.616  0.00  0.00    +0.000 A 
ATOM      9  C   UNL     1       5.379   5.806  17.989  0.00  0.00    +0.000 A 
ATOM     10  C   UNL     1       6.453   5.452  18.792  0.00  0.00    +0.000 A 
ATOM     11  C   UNL     1       7.556   4.874  18.188  0.00  0.00    +0.000 A 
ATOM     12  N   UNL     1       7.652   4.640  16.859  0.00  0.00    +0.000 NA
ENDBRANCH   5   7
BRANCH   1  14
ATOM     13  O   UNL     1       5.885   1.622  11.404  0.00  0.00    +0.000 OA
ATOM     14  C   UNL     1       5.421   2.692  11.764  0.00  0.00    +0.000 C 
BRANCH  14  15
ATOM     15  O   UNL     1       4.183   3.112  11.432  0.00  0.00    +0.000 OA
ATOM     16  H   UNL     1       3.482   2.903  12.077  0.00  0.00    +0.000 HD
ENDBRANCH  14  15
ENDBRANCH   1  14
TORSDOF 3
ENDMDL
MODEL 4
REMARK VINA RESULT:      -6.9      3.072      5.504
REMARK  Name = 
REMARK  3 active torsions:
REMARK  status: ('A' for Active; 'I' for Inactive)
REMARK    1  A    between atoms: C_2  and  O_3
REMARK    2  A    between atoms: C_2  and  C_4
REMARK    3  A    between atoms: C_8  and  C_9
REMARK                            x       y       z     vdW  Elec       q    Type
REMARK                         _______ _______ _______ _____ _____    ______ ____
ROOT
ATOM      1  C   UNL     1       6.096   3.632  12.672  0.00  0.00    +0.000 A 
ATOM      2  C   UNL     1       7.151   4.339  12.104  0.00  0.00    +0.000 A 
ATOM      3  C   UNL     1       7.883   5.169  12.927  0.00  0.00    +0.000 A 
ATOM      4  N   UNL     1       7.637   5.318  14.247  0.00  0.00    +0.000 NA
ATOM      5  C   UNL     1       6.625   4.599  14.806  0.00  0.00    +0.000 A 
ATOM      6  C   UNL     1       5.833   3.747  14.038  0.00  0.00    +0.000 A 
ENDROOT
BRANCH   5   7
ATOM      7  C   UNL     1       6.433   4.741  16.270  0.00  0.00    +0.000 A 
ATOM      8  C   UNL     1       5.255   4.348  16.909  0.00  0.00    +0.000 A 
ATOM      9  C   UNL     1       5.116   4.549  18.281  0.00  0.00    +0.000 A 
ATOM     10  C   UNL     1       6.155   5.132  18.990  0.00  0.00    +0.000 A 
ATOM     11  C   UNL     1       7.299   5.485  18.297  0.00  0.00    +0.000 A 
ATOM     12  N   UNL     1       7.462   5.303  16.966  0.00  0.00    +0.000 NA
ENDBRANCH   5   7
BRANCH   1  14
ATOM     13  O   UNL     1       4.184   2.973  11.436  0.00  0.00    +0.000 OA
ATOM     14  C   UNL     1       5.321   2.722  11.802  0.00  0.00    +0.000 C 
BRANCH  14  15
ATOM     15  O   UNL     1       5.961   1.575  11.497  0.00  0.00    +0.000 OA
ATOM     16  H   UNL     1       6.282   1.505  10.578  0.00  0.00    +0.000 HD
ENDBRANCH  14  15
ENDBRANCH   1  14
TORSDOF 3
ENDMDL
MODEL 5
REMARK VINA RESULT:      -6.8      3.196      5.714
REMARK  Name = 
REMARK  3 active torsions:
REMARK  status: ('A' for Active; 'I' for Inactive)
REMARK    1  A    between atoms: C_2  and  O_3
REMARK    2  A    between atoms: C_2  and  C_4
REMARK    3  A    between atoms: C_8  and  C_9
REMARK                            x       y       z     vdW  Elec       q    Type
REMARK                         _______ _______ _______ _____ _____    ______ ____
ROOT
ATOM      1  C   UNL     1       6.691   5.169  18.467  0.00  0.00    +0.000 A 
ATOM      2  C   UNL     1       6.944   4.883  17.129  0.00  0.00    +0.000 A 
ATOM      3  C   UNL     1       5.980   4.189  16.429  0.00  0.00    +0.000 A 
ATOM      4  N   UNL     1       4.810   3.786  16.969  0.00  0.00    +0.000 NA
ATOM      5  C   UNL     1       4.551   4.096  18.270  0.00  0.00    +0.000 A 
ATOM      6  C   UNL     1       5.480   4.787  19.046  0.00  0.00    +0.000 A 
ENDROOT
BRANCH   5   7
ATOM      7  C   UNL     1       3.227   3.695  18.803  0.00  0.00    +0.000 A 
ATOM      8  C   UNL     1       2.459   2.689  18.214  0.00  0.00    +0.000 A 
ATOM      9  C   UNL     1       1.202   2.387  18.735  0.00  0.00    +0.000 A 
ATOM     10  C   UNL     1       0.737   3.092  19.836  0.00  0.00    +0.000 A 
ATOM     11  C   UNL     1       1.555   4.067  20.378  0.00  0.00    +0.000 A 
ATOM     12  N   UNL     1       2.778   4.381  19.894  0.00  0.00    +0.000 NA
ENDBRANCH   5   7
BRANCH   1  14
ATOM     13  O   UNL     1       8.285   6.901  18.747  0.00  0.00    +0.000 OA
ATOM     14  C   UNL     1       7.709   5.934  19.218  0.00  0.00    +0.000 C 
BRANCH  14  15
ATOM     15  O   UNL     1       7.979   5.434  20.442  0.00  0.00    +0.000 OA
ATOM     16  H   UNL     1       8.660   5.914  20.950  0.00  0.00    +0.000 HD
ENDBRANCH  14  15
ENDBRANCH   1  14
TORSDOF 3
ENDMDL
MODEL 6
REMARK VINA RESULT:      -6.8      3.532      5.648
REMARK  Name = 
REMARK  3 active torsions:
REMARK  status: ('A' for Active; 'I' for Inactive)
REMARK    1  A    between atoms: C_2  and  O_3
REMARK    2  A    between atoms: C_2  and  C_4
REMARK    3  A    between atoms: C_8  and  C_9
REMARK                            x       y       z     vdW  Elec       q    Type
REMARK                         _______ _______ _______ _____ _____    ______ ____
ROOT
ATOM      1  C   UNL     1       6.430   4.528  15.671  0.00  0.00    +0.000 A 
ATOM      2  C   UNL     1       7.381   4.814  16.646  0.00  0.00    +0.000 A 
ATOM      3  C   UNL     1       6.997   4.709  17.966  0.00  0.00    +0.000 A 
ATOM      4  N   UNL     1       5.758   4.336  18.356  0.00  0.00    +0.000 NA
ATOM      5  C   UNL     1       4.840   4.026  17.400  0.00  0.00    +0.000 A 
ATOM      6  C   UNL     1       5.150   4.117  16.044  0.00  0.00    +0.000 A 
ENDROOT
BRANCH   5   7
ATOM      7  C   UNL     1       3.515   3.555  17.873  0.00  0.00    +0.000 A 
ATOM      8  C   UNL     1       2.354   4.314  17.712  0.00  0.00    +0.000 A 
ATOM      9  C   UNL     1       1.145   3.839  18.217  0.00  0.00    +0.000 A 
ATOM     10  C   UNL     1       1.116   2.614  18.867  0.00  0.00    +0.000 A 
ATOM     11  C   UNL     1       2.301   1.909  18.980  0.00  0.00    +0.000 A 
ATOM     12  N   UNL     1       3.488   2.345  18.500  0.00  0.00    +0.000 NA
ENDBRANCH   5   7
BRANCH   1  14
ATOM     13  O   UNL     1       6.374   3.891  13.389  0.00  0.00    +0.000 OA
ATOM     14  C   UNL     1       6.840   4.615  14.254  0.00  0.00    +0.000 C 
BRANCH  14  15
ATOM     15  O   UNL     1       7.810   5.523  14.017  0.00  0.00    +0.000 OA
ATOM     16  H   UNL     1       7.598   6.440  14.274  0.00  0.00    +0.000 HD
ENDBRANCH  14  15
ENDBRANCH   1  14
TORSDOF 3
ENDMDL
MODEL 7
REMARK VINA RESULT:      -6.8      3.631      4.855
REMARK  Name = 
REMARK  3 active torsions:
REMARK  status: ('A' for Active; 'I' for Inactive)
REMARK    1  A    between atoms: C_2  and  O_3
REMARK    2  A    between atoms: C_2  and  C_4
REMARK    3  A    between atoms: C_8  and  C_9
REMARK                            x       y       z     vdW  Elec       q    Type
REMARK                         _______ _______ _______ _____ _____    ______ ____
ROOT
ATOM      1  C   UNL     1       2.725   3.197  19.817  0.00  0.00    +0.000 A 
ATOM      2  C   UNL     1       2.345   2.506  18.671  0.00  0.00    +0.000 A 
ATOM      3  C   UNL     1       3.024   2.780  17.502  0.00  0.00    +0.000 A 
ATOM      4  N   UNL     1       4.038   3.668  17.419  0.00  0.00    +0.000 NA
ATOM      5  C   UNL     1       4.430   4.319  18.549  0.00  0.00    +0.000 A 
ATOM      6  C   UNL     1       3.786   4.104  19.766  0.00  0.00    +0.000 A 
ENDROOT
BRANCH   5   7
ATOM      7  C   UNL     1       5.590   5.234  18.427  0.00  0.00    +0.000 A 
ATOM      8  C   UNL     1       5.650   6.238  17.458  0.00  0.00    +0.000 A 
ATOM      9  C   UNL     1       6.787   7.038  17.364  0.00  0.00    +0.000 A 
ATOM     10  C   UNL     1       7.840   6.826  18.241  0.00  0.00    +0.000 A 
ATOM     11  C   UNL     1       7.710   5.822  19.184  0.00  0.00    +0.000 A 
ATOM     12  N   UNL     1       6.619   5.031  19.299  0.00  0.00    +0.000 NA
ENDBRANCH   5   7
BRANCH   1  14
ATOM     13  O   UNL     1       2.604   2.571  22.099  0.00  0.00    +0.000 OA
ATOM     14  C   UNL     1       2.018   2.893  21.079  0.00  0.00    +0.000 C 
BRANCH  14  15
ATOM     15  O   UNL     1       0.673   2.950  20.983  0.00  0.00    +0.000 OA
ATOM     16  H   UNL     1       0.320   3.012  20.076  0.00  0.00    +0.000 HD
ENDBRANCH  14  15
ENDBRANCH   1  14
TORSDOF 3
ENDMDL
MODEL 8
REMARK VINA RESULT:      -6.8      3.267      5.774
REMARK  Name = 
REMARK  3 active torsions:
REMARK  status: ('A' for Active; 'I' for Inactive)
REMARK    1  A    between atoms: C_2  and  O_3
REMARK    2  A    between atoms: C_2  and  C_4
REMARK    3  A    between atoms: C_8  and  C_9
REMARK                            x       y       z     vdW  Elec       q    Type
REMARK                         _______ _______ _______ _____ _____    ______ ____
ROOT
ATOM      1  C   UNL     1       6.385   4.718  16.580  0.00  0.00    +0.000 A 
ATOM      2  C   UNL     1       7.316   5.220  17.484  0.00  0.00    +0.000 A 
ATOM      3  C   UNL     1       6.909   5.403  18.789  0.00  0.00    +0.000 A 
ATOM      4  N   UNL     1       5.666   5.111  19.231  0.00  0.00    +0.000 NA
ATOM      5  C   UNL     1       4.767   4.590  18.351  0.00  0.00    +0.000 A 
ATOM      6  C   UNL     1       5.101   4.385  17.013  0.00  0.00    +0.000 A 
ENDROOT
BRANCH   5   7
ATOM      7  C   UNL     1       3.437   4.221  18.893  0.00  0.00    +0.000 A 
ATOM      8  C   UNL     1       2.528   3.442  18.173  0.00  0.00    +0.000 A 
ATOM      9  C   UNL     1       1.275   3.166  18.717  0.00  0.00    +0.000 A 
ATOM     10  C   UNL     1       0.954   3.667  19.970  0.00  0.00    +0.000 A 
ATOM     11  C   UNL     1       1.906   4.421  20.633  0.00  0.00    +0.000 A 
ATOM     12  N   UNL     1       3.129   4.704  20.131  0.00  0.00    +0.000 NA
ENDBRANCH   5   7
BRANCH   1  14
ATOM     13  O   UNL     1       7.593   5.247  14.611  0.00  0.00    +0.000 OA
ATOM     14  C   UNL     1       6.821   4.497  15.185  0.00  0.00    +0.000 C 
BRANCH  14  15
ATOM     15  O   UNL     1       6.248   3.428  14.594  0.00  0.00    +0.000 OA
ATOM     16  H   UNL     1       5.862   2.769  15.201  0.00  0.00    +0.000 HD
ENDBRANCH  14  15
ENDBRANCH   1  14
TORSDOF 3
ENDMDL
MODEL 9
REMARK VINA RESULT:      -6.8      3.222      5.908
REMARK  Name = 
REMARK  3 active torsions:
REMARK  status: ('A' for Active; 'I' for Inactive)
REMARK    1  A    between atoms: C_2  and  O_3
REMARK    2  A    between atoms: C_2  and  C_4
REMARK    3  A    between atoms: C_8  and  C_9
REMARK                            x       y       z     vdW  Elec       q    Type
REMARK                         _______ _______ _______ _____ _____    ______ ____
ROOT
ATOM      1  C   UNL     1       6.412   4.801  16.869  0.00  0.00    +0.000 A 
ATOM      2  C   UNL     1       7.337   5.336  17.760  0.00  0.00    +0.000 A 
ATOM      3  C   UNL     1       6.927   5.545  19.060  0.00  0.00    +0.000 A 
ATOM      4  N   UNL     1       5.688   5.248  19.510  0.00  0.00    +0.000 NA
ATOM      5  C   UNL     1       4.796   4.694  18.643  0.00  0.00    +0.000 A 
ATOM      6  C   UNL     1       5.132   4.462  17.310  0.00  0.00    +0.000 A 
ENDROOT
BRANCH   5   7
ATOM      7  C   UNL     1       3.471   4.321  19.194  0.00  0.00    +0.000 A 
ATOM      8  C   UNL     1       2.775   5.141  20.085  0.00  0.00    +0.000 A 
ATOM      9  C   UNL     1       1.554   4.715  20.603  0.00  0.00    +0.000 A 
ATOM     10  C   UNL     1       1.047   3.483  20.220  0.00  0.00    +0.000 A 
ATOM     11  C   UNL     1       1.782   2.726  19.324  0.00  0.00    +0.000 A 
ATOM     12  N   UNL     1       2.969   3.114  18.804  0.00  0.00    +0.000 NA
ENDBRANCH   5   7
BRANCH   1  14
ATOM     13  O   UNL     1       7.608   5.301  14.885  0.00  0.00    +0.000 OA
ATOM     14  C   UNL     1       6.851   4.552  15.479  0.00  0.00    +0.000 C 
BRANCH  14  15
ATOM     15  O   UNL     1       6.297   3.458  14.916  0.00  0.00    +0.000 OA
ATOM     16  H   UNL     1       6.799   3.066  14.178  0.00  0.00    +0.000 HD
ENDBRANCH  14  15
ENDBRANCH   1  14
TORSDOF 3
ENDMDL
