MODEL 1
REMARK VINA RESULT:      -7.7      0.000      0.000
REMARK  Name = 
REMARK  11 active torsions:
REMARK  status: ('A' for Active; 'I' for Inactive)
REMARK    1  A    between atoms: C_1  and  O_2
REMARK    2  A    between atoms: O_2  and  C_3
REMARK    3  A    between atoms: C_5  and  C_6
REMARK    4  A    between atoms: C_6  and  C_7
REMARK    5  A    between atoms: C_7  and  C_8
REMARK    6  A    between atoms: N_10  and  N_11
REMARK    7  A    between atoms: C_12  and  C_14
REMARK    8  A    between atoms: C_22  and  O_23
REMARK    9  A    between atoms: O_23  and  C_24
REMARK   10  A    between atoms: C_25  and  O_26
REMARK   11  A    between atoms: O_26  and  C_27
REMARK                            x       y       z     vdW  Elec       q    Type
REMARK                         _______ _______ _______ _____ _____    ______ ____
ROOT
ATOM      1  C   UNL     1       7.997   7.431  18.100  0.00  0.00    +0.000 C 
ATOM      2  O   UNL     1       7.723   7.619  16.917  0.00  0.00    +0.000 OA
ATOM      3  N   UNL     1       8.631   8.382  18.872  0.00  0.00    +0.000 N 
ATOM      4  H   UNL     1       8.869   8.269  19.856  0.00  0.00    +0.000 HD
ENDROOT
BRANCH   3   5
ATOM      5  N   UNL     1       8.922   9.632  18.299  0.00  0.00    +0.000 N 
ATOM      6  C   UNL     1       9.367  10.636  19.130  0.00  0.00    +0.000 C 
ATOM      7  O   UNL     1       9.490  10.490  20.348  0.00  0.00    +0.000 OA
ATOM      8  H   UNL     1       8.966   9.655  17.282  0.00  0.00    +0.000 HD
BRANCH   6   9
ATOM      9  C   UNL     1       9.722  11.931  18.485  0.00  0.00    +0.000 A 
ATOM     10  C   UNL     1      10.858  11.981  17.662  0.00  0.00    +0.000 A 
ATOM     11  C   UNL     1      11.236  13.178  17.051  0.00  0.00    +0.000 A 
ATOM     12  C   UNL     1      10.487  14.335  17.268  0.00  0.00    +0.000 A 
ATOM     13  C   UNL     1       9.370  14.289  18.100  0.00  0.00    +0.000 A 
ATOM     14 CL   UNL     1       8.466  15.726  18.387  0.00  0.00    +0.000 Cl
ATOM     15  C   UNL     1       8.979  13.097  18.710  0.00  0.00    +0.000 A 
ENDBRANCH   6   9
ENDBRANCH   3   5
BRANCH   1  16
ATOM     16  C   UNL     1       7.684   6.127  18.815  0.00  0.00    +0.000 C 
BRANCH  16  17
ATOM     17  C   UNL     1       6.910   5.177  17.910  0.00  0.00    +0.000 C 
BRANCH  17  20
ATOM     18  C   UNL     1       3.330   5.788  19.090  0.00  0.00    +0.000 A 
ATOM     19  C   UNL     1       4.725   5.904  18.930  0.00  0.00    +0.000 A 
ATOM     20  C   UNL     1       5.480   4.903  18.317  0.00  0.00    +0.000 A 
ATOM     21  C   UNL     1       4.834   3.715  17.975  0.00  0.00    +0.000 A 
ATOM     22  C   UNL     1       3.456   3.542  18.203  0.00  0.00    +0.000 A 
ATOM     23  C   UNL     1       2.682   4.578  18.771  0.00  0.00    +0.000 A 
BRANCH  18  25
ATOM     24  C   UNL     1       2.323   7.870  18.593  0.00  0.00    +0.000 C 
ATOM     25  O   UNL     1       2.608   6.855  19.562  0.00  0.00    +0.000 OA
ENDBRANCH  18  25
BRANCH  22  26
ATOM     26  O   UNL     1       3.016   2.290  17.833  0.00  0.00    +0.000 OA
ATOM     27  C   UNL     1       3.606   1.173  18.489  0.00  0.00    +0.000 C 
ENDBRANCH  22  26
BRANCH  23  28
ATOM     28  O   UNL     1       1.361   4.281  18.967  0.00  0.00    +0.000 OA
ATOM     29  C   UNL     1       0.877   3.826  20.217  0.00  0.00    +0.000 C 
ENDBRANCH  23  28
ENDBRANCH  17  20
ENDBRANCH  16  17
ENDBRANCH   1  16
TORSDOF 8
ENDMDL
MODEL 2
REMARK VINA RESULT:      -7.6      3.673     10.243
REMARK  Name = 
REMARK  11 active torsions:
REMARK  status: ('A' for Active; 'I' for Inactive)
REMARK    1  A    between atoms: C_1  and  O_2
REMARK    2  A    between atoms: O_2  and  C_3
REMARK    3  A    between atoms: C_5  and  C_6
REMARK    4  A    between atoms: C_6  and  C_7
REMARK    5  A    between atoms: C_7  and  C_8
REMARK    6  A    between atoms: N_10  and  N_11
REMARK    7  A    between atoms: C_12  and  C_14
REMARK    8  A    between atoms: C_22  and  O_23
REMARK    9  A    between atoms: O_23  and  C_24
REMARK   10  A    between atoms: C_25  and  O_26
REMARK   11  A    between atoms: O_26  and  C_27
REMARK                            x       y       z     vdW  Elec       q    Type
REMARK                         _______ _______ _______ _____ _____    ______ ____
ROOT
ATOM      1  C   UNL     1       7.391   7.429  17.876  0.00  0.00    +0.000 C 
ATOM      2  O   UNL     1       7.788   6.592  18.683  0.00  0.00    +0.000 OA
ATOM      3  N   UNL     1       6.270   7.231  17.098  0.00  0.00    +0.000 N 
ATOM      4  H   UNL     1       5.903   7.901  16.424  0.00  0.00    +0.000 HD
ENDROOT
BRANCH   3   5
ATOM      5  N   UNL     1       5.522   6.054  17.277  0.00  0.00    +0.000 N 
ATOM      6  C   UNL     1       4.217   6.175  17.698  0.00  0.00    +0.000 C 
ATOM      7  O   UNL     1       3.694   7.262  17.950  0.00  0.00    +0.000 OA
ATOM      8  H   UNL     1       5.938   5.204  16.901  0.00  0.00    +0.000 HD
BRANCH   6   9
ATOM      9  C   UNL     1       3.435   4.913  17.823  0.00  0.00    +0.000 A 
ATOM     10  C   UNL     1       2.034   4.994  17.866  0.00  0.00    +0.000 A 
ATOM     11  C   UNL     1       1.263   3.837  17.997  0.00  0.00    +0.000 A 
ATOM     12  C   UNL     1       1.888   2.595  18.100  0.00  0.00    +0.000 A 
ATOM     13  C   UNL     1       3.279   2.516  18.075  0.00  0.00    +0.000 A 
ATOM     14 CL   UNL     1       4.046   0.982  18.230  0.00  0.00    +0.000 Cl
ATOM     15  C   UNL     1       4.060   3.664  17.937  0.00  0.00    +0.000 A 
ENDBRANCH   6   9
ENDBRANCH   3   5
BRANCH   1  16
ATOM     16  C   UNL     1       8.110   8.748  17.644  0.00  0.00    +0.000 C 
BRANCH  16  17
ATOM     17  C   UNL     1       9.028   9.086  18.812  0.00  0.00    +0.000 C 
BRANCH  17  20
ATOM     18  C   UNL     1       9.804  12.406  20.533  0.00  0.00    +0.000 A 
ATOM     19  C   UNL     1       9.279  11.125  20.269  0.00  0.00    +0.000 A 
ATOM     20  C   UNL     1       9.339  10.553  18.998  0.00  0.00    +0.000 A 
ATOM     21  C   UNL     1       9.824  11.339  17.951  0.00  0.00    +0.000 A 
ATOM     22  C   UNL     1      10.275  12.653  18.174  0.00  0.00    +0.000 A 
ATOM     23  C   UNL     1      10.267  13.210  19.472  0.00  0.00    +0.000 A 
BRANCH  18  25
ATOM     24  C   UNL     1       8.661  13.500  22.291  0.00  0.00    +0.000 C 
ATOM     25  O   UNL     1       9.857  12.867  21.824  0.00  0.00    +0.000 OA
ENDBRANCH  18  25
BRANCH  22  26
ATOM     26  O   UNL     1      10.678  13.273  17.012  0.00  0.00    +0.000 OA
ATOM     27  C   UNL     1      12.076  13.309  16.744  0.00  0.00    +0.000 C 
ENDBRANCH  22  26
BRANCH  23  28
ATOM     28  O   UNL     1      10.706  14.502  19.557  0.00  0.00    +0.000 OA
ATOM     29  C   UNL     1       9.831  15.600  19.373  0.00  0.00    +0.000 C 
ENDBRANCH  23  28
ENDBRANCH  17  20
ENDBRANCH  16  17
ENDBRANCH   1  16
TORSDOF 8
ENDMDL
MODEL 3
REMARK VINA RESULT:      -7.4      2.065      2.268
REMARK  Name = 
REMARK  11 active torsions:
REMARK  status: ('A' for Active; 'I' for Inactive)
REMARK    1  A    between atoms: C_1  and  O_2
REMARK    2  A    between atoms: O_2  and  C_3
REMARK    3  A    between atoms: C_5  and  C_6
REMARK    4  A    between atoms: C_6  and  C_7
REMARK    5  A    between atoms: C_7  and  C_8
REMARK    6  A    between atoms: N_10  and  N_11
REMARK    7  A    between atoms: C_12  and  C_14
REMARK    8  A    between atoms: C_22  and  O_23
REMARK    9  A    between atoms: O_23  and  C_24
REMARK   10  A    between atoms: C_25  and  O_26
REMARK   11  A    between atoms: O_26  and  C_27
REMARK                            x       y       z     vdW  Elec       q    Type
REMARK                         _______ _______ _______ _____ _____    ______ ____
ROOT
ATOM      1  C   UNL     1       7.417   6.797  17.667  0.00  0.00    +0.000 C 
ATOM      2  O   UNL     1       7.868   6.232  18.661  0.00  0.00    +0.000 OA
ATOM      3  N   UNL     1       7.661   8.128  17.400  0.00  0.00    +0.000 N 
ATOM      4  H   UNL     1       7.312   8.632  16.586  0.00  0.00    +0.000 HD
ENDROOT
BRANCH   3   5
ATOM      5  N   UNL     1       8.503   8.847  18.265  0.00  0.00    +0.000 N 
ATOM      6  C   UNL     1       8.548  10.217  18.132  0.00  0.00    +0.000 C 
ATOM      7  O   UNL     1       7.906  10.827  17.274  0.00  0.00    +0.000 OA
ATOM      8  H   UNL     1       8.879   8.325  19.054  0.00  0.00    +0.000 HD
BRANCH   6   9
ATOM      9  C   UNL     1       9.406  10.956  19.101  0.00  0.00    +0.000 A 
ATOM     10  C   UNL     1      10.757  11.160  18.779  0.00  0.00    +0.000 A 
ATOM     11  C   UNL     1      11.600  11.833  19.665  0.00  0.00    +0.000 A 
ATOM     12  C   UNL     1      11.101  12.295  20.883  0.00  0.00    +0.000 A 
ATOM     13  C   UNL     1       9.764  12.076  21.210  0.00  0.00    +0.000 A 
ATOM     14 CL   UNL     1       9.160  12.623  22.726  0.00  0.00    +0.000 Cl
ATOM     15  C   UNL     1       8.910  11.411  20.329  0.00  0.00    +0.000 A 
ENDBRANCH   6   9
ENDBRANCH   3   5
BRANCH   1  16
ATOM     16  C   UNL     1       6.531   6.090  16.656  0.00  0.00    +0.000 C 
BRANCH  16  17
ATOM     17  C   UNL     1       5.060   6.410  16.895  0.00  0.00    +0.000 C 
BRANCH  17  20
ATOM     18  C   UNL     1       2.729   5.768  19.851  0.00  0.00    +0.000 A 
ATOM     19  C   UNL     1       3.535   6.424  18.899  0.00  0.00    +0.000 A 
ATOM     20  C   UNL     1       4.426   5.725  18.084  0.00  0.00    +0.000 A 
ATOM     21  C   UNL     1       4.595   4.360  18.322  0.00  0.00    +0.000 A 
ATOM     22  C   UNL     1       3.863   3.698  19.325  0.00  0.00    +0.000 A 
ATOM     23  C   UNL     1       2.919   4.396  20.111  0.00  0.00    +0.000 A 
BRANCH  18  25
ATOM     24  C   UNL     1       1.776   7.885  20.302  0.00  0.00    +0.000 C 
ATOM     25  O   UNL     1       1.762   6.472  20.525  0.00  0.00    +0.000 OA
ENDBRANCH  18  25
BRANCH  22  26
ATOM     26  O   UNL     1       4.200   2.367  19.427  0.00  0.00    +0.000 OA
ATOM     27  C   UNL     1       3.624   1.475  18.479  0.00  0.00    +0.000 C 
ENDBRANCH  22  26
BRANCH  23  28
ATOM     28  O   UNL     1       2.290   3.650  21.069  0.00  0.00    +0.000 OA
ATOM     29  C   UNL     1       1.073   2.976  20.807  0.00  0.00    +0.000 C 
ENDBRANCH  23  28
ENDBRANCH  17  20
ENDBRANCH  16  17
ENDBRANCH   1  16
TORSDOF 8
ENDMDL
MODEL 4
REMARK VINA RESULT:      -7.3      0.934      2.559
REMARK  Name = 
REMARK  11 active torsions:
REMARK  status: ('A' for Active; 'I' for Inactive)
REMARK    1  A    between atoms: C_1  and  O_2
REMARK    2  A    between atoms: O_2  and  C_3
REMARK    3  A    between atoms: C_5  and  C_6
REMARK    4  A    between atoms: C_6  and  C_7
REMARK    5  A    between atoms: C_7  and  C_8
REMARK    6  A    between atoms: N_10  and  N_11
REMARK    7  A    between atoms: C_12  and  C_14
REMARK    8  A    between atoms: C_22  and  O_23
REMARK    9  A    between atoms: O_23  and  C_24
REMARK   10  A    between atoms: C_25  and  O_26
REMARK   11  A    between atoms: O_26  and  C_27
REMARK                            x       y       z     vdW  Elec       q    Type
REMARK                         _______ _______ _______ _____ _____    ______ ____
ROOT
ATOM      1  C   UNL     1       8.105   7.857  18.140  0.00  0.00    +0.000 C 
ATOM      2  O   UNL     1       7.711   8.220  17.034  0.00  0.00    +0.000 OA
ATOM      3  N   UNL     1       8.848   8.676  18.964  0.00  0.00    +0.000 N 
ATOM      4  H   UNL     1       9.188   8.417  19.890  0.00  0.00    +0.000 HD
ENDROOT
BRANCH   3   5
ATOM      5  N   UNL     1       9.113   9.992  18.549  0.00  0.00    +0.000 N 
ATOM      6  C   UNL     1       9.397  10.930  19.515  0.00  0.00    +0.000 C 
ATOM      7  O   UNL     1       9.399  10.670  20.720  0.00  0.00    +0.000 OA
ATOM      8  H   UNL     1       9.264  10.120  17.549  0.00  0.00    +0.000 HD
BRANCH   6   9
ATOM      9  C   UNL     1       9.731  12.302  19.038  0.00  0.00    +0.000 A 
ATOM     10  C   UNL     1      10.197  12.460  17.724  0.00  0.00    +0.000 A 
ATOM     11  C   UNL     1      10.536  13.726  17.242  0.00  0.00    +0.000 A 
ATOM     12  C   UNL     1      10.424  14.839  18.075  0.00  0.00    +0.000 A 
ATOM     13  C   UNL     1       9.978  14.679  19.386  0.00  0.00    +0.000 A 
ATOM     14 CL   UNL     1       9.867  16.052  20.419  0.00  0.00    +0.000 Cl
ATOM     15  C   UNL     1       9.629  13.420  19.877  0.00  0.00    +0.000 A 
ENDBRANCH   6   9
ENDBRANCH   3   5
BRANCH   1  16
ATOM     16  C   UNL     1       7.832   6.468  18.691  0.00  0.00    +0.000 C 
BRANCH  16  17
ATOM     17  C   UNL     1       7.036   5.630  17.697  0.00  0.00    +0.000 C 
BRANCH  17  20
ATOM     18  C   UNL     1       4.121   3.557  19.034  0.00  0.00    +0.000 A 
ATOM     19  C   UNL     1       5.319   3.922  18.389  0.00  0.00    +0.000 A 
ATOM     20  C   UNL     1       5.637   5.256  18.128  0.00  0.00    +0.000 A 
ATOM     21  C   UNL     1       4.672   6.223  18.412  0.00  0.00    +0.000 A 
ATOM     22  C   UNL     1       3.433   5.874  18.979  0.00  0.00    +0.000 A 
ATOM     23  C   UNL     1       3.136   4.529  19.295  0.00  0.00    +0.000 A 
BRANCH  18  25
ATOM     24  C   UNL     1       3.451   1.392  18.356  0.00  0.00    +0.000 C 
ATOM     25  O   UNL     1       3.917   2.251  19.403  0.00  0.00    +0.000 OA
ENDBRANCH  18  25
BRANCH  22  26
ATOM     26  O   UNL     1       2.607   6.964  19.147  0.00  0.00    +0.000 OA
ATOM     27  C   UNL     1       2.437   7.829  18.029  0.00  0.00    +0.000 C 
ENDBRANCH  22  26
BRANCH  23  28
ATOM     28  O   UNL     1       1.890   4.314  19.818  0.00  0.00    +0.000 OA
ATOM     29  C   UNL     1       1.705   3.932  21.168  0.00  0.00    +0.000 C 
ENDBRANCH  23  28
ENDBRANCH  17  20
ENDBRANCH  16  17
ENDBRANCH   1  16
TORSDOF 8
ENDMDL
MODEL 5
REMARK VINA RESULT:      -7.3      5.816      9.393
REMARK  Name = 
REMARK  11 active torsions:
REMARK  status: ('A' for Active; 'I' for Inactive)
REMARK    1  A    between atoms: C_1  and  O_2
REMARK    2  A    between atoms: O_2  and  C_3
REMARK    3  A    between atoms: C_5  and  C_6
REMARK    4  A    between atoms: C_6  and  C_7
REMARK    5  A    between atoms: C_7  and  C_8
REMARK    6  A    between atoms: N_10  and  N_11
REMARK    7  A    between atoms: C_12  and  C_14
REMARK    8  A    between atoms: C_22  and  O_23
REMARK    9  A    between atoms: O_23  and  C_24
REMARK   10  A    between atoms: C_25  and  O_26
REMARK   11  A    between atoms: O_26  and  C_27
REMARK                            x       y       z     vdW  Elec       q    Type
REMARK                         _______ _______ _______ _____ _____    ______ ____
ROOT
ATOM      1  C   UNL     1       0.856   9.760  18.616  0.00  0.00    +0.000 C 
ATOM      2  O   UNL     1       0.597   9.871  19.812  0.00  0.00    +0.000 OA
ATOM      3  N   UNL     1       0.032  10.263  17.632  0.00  0.00    +0.000 N 
ATOM      4  H   UNL     1       0.213  10.199  16.631  0.00  0.00    +0.000 HD
ENDROOT
BRANCH   3   5
ATOM      5  N   UNL     1      -1.117  10.979  18.012  0.00  0.00    +0.000 N 
ATOM      6  C   UNL     1      -2.341  10.503  17.599  0.00  0.00    +0.000 C 
ATOM      7  O   UNL     1      -2.465   9.501  16.893  0.00  0.00    +0.000 OA
ATOM      8  H   UNL     1      -0.979  11.693  18.725  0.00  0.00    +0.000 HD
BRANCH   6   9
ATOM      9  C   UNL     1      -3.542  11.251  18.067  0.00  0.00    +0.000 A 
ATOM     10  C   UNL     1      -4.683  11.264  17.250  0.00  0.00    +0.000 A 
ATOM     11  C   UNL     1      -5.825  11.966  17.643  0.00  0.00    +0.000 A 
ATOM     12  C   UNL     1      -5.828  12.668  18.847  0.00  0.00    +0.000 A 
ATOM     13  C   UNL     1      -4.688  12.671  19.649  0.00  0.00    +0.000 A 
ATOM     14 CL   UNL     1      -4.687  13.564  21.122  0.00  0.00    +0.000 Cl
ATOM     15  C   UNL     1      -3.544  11.968  19.271  0.00  0.00    +0.000 A 
ENDBRANCH   6   9
ENDBRANCH   3   5
BRANCH   1  16
ATOM     16  C   UNL     1       2.095   9.039  18.112  0.00  0.00    +0.000 C 
BRANCH  16  17
ATOM     17  C   UNL     1       2.072   7.567  18.504  0.00  0.00    +0.000 C 
BRANCH  17  20
ATOM     18  C   UNL     1       5.308   6.455  16.808  0.00  0.00    +0.000 A 
ATOM     19  C   UNL     1       4.226   7.249  17.239  0.00  0.00    +0.000 A 
ATOM     20  C   UNL     1       3.080   6.686  17.801  0.00  0.00    +0.000 A 
ATOM     21  C   UNL     1       2.974   5.295  17.813  0.00  0.00    +0.000 A 
ATOM     22  C   UNL     1       4.006   4.481  17.310  0.00  0.00    +0.000 A 
ATOM     23  C   UNL     1       5.190   5.051  16.793  0.00  0.00    +0.000 A 
BRANCH  18  25
ATOM     24  C   UNL     1       7.436   7.276  17.434  0.00  0.00    +0.000 C 
ATOM     25  O   UNL     1       6.473   7.056  16.399  0.00  0.00    +0.000 OA
ENDBRANCH  18  25
BRANCH  22  26
ATOM     26  O   UNL     1       3.695   3.141  17.376  0.00  0.00    +0.000 OA
ATOM     27  C   UNL     1       3.669   2.541  18.668  0.00  0.00    +0.000 C 
ENDBRANCH  22  26
BRANCH  23  28
ATOM     28  O   UNL     1       6.107   4.158  16.312  0.00  0.00    +0.000 OA
ATOM     29  C   UNL     1       6.285   3.949  14.923  0.00  0.00    +0.000 C 
ENDBRANCH  23  28
ENDBRANCH  17  20
ENDBRANCH  16  17
ENDBRANCH   1  16
TORSDOF 8
ENDMDL
MODEL 6
REMARK VINA RESULT:      -7.2      3.739      9.861
REMARK  Name = 
REMARK  11 active torsions:
REMARK  status: ('A' for Active; 'I' for Inactive)
REMARK    1  A    between atoms: C_1  and  O_2
REMARK    2  A    between atoms: O_2  and  C_3
REMARK    3  A    between atoms: C_5  and  C_6
REMARK    4  A    between atoms: C_6  and  C_7
REMARK    5  A    between atoms: C_7  and  C_8
REMARK    6  A    between atoms: N_10  and  N_11
REMARK    7  A    between atoms: C_12  and  C_14
REMARK    8  A    between atoms: C_22  and  O_23
REMARK    9  A    between atoms: O_23  and  C_24
REMARK   10  A    between atoms: C_25  and  O_26
REMARK   11  A    between atoms: O_26  and  C_27
REMARK                            x       y       z     vdW  Elec       q    Type
REMARK                         _______ _______ _______ _____ _____    ______ ____
ROOT
ATOM      1  C   UNL     1       7.399   7.492  17.847  0.00  0.00    +0.000 C 
ATOM      2  O   UNL     1       7.865   6.617  18.572  0.00  0.00    +0.000 OA
ATOM      3  N   UNL     1       6.212   7.331  17.163  0.00  0.00    +0.000 N 
ATOM      4  H   UNL     1       5.788   8.033  16.558  0.00  0.00    +0.000 HD
ENDROOT
BRANCH   3   5
ATOM      5  N   UNL     1       5.481   6.145  17.348  0.00  0.00    +0.000 N 
ATOM      6  C   UNL     1       4.150   6.251  17.682  0.00  0.00    +0.000 C 
ATOM      7  O   UNL     1       3.587   7.335  17.850  0.00  0.00    +0.000 OA
ATOM      8  H   UNL     1       5.938   5.289  17.039  0.00  0.00    +0.000 HD
BRANCH   6   9
ATOM      9  C   UNL     1       3.389   4.976  17.815  0.00  0.00    +0.000 A 
ATOM     10  C   UNL     1       1.987   5.034  17.852  0.00  0.00    +0.000 A 
ATOM     11  C   UNL     1       1.236   3.865  17.991  0.00  0.00    +0.000 A 
ATOM     12  C   UNL     1       1.882   2.634  18.107  0.00  0.00    +0.000 A 
ATOM     13  C   UNL     1       3.275   2.580  18.089  0.00  0.00    +0.000 A 
ATOM     14 CL   UNL     1       4.068   1.061  18.261  0.00  0.00    +0.000 Cl
ATOM     15  C   UNL     1       4.036   3.740  17.943  0.00  0.00    +0.000 A 
ENDBRANCH   6   9
ENDBRANCH   3   5
BRANCH   1  16
ATOM     16  C   UNL     1       8.097   8.822  17.618  0.00  0.00    +0.000 C 
BRANCH  16  17
ATOM     17  C   UNL     1       9.063   9.138  18.753  0.00  0.00    +0.000 C 
BRANCH  17  20
ATOM     18  C   UNL     1       8.760  12.939  18.543  0.00  0.00    +0.000 A 
ATOM     19  C   UNL     1       8.924  11.587  18.181  0.00  0.00    +0.000 A 
ATOM     20  C   UNL     1       9.171  10.597  19.134  0.00  0.00    +0.000 A 
ATOM     21  C   UNL     1       9.380  10.999  20.454  0.00  0.00    +0.000 A 
ATOM     22  C   UNL     1       9.305  12.354  20.824  0.00  0.00    +0.000 A 
ATOM     23  C   UNL     1       8.998  13.349  19.870  0.00  0.00    +0.000 A 
BRANCH  18  25
ATOM     24  C   UNL     1       6.964  14.101  17.534  0.00  0.00    +0.000 C 
ATOM     25  O   UNL     1       8.372  13.854  17.596  0.00  0.00    +0.000 OA
ENDBRANCH  18  25
BRANCH  22  26
ATOM     26  O   UNL     1       9.577  12.547  22.160  0.00  0.00    +0.000 OA
ATOM     27  C   UNL     1       8.576  12.153  23.093  0.00  0.00    +0.000 C 
ENDBRANCH  22  26
BRANCH  23  28
ATOM     28  O   UNL     1       8.979  14.630  20.347  0.00  0.00    +0.000 OA
ATOM     29  C   UNL     1       7.818  15.189  20.934  0.00  0.00    +0.000 C 
ENDBRANCH  23  28
ENDBRANCH  17  20
ENDBRANCH  16  17
ENDBRANCH   1  16
TORSDOF 8
ENDMDL
MODEL 7
REMARK VINA RESULT:      -7.2      3.561     10.105
REMARK  Name = 
REMARK  11 active torsions:
REMARK  status: ('A' for Active; 'I' for Inactive)
REMARK    1  A    between atoms: C_1  and  O_2
REMARK    2  A    between atoms: O_2  and  C_3
REMARK    3  A    between atoms: C_5  and  C_6
REMARK    4  A    between atoms: C_6  and  C_7
REMARK    5  A    between atoms: C_7  and  C_8
REMARK    6  A    between atoms: N_10  and  N_11
REMARK    7  A    between atoms: C_12  and  C_14
REMARK    8  A    between atoms: C_22  and  O_23
REMARK    9  A    between atoms: O_23  and  C_24
REMARK   10  A    between atoms: C_25  and  O_26
REMARK   11  A    between atoms: O_26  and  C_27
REMARK                            x       y       z     vdW  Elec       q    Type
REMARK                         _______ _______ _______ _____ _____    ______ ____
ROOT
ATOM      1  C   UNL     1       7.515   7.045  18.118  0.00  0.00    +0.000 C 
ATOM      2  O   UNL     1       7.919   6.253  18.966  0.00  0.00    +0.000 OA
ATOM      3  N   UNL     1       6.238   6.987  17.602  0.00  0.00    +0.000 N 
ATOM      4  H   UNL     1       5.862   7.628  16.904  0.00  0.00    +0.000 HD
ENDROOT
BRANCH   3   5
ATOM      5  N   UNL     1       5.348   6.023  18.105  0.00  0.00    +0.000 N 
ATOM      6  C   UNL     1       4.002   6.307  18.076  0.00  0.00    +0.000 C 
ATOM      7  O   UNL     1       3.553   7.376  17.657  0.00  0.00    +0.000 OA
ATOM      8  H   UNL     1       5.746   5.102  18.282  0.00  0.00    +0.000 HD
BRANCH   6   9
ATOM      9  C   UNL     1       3.082   5.241  18.564  0.00  0.00    +0.000 A 
ATOM     10  C   UNL     1       2.158   4.690  17.662  0.00  0.00    +0.000 A 
ATOM     11  C   UNL     1       1.267   3.700  18.081  0.00  0.00    +0.000 A 
ATOM     12  C   UNL     1       1.285   3.265  19.406  0.00  0.00    +0.000 A 
ATOM     13  C   UNL     1       2.190   3.827  20.306  0.00  0.00    +0.000 A 
ATOM     14 CL   UNL     1       2.189   3.307  21.947  0.00  0.00    +0.000 Cl
ATOM     15  C   UNL     1       3.090   4.811  19.897  0.00  0.00    +0.000 A 
ENDBRANCH   6   9
ENDBRANCH   3   5
BRANCH   1  16
ATOM     16  C   UNL     1       8.391   8.146  17.545  0.00  0.00    +0.000 C 
BRANCH  16  17
ATOM     17  C   UNL     1       7.960   9.515  18.059  0.00  0.00    +0.000 C 
BRANCH  17  20
ATOM     18  C   UNL     1      10.939  11.903  18.148  0.00  0.00    +0.000 A 
ATOM     19  C   UNL     1      10.048  10.888  17.745  0.00  0.00    +0.000 A 
ATOM     20  C   UNL     1       9.067  10.388  18.603  0.00  0.00    +0.000 A 
ATOM     21  C   UNL     1       9.070  10.832  19.926  0.00  0.00    +0.000 A 
ATOM     22  C   UNL     1      10.005  11.783  20.375  0.00  0.00    +0.000 A 
ATOM     23  C   UNL     1      10.960  12.331  19.490  0.00  0.00    +0.000 A 
BRANCH  18  25
ATOM     24  C   UNL     1      11.292  13.651  16.595  0.00  0.00    +0.000 C 
ATOM     25  O   UNL     1      11.788  12.468  17.229  0.00  0.00    +0.000 OA
ENDBRANCH  18  25
BRANCH  22  26
ATOM     26  O   UNL     1       9.867  12.061  21.717  0.00  0.00    +0.000 OA
ATOM     27  C   UNL     1       8.561  12.383  22.184  0.00  0.00    +0.000 C 
ENDBRANCH  22  26
BRANCH  23  28
ATOM     28  O   UNL     1      11.830  13.226  20.050  0.00  0.00    +0.000 OA
ATOM     29  C   UNL     1      11.532  14.608  20.124  0.00  0.00    +0.000 C 
ENDBRANCH  23  28
ENDBRANCH  17  20
ENDBRANCH  16  17
ENDBRANCH   1  16
TORSDOF 8
ENDMDL
MODEL 8
REMARK VINA RESULT:      -7.2      3.596     10.288
REMARK  Name = 
REMARK  11 active torsions:
REMARK  status: ('A' for Active; 'I' for Inactive)
REMARK    1  A    between atoms: C_1  and  O_2
REMARK    2  A    between atoms: O_2  and  C_3
REMARK    3  A    between atoms: C_5  and  C_6
REMARK    4  A    between atoms: C_6  and  C_7
REMARK    5  A    between atoms: C_7  and  C_8
REMARK    6  A    between atoms: N_10  and  N_11
REMARK    7  A    between atoms: C_12  and  C_14
REMARK    8  A    between atoms: C_22  and  O_23
REMARK    9  A    between atoms: O_23  and  C_24
REMARK   10  A    between atoms: C_25  and  O_26
REMARK   11  A    between atoms: O_26  and  C_27
REMARK                            x       y       z     vdW  Elec       q    Type
REMARK                         _______ _______ _______ _____ _____    ______ ____
ROOT
ATOM      1  C   UNL     1       7.571   7.795  17.888  0.00  0.00    +0.000 C 
ATOM      2  O   UNL     1       8.072   6.970  18.649  0.00  0.00    +0.000 OA
ATOM      3  N   UNL     1       6.405   7.546  17.194  0.00  0.00    +0.000 N 
ATOM      4  H   UNL     1       5.953   8.204  16.560  0.00  0.00    +0.000 HD
ENDROOT
BRANCH   3   5
ATOM      5  N   UNL     1       5.737   6.329  17.408  0.00  0.00    +0.000 N 
ATOM      6  C   UNL     1       4.375   6.364  17.602  0.00  0.00    +0.000 C 
ATOM      7  O   UNL     1       3.729   7.414  17.622  0.00  0.00    +0.000 OA
ATOM      8  H   UNL     1       6.277   5.486  17.218  0.00  0.00    +0.000 HD
BRANCH   6   9
ATOM      9  C   UNL     1       3.688   5.052  17.768  0.00  0.00    +0.000 A 
ATOM     10  C   UNL     1       4.148   3.955  17.023  0.00  0.00    +0.000 A 
ATOM     11  C   UNL     1       3.523   2.711  17.138  0.00  0.00    +0.000 A 
ATOM     12  C   UNL     1       2.427   2.561  17.987  0.00  0.00    +0.000 A 
ATOM     13  C   UNL     1       1.959   3.655  18.713  0.00  0.00    +0.000 A 
ATOM     14 CL   UNL     1       0.588   3.470  19.739  0.00  0.00    +0.000 Cl
ATOM     15  C   UNL     1       2.580   4.900  18.612  0.00  0.00    +0.000 A 
ENDBRANCH   6   9
ENDBRANCH   3   5
BRANCH   1  16
ATOM     16  C   UNL     1       8.199   9.153  17.626  0.00  0.00    +0.000 C 
BRANCH  16  17
ATOM     17  C   UNL     1       9.122   9.561  18.767  0.00  0.00    +0.000 C 
BRANCH  17  20
ATOM     18  C   UNL     1      10.372  13.007  17.697  0.00  0.00    +0.000 A 
ATOM     19  C   UNL     1      10.238  11.610  17.817  0.00  0.00    +0.000 A 
ATOM     20  C   UNL     1       9.475  11.029  18.831  0.00  0.00    +0.000 A 
ATOM     21  C   UNL     1       8.944  11.870  19.811  0.00  0.00    +0.000 A 
ATOM     22  C   UNL     1       9.136  13.263  19.759  0.00  0.00    +0.000 A 
ATOM     23  C   UNL     1       9.861  13.854  18.700  0.00  0.00    +0.000 A 
BRANCH  18  25
ATOM     24  C   UNL     1      12.332  14.022  16.846  0.00  0.00    +0.000 C 
ATOM     25  O   UNL     1      11.007  13.538  16.602  0.00  0.00    +0.000 OA
ENDBRANCH  18  25
BRANCH  22  26
ATOM     26  O   UNL     1       8.568  13.910  20.833  0.00  0.00    +0.000 OA
ATOM     27  C   UNL     1       9.206  13.760  22.097  0.00  0.00    +0.000 C 
ENDBRANCH  22  26
BRANCH  23  28
ATOM     28  O   UNL     1      10.001  15.212  18.775  0.00  0.00    +0.000 OA
ATOM     29  C   UNL     1       9.108  16.091  18.115  0.00  0.00    +0.000 C 
ENDBRANCH  23  28
ENDBRANCH  17  20
ENDBRANCH  16  17
ENDBRANCH   1  16
TORSDOF 8
ENDMDL
MODEL 9
REMARK VINA RESULT:      -7.1      1.149      1.161
REMARK  Name = 
REMARK  11 active torsions:
REMARK  status: ('A' for Active; 'I' for Inactive)
REMARK    1  A    between atoms: C_1  and  O_2
REMARK    2  A    between atoms: O_2  and  C_3
REMARK    3  A    between atoms: C_5  and  C_6
REMARK    4  A    between atoms: C_6  and  C_7
REMARK    5  A    between atoms: C_7  and  C_8
REMARK    6  A    between atoms: N_10  and  N_11
REMARK    7  A    between atoms: C_12  and  C_14
REMARK    8  A    between atoms: C_22  and  O_23
REMARK    9  A    between atoms: O_23  and  C_24
REMARK   10  A    between atoms: C_25  and  O_26
REMARK   11  A    between atoms: O_26  and  C_27
REMARK                            x       y       z     vdW  Elec       q    Type
REMARK                         _______ _______ _______ _____ _____    ______ ____
ROOT
ATOM      1  C   UNL     1       8.013   7.755  18.115  0.00  0.00    +0.000 C 
ATOM      2  O   UNL     1       7.663   8.156  17.008  0.00  0.00    +0.000 OA
ATOM      3  N   UNL     1       8.768   8.525  18.974  0.00  0.00    +0.000 N 
ATOM      4  H   UNL     1       9.073   8.234  19.902  0.00  0.00    +0.000 HD
ENDROOT
BRANCH   3   5
ATOM      5  N   UNL     1       9.101   9.836  18.592  0.00  0.00    +0.000 N 
ATOM      6  C   UNL     1       9.389  10.745  19.585  0.00  0.00    +0.000 C 
ATOM      7  O   UNL     1       9.338  10.465  20.784  0.00  0.00    +0.000 OA
ATOM      8  H   UNL     1       9.291   9.974  17.601  0.00  0.00    +0.000 HD
BRANCH   6   9
ATOM      9  C   UNL     1       9.794  12.111  19.145  0.00  0.00    +0.000 A 
ATOM     10  C   UNL     1       9.946  12.354  17.771  0.00  0.00    +0.000 A 
ATOM     11  C   UNL     1      10.339  13.615  17.317  0.00  0.00    +0.000 A 
ATOM     12  C   UNL     1      10.595  14.634  18.233  0.00  0.00    +0.000 A 
ATOM     13  C   UNL     1      10.461  14.387  19.599  0.00  0.00    +0.000 A 
ATOM     14 CL   UNL     1      10.806  15.641  20.727  0.00  0.00    +0.000 Cl
ATOM     15  C   UNL     1      10.062  13.133  20.064  0.00  0.00    +0.000 A 
ENDBRANCH   6   9
ENDBRANCH   3   5
BRANCH   1  16
ATOM     16  C   UNL     1       7.666   6.369  18.631  0.00  0.00    +0.000 C 
BRANCH  16  17
ATOM     17  C   UNL     1       6.508   5.765  17.846  0.00  0.00    +0.000 C 
BRANCH  17  20
ATOM     18  C   UNL     1       3.159   5.699  19.679  0.00  0.00    +0.000 A 
ATOM     19  C   UNL     1       4.378   6.148  19.134  0.00  0.00    +0.000 A 
ATOM     20  C   UNL     1       5.349   5.258  18.673  0.00  0.00    +0.000 A 
ATOM     21  C   UNL     1       5.137   3.895  18.884  0.00  0.00    +0.000 A 
ATOM     22  C   UNL     1       3.965   3.426  19.503  0.00  0.00    +0.000 A 
ATOM     23  C   UNL     1       2.956   4.325  19.917  0.00  0.00    +0.000 A 
BRANCH  18  25
ATOM     24  C   UNL     1       2.146   7.769  19.150  0.00  0.00    +0.000 C 
ATOM     25  O   UNL     1       2.174   6.605  19.982  0.00  0.00    +0.000 OA
ENDBRANCH  18  25
BRANCH  22  26
ATOM     26  O   UNL     1       3.962   2.057  19.652  0.00  0.00    +0.000 OA
ATOM     27  C   UNL     1       3.681   1.276  18.495  0.00  0.00    +0.000 C 
ENDBRANCH  22  26
BRANCH  23  28
ATOM     28  O   UNL     1       1.877   3.750  20.530  0.00  0.00    +0.000 OA
ATOM     29  C   UNL     1       0.772   3.265  19.790  0.00  0.00    +0.000 C 
ENDBRANCH  23  28
ENDBRANCH  17  20
ENDBRANCH  16  17
ENDBRANCH   1  16
TORSDOF 8
ENDMDL
