MODEL 1
REMARK VINA RESULT:      -7.9      0.000      0.000
REMARK  Name = 
REMARK  11 active torsions:
REMARK  status: ('A' for Active; 'I' for Inactive)
REMARK    1  A    between atoms: C_1  and  C_2
REMARK    2  A    between atoms: N_4  and  C_5
REMARK    3  A    between atoms: N_4  and  C_18
REMARK    4  A    between atoms: C_5  and  C_6
REMARK    5  A    between atoms: C_6  and  C_7
REMARK    6  A    between atoms: C_7  and  C_8
REMARK    7  A    between atoms: C_8  and  C_9
REMARK    8  A    between atoms: C_8  and  C_10
REMARK    9  A    between atoms: C_14  and  C_15
REMARK   10  A    between atoms: C_14  and  C_16
REMARK   11  A    between atoms: C_18  and  C_19
REMARK                            x       y       z     vdW  Elec       q    Type
REMARK                         _______ _______ _______ _____ _____    ______ ____
ROOT
ATOM      1  C   UNL     1       4.784   4.973  19.369  0.00  0.00    +0.000 C 
ENDROOT
BRANCH   1   2
ATOM      2  C   UNL     1       3.223   5.236  19.282  0.00  0.00    +0.000 C 
ATOM      3  C   UNL     1       2.652   4.565  17.999  0.00  0.00    +0.000 C 
ATOM      4  C   UNL     1       2.546   3.045  18.078  0.00  0.00    +0.000 C 
ATOM      5  O   UNL     1       1.806   2.616  19.218  0.00  0.00    +0.000 OA
ATOM      6  C   UNL     1       2.329   3.047  20.479  0.00  0.00    +0.000 C 
ATOM      7  C   UNL     1       1.279   2.655  21.536  0.00  0.00    +0.000 C 
ATOM      8  C   UNL     1       3.602   2.268  20.830  0.00  0.00    +0.000 C 
ATOM      9  C   UNL     1       2.470   4.590  20.487  0.00  0.00    +0.000 C 
BRANCH   2  10
ATOM     10  C   UNL     1       2.943   6.809  19.241  0.00  0.00    +0.000 C 
ATOM     11  C   UNL     1       2.395   7.307  17.892  0.00  0.00    +0.000 C 
ATOM     12  C   UNL     1       1.986   7.350  20.327  0.00  0.00    +0.000 C 
ENDBRANCH   2  10
ENDBRANCH   1   2
BRANCH   1  13
ATOM     13  C   UNL     1       5.510   4.668  18.037  0.00  0.00    +0.000 C 
BRANCH  13  17
ATOM     14  C   UNL     1       7.920   6.129  18.912  0.00  0.00    +0.000 C 
ATOM     15  C   UNL     1       7.156   6.587  17.702  0.00  0.00    +0.000 C 
ATOM     16  O   UNL     1       7.564   7.554  17.054  0.00  0.00    +0.000 OA
ATOM     17  N   UNL     1       6.017   5.874  17.347  0.00  0.00    +0.000 N 
BRANCH  17  18
ATOM     18  C   UNL     1       5.375   6.258  16.086  0.00  0.00    +0.000 C 
BRANCH  18  19
ATOM     19  C   UNL     1       5.813   5.358  14.980  0.00  0.00    +0.000 A 
ATOM     20  C   UNL     1       5.235   4.266  14.361  0.00  0.00    +0.000 A 
ATOM     21  C   UNL     1       6.173   3.801  13.406  0.00  0.00    +0.000 A 
ATOM     22  C   UNL     1       7.256   4.639  13.495  0.00  0.00    +0.000 A 
ATOM     23  O   UNL     1       7.052   5.589  14.447  0.00  0.00    +0.000 OA
ENDBRANCH  18  19
ENDBRANCH  17  18
ENDBRANCH  13  17
ENDBRANCH   1  13
TORSDOF 6
ENDMDL
MODEL 2
REMARK VINA RESULT:      -7.9      1.159      1.240
REMARK  Name = 
REMARK  11 active torsions:
REMARK  status: ('A' for Active; 'I' for Inactive)
REMARK    1  A    between atoms: C_1  and  C_2
REMARK    2  A    between atoms: N_4  and  C_5
REMARK    3  A    between atoms: N_4  and  C_18
REMARK    4  A    between atoms: C_5  and  C_6
REMARK    5  A    between atoms: C_6  and  C_7
REMARK    6  A    between atoms: C_7  and  C_8
REMARK    7  A    between atoms: C_8  and  C_9
REMARK    8  A    between atoms: C_8  and  C_10
REMARK    9  A    between atoms: C_14  and  C_15
REMARK   10  A    between atoms: C_14  and  C_16
REMARK   11  A    between atoms: C_18  and  C_19
REMARK                            x       y       z     vdW  Elec       q    Type
REMARK                         _______ _______ _______ _____ _____    ______ ____
ROOT
ATOM      1  C   UNL     1       4.480   5.472  18.930  0.00  0.00    +0.000 C 
ENDROOT
BRANCH   1   2
ATOM      2  C   UNL     1       2.925   5.738  19.088  0.00  0.00    +0.000 C 
ATOM      3  C   UNL     1       2.174   5.206  17.832  0.00  0.00    +0.000 C 
ATOM      4  C   UNL     1       2.062   3.685  17.766  0.00  0.00    +0.000 C 
ATOM      5  O   UNL     1       1.481   3.136  18.945  0.00  0.00    +0.000 OA
ATOM      6  C   UNL     1       2.179   3.433  20.159  0.00  0.00    +0.000 C 
ATOM      7  C   UNL     1       1.280   2.929  21.305  0.00  0.00    +0.000 C 
ATOM      8  C   UNL     1       3.478   2.624  20.248  0.00  0.00    +0.000 C 
ATOM      9  C   UNL     1       2.338   4.966  20.311  0.00  0.00    +0.000 C 
BRANCH   2  10
ATOM     10  C   UNL     1       2.661   7.307  19.252  0.00  0.00    +0.000 C 
ATOM     11  C   UNL     1       2.162   7.989  17.966  0.00  0.00    +0.000 C 
ATOM     12  C   UNL     1       1.674   7.708  20.370  0.00  0.00    +0.000 C 
ENDBRANCH   2  10
ENDBRANCH   1   2
BRANCH   1  13
ATOM     13  C   UNL     1       5.094   5.759  17.539  0.00  0.00    +0.000 C 
BRANCH  13  17
ATOM     14  C   UNL     1       7.712   5.955  18.887  0.00  0.00    +0.000 C 
ATOM     15  C   UNL     1       7.487   4.922  17.819  0.00  0.00    +0.000 C 
ATOM     16  O   UNL     1       8.390   4.131  17.536  0.00  0.00    +0.000 OA
ATOM     17  N   UNL     1       6.241   4.888  17.204  0.00  0.00    +0.000 N 
BRANCH  17  18
ATOM     18  C   UNL     1       6.007   3.782  16.268  0.00  0.00    +0.000 C 
BRANCH  18  19
ATOM     19  C   UNL     1       6.417   4.170  14.887  0.00  0.00    +0.000 A 
ATOM     20  C   UNL     1       6.038   3.740  13.630  0.00  0.00    +0.000 A 
ATOM     21  C   UNL     1       6.830   4.460  12.702  0.00  0.00    +0.000 A 
ATOM     22  C   UNL     1       7.634   5.287  13.446  0.00  0.00    +0.000 A 
ATOM     23  O   UNL     1       7.394   5.120  14.775  0.00  0.00    +0.000 OA
ENDBRANCH  18  19
ENDBRANCH  17  18
ENDBRANCH  13  17
ENDBRANCH   1  13
TORSDOF 6
ENDMDL
MODEL 3
REMARK VINA RESULT:      -7.7      1.117      3.039
REMARK  Name = 
REMARK  11 active torsions:
REMARK  status: ('A' for Active; 'I' for Inactive)
REMARK    1  A    between atoms: C_1  and  C_2
REMARK    2  A    between atoms: N_4  and  C_5
REMARK    3  A    between atoms: N_4  and  C_18
REMARK    4  A    between atoms: C_5  and  C_6
REMARK    5  A    between atoms: C_6  and  C_7
REMARK    6  A    between atoms: C_7  and  C_8
REMARK    7  A    between atoms: C_8  and  C_9
REMARK    8  A    between atoms: C_8  and  C_10
REMARK    9  A    between atoms: C_14  and  C_15
REMARK   10  A    between atoms: C_14  and  C_16
REMARK   11  A    between atoms: C_18  and  C_19
REMARK                            x       y       z     vdW  Elec       q    Type
REMARK                         _______ _______ _______ _____ _____    ______ ____
ROOT
ATOM      1  C   UNL     1       4.223   5.041  18.490  0.00  0.00    +0.000 C 
ENDROOT
BRANCH   1   2
ATOM      2  C   UNL     1       2.669   5.186  18.768  0.00  0.00    +0.000 C 
ATOM      3  C   UNL     1       1.873   4.332  17.739  0.00  0.00    +0.000 C 
ATOM      4  C   UNL     1       1.933   2.828  17.990  0.00  0.00    +0.000 C 
ATOM      5  O   UNL     1       1.532   2.487  19.314  0.00  0.00    +0.000 OA
ATOM      6  C   UNL     1       2.299   3.098  20.357  0.00  0.00    +0.000 C 
ATOM      7  C   UNL     1       1.575   2.765  21.676  0.00  0.00    +0.000 C 
ATOM      8  C   UNL     1       3.687   2.454  20.456  0.00  0.00    +0.000 C 
ATOM      9  C   UNL     1       2.291   4.638  20.180  0.00  0.00    +0.000 C 
BRANCH   2  10
ATOM     10  C   UNL     1       2.241   6.722  18.644  0.00  0.00    +0.000 C 
ATOM     11  C   UNL     1       2.056   7.425  20.001  0.00  0.00    +0.000 C 
ATOM     12  C   UNL     1       3.186   7.618  17.813  0.00  0.00    +0.000 C 
ENDBRANCH   2  10
ENDBRANCH   1   2
BRANCH   1  13
ATOM     13  C   UNL     1       4.628   4.386  17.148  0.00  0.00    +0.000 C 
BRANCH  13  17
ATOM     14  C   UNL     1       5.706   4.290  14.403  0.00  0.00    +0.000 C 
ATOM     15  C   UNL     1       6.631   4.479  15.571  0.00  0.00    +0.000 C 
ATOM     16  O   UNL     1       7.838   4.632  15.375  0.00  0.00    +0.000 OA
ATOM     17  N   UNL     1       6.071   4.496  16.843  0.00  0.00    +0.000 N 
BRANCH  17  18
ATOM     18  C   UNL     1       6.978   4.820  17.950  0.00  0.00    +0.000 C 
BRANCH  18  19
ATOM     19  C   UNL     1       7.315   6.274  17.942  0.00  0.00    +0.000 A 
ATOM     20  C   UNL     1       6.868   7.346  17.193  0.00  0.00    +0.000 A 
ATOM     21  C   UNL     1       7.610   8.474  17.622  0.00  0.00    +0.000 A 
ATOM     22  C   UNL     1       8.454   8.025  18.607  0.00  0.00    +0.000 A 
ATOM     23  O   UNL     1       8.285   6.690  18.811  0.00  0.00    +0.000 OA
ENDBRANCH  18  19
ENDBRANCH  17  18
ENDBRANCH  13  17
ENDBRANCH   1  13
TORSDOF 6
ENDMDL
MODEL 4
REMARK VINA RESULT:      -7.7      1.287      3.144
REMARK  Name = 
REMARK  11 active torsions:
REMARK  status: ('A' for Active; 'I' for Inactive)
REMARK    1  A    between atoms: C_1  and  C_2
REMARK    2  A    between atoms: N_4  and  C_5
REMARK    3  A    between atoms: N_4  and  C_18
REMARK    4  A    between atoms: C_5  and  C_6
REMARK    5  A    between atoms: C_6  and  C_7
REMARK    6  A    between atoms: C_7  and  C_8
REMARK    7  A    between atoms: C_8  and  C_9
REMARK    8  A    between atoms: C_8  and  C_10
REMARK    9  A    between atoms: C_14  and  C_15
REMARK   10  A    between atoms: C_14  and  C_16
REMARK   11  A    between atoms: C_18  and  C_19
REMARK                            x       y       z     vdW  Elec       q    Type
REMARK                         _______ _______ _______ _____ _____    ______ ____
ROOT
ATOM      1  C   UNL     1       4.408   5.440  18.916  0.00  0.00    +0.000 C 
ENDROOT
BRANCH   1   2
ATOM      2  C   UNL     1       2.871   5.657  19.238  0.00  0.00    +0.000 C 
ATOM      3  C   UNL     1       2.010   5.127  18.054  0.00  0.00    +0.000 C 
ATOM      4  C   UNL     1       1.934   3.605  17.964  0.00  0.00    +0.000 C 
ATOM      5  O   UNL     1       1.493   3.016  19.184  0.00  0.00    +0.000 OA
ATOM      6  C   UNL     1       2.303   3.310  20.328  0.00  0.00    +0.000 C 
ATOM      7  C   UNL     1       1.541   2.756  21.547  0.00  0.00    +0.000 C 
ATOM      8  C   UNL     1       3.627   2.539  20.265  0.00  0.00    +0.000 C 
ATOM      9  C   UNL     1       2.434   4.844  20.496  0.00  0.00    +0.000 C 
BRANCH   2  10
ATOM     10  C   UNL     1       2.582   7.214  19.463  0.00  0.00    +0.000 C 
ATOM     11  C   UNL     1       2.100   7.944  18.197  0.00  0.00    +0.000 C 
ATOM     12  C   UNL     1       1.566   7.553  20.576  0.00  0.00    +0.000 C 
ENDBRANCH   2  10
ENDBRANCH   1   2
BRANCH   1  13
ATOM     13  C   UNL     1       4.873   5.797  17.484  0.00  0.00    +0.000 C 
BRANCH  13  17
ATOM     14  C   UNL     1       5.640   4.641  14.880  0.00  0.00    +0.000 C 
ATOM     15  C   UNL     1       6.668   4.815  15.961  0.00  0.00    +0.000 C 
ATOM     16  O   UNL     1       7.842   4.508  15.742  0.00  0.00    +0.000 OA
ATOM     17  N   UNL     1       6.247   5.346  17.175  0.00  0.00    +0.000 N 
BRANCH  17  18
ATOM     18  C   UNL     1       7.296   5.633  18.159  0.00  0.00    +0.000 C 
BRANCH  18  19
ATOM     19  C   UNL     1       7.672   7.077  18.117  0.00  0.00    +0.000 A 
ATOM     20  C   UNL     1       7.297   8.130  17.305  0.00  0.00    +0.000 A 
ATOM     21  C   UNL     1       8.045   9.255  17.734  0.00  0.00    +0.000 A 
ATOM     22  C   UNL     1       8.819   8.822  18.782  0.00  0.00    +0.000 A 
ATOM     23  O   UNL     1       8.603   7.501  19.024  0.00  0.00    +0.000 OA
ENDBRANCH  18  19
ENDBRANCH  17  18
ENDBRANCH  13  17
ENDBRANCH   1  13
TORSDOF 6
ENDMDL
MODEL 5
REMARK VINA RESULT:      -7.4      0.942      2.863
REMARK  Name = 
REMARK  11 active torsions:
REMARK  status: ('A' for Active; 'I' for Inactive)
REMARK    1  A    between atoms: C_1  and  C_2
REMARK    2  A    between atoms: N_4  and  C_5
REMARK    3  A    between atoms: N_4  and  C_18
REMARK    4  A    between atoms: C_5  and  C_6
REMARK    5  A    between atoms: C_6  and  C_7
REMARK    6  A    between atoms: C_7  and  C_8
REMARK    7  A    between atoms: C_8  and  C_9
REMARK    8  A    between atoms: C_8  and  C_10
REMARK    9  A    between atoms: C_14  and  C_15
REMARK   10  A    between atoms: C_14  and  C_16
REMARK   11  A    between atoms: C_18  and  C_19
REMARK                            x       y       z     vdW  Elec       q    Type
REMARK                         _______ _______ _______ _____ _____    ______ ____
ROOT
ATOM      1  C   UNL     1       4.208   4.929  18.438  0.00  0.00    +0.000 C 
ENDROOT
BRANCH   1   2
ATOM      2  C   UNL     1       2.766   5.347  18.947  0.00  0.00    +0.000 C 
ATOM      3  C   UNL     1       1.690   4.841  17.941  0.00  0.00    +0.000 C 
ATOM      4  C   UNL     1       1.441   3.336  17.993  0.00  0.00    +0.000 C 
ATOM      5  O   UNL     1       1.121   2.889  19.307  0.00  0.00    +0.000 OA
ATOM      6  C   UNL     1       2.115   3.164  20.300  0.00  0.00    +0.000 C 
ATOM      7  C   UNL     1       1.484   2.790  21.655  0.00  0.00    +0.000 C 
ATOM      8  C   UNL     1       3.326   2.240  20.123  0.00  0.00    +0.000 C 
ATOM      9  C   UNL     1       2.432   4.680  20.318  0.00  0.00    +0.000 C 
BRANCH   2  10
ATOM     10  C   UNL     1       2.680   6.938  19.076  0.00  0.00    +0.000 C 
ATOM     11  C   UNL     1       2.140   7.635  17.814  0.00  0.00    +0.000 C 
ATOM     12  C   UNL     1       1.843   7.472  20.260  0.00  0.00    +0.000 C 
ENDBRANCH   2  10
ENDBRANCH   1   2
BRANCH   1  13
ATOM     13  C   UNL     1       4.330   4.547  16.944  0.00  0.00    +0.000 C 
BRANCH  13  17
ATOM     14  C   UNL     1       5.928   3.504  14.693  0.00  0.00    +0.000 C 
ATOM     15  C   UNL     1       6.069   4.937  15.119  0.00  0.00    +0.000 C 
ATOM     16  O   UNL     1       6.828   5.686  14.499  0.00  0.00    +0.000 OA
ATOM     17  N   UNL     1       5.308   5.370  16.198  0.00  0.00    +0.000 N 
BRANCH  17  18
ATOM     18  C   UNL     1       5.362   6.805  16.500  0.00  0.00    +0.000 C 
BRANCH  18  19
ATOM     19  C   UNL     1       6.583   7.126  17.294  0.00  0.00    +0.000 A 
ATOM     20  C   UNL     1       7.315   6.424  18.234  0.00  0.00    +0.000 A 
ATOM     21  C   UNL     1       8.347   7.291  18.670  0.00  0.00    +0.000 A 
ATOM     22  C   UNL     1       8.188   8.459  17.967  0.00  0.00    +0.000 A 
ATOM     23  O   UNL     1       7.120   8.373  17.128  0.00  0.00    +0.000 OA
ENDBRANCH  18  19
ENDBRANCH  17  18
ENDBRANCH  13  17
ENDBRANCH   1  13
TORSDOF 6
ENDMDL
MODEL 6
REMARK VINA RESULT:      -7.3      0.723      1.142
REMARK  Name = 
REMARK  11 active torsions:
REMARK  status: ('A' for Active; 'I' for Inactive)
REMARK    1  A    between atoms: C_1  and  C_2
REMARK    2  A    between atoms: N_4  and  C_5
REMARK    3  A    between atoms: N_4  and  C_18
REMARK    4  A    between atoms: C_5  and  C_6
REMARK    5  A    between atoms: C_6  and  C_7
REMARK    6  A    between atoms: C_7  and  C_8
REMARK    7  A    between atoms: C_8  and  C_9
REMARK    8  A    between atoms: C_8  and  C_10
REMARK    9  A    between atoms: C_14  and  C_15
REMARK   10  A    between atoms: C_14  and  C_16
REMARK   11  A    between atoms: C_18  and  C_19
REMARK                            x       y       z     vdW  Elec       q    Type
REMARK                         _______ _______ _______ _____ _____    ______ ____
ROOT
ATOM      1  C   UNL     1       4.338   5.522  19.158  0.00  0.00    +0.000 C 
ENDROOT
BRANCH   1   2
ATOM      2  C   UNL     1       2.766   5.437  18.975  0.00  0.00    +0.000 C 
ATOM      3  C   UNL     1       2.432   4.588  17.714  0.00  0.00    +0.000 C 
ATOM      4  C   UNL     1       2.646   3.088  17.891  0.00  0.00    +0.000 C 
ATOM      5  O   UNL     1       1.943   2.574  19.019  0.00  0.00    +0.000 OA
ATOM      6  C   UNL     1       2.282   3.177  20.272  0.00  0.00    +0.000 C 
ATOM      7  C   UNL     1       1.274   2.628  21.300  0.00  0.00    +0.000 C 
ATOM      8  C   UNL     1       3.666   2.712  20.739  0.00  0.00    +0.000 C 
ATOM      9  C   UNL     1       2.092   4.712  20.182  0.00  0.00    +0.000 C 
BRANCH   2  10
ATOM     10  C   UNL     1       2.162   6.909  18.813  0.00  0.00    +0.000 C 
ATOM     11  C   UNL     1       1.968   7.650  20.148  0.00  0.00    +0.000 C 
ATOM     12  C   UNL     1       2.958   7.863  17.896  0.00  0.00    +0.000 C 
ENDBRANCH   2  10
ENDBRANCH   1   2
BRANCH   1  13
ATOM     13  C   UNL     1       5.200   4.917  18.025  0.00  0.00    +0.000 C 
BRANCH  13  17
ATOM     14  C   UNL     1       7.821   5.971  18.877  0.00  0.00    +0.000 C 
ATOM     15  C   UNL     1       7.201   6.439  17.592  0.00  0.00    +0.000 C 
ATOM     16  O   UNL     1       7.809   7.237  16.876  0.00  0.00    +0.000 OA
ATOM     17  N   UNL     1       5.956   5.925  17.249  0.00  0.00    +0.000 N 
BRANCH  17  18
ATOM     18  C   UNL     1       5.441   6.292  15.926  0.00  0.00    +0.000 C 
BRANCH  18  19
ATOM     19  C   UNL     1       5.858   5.288  14.905  0.00  0.00    +0.000 A 
ATOM     20  C   UNL     1       7.051   5.036  14.255  0.00  0.00    +0.000 A 
ATOM     21  C   UNL     1       6.802   3.973  13.351  0.00  0.00    +0.000 A 
ATOM     22  C   UNL     1       5.481   3.638  13.511  0.00  0.00    +0.000 A 
ATOM     23  O   UNL     1       4.895   4.429  14.451  0.00  0.00    +0.000 OA
ENDBRANCH  18  19
ENDBRANCH  17  18
ENDBRANCH  13  17
ENDBRANCH   1  13
TORSDOF 6
ENDMDL
MODEL 7
REMARK VINA RESULT:      -7.3      0.958      1.127
REMARK  Name = 
REMARK  11 active torsions:
REMARK  status: ('A' for Active; 'I' for Inactive)
REMARK    1  A    between atoms: C_1  and  C_2
REMARK    2  A    between atoms: N_4  and  C_5
REMARK    3  A    between atoms: N_4  and  C_18
REMARK    4  A    between atoms: C_5  and  C_6
REMARK    5  A    between atoms: C_6  and  C_7
REMARK    6  A    between atoms: C_7  and  C_8
REMARK    7  A    between atoms: C_8  and  C_9
REMARK    8  A    between atoms: C_8  and  C_10
REMARK    9  A    between atoms: C_14  and  C_15
REMARK   10  A    between atoms: C_14  and  C_16
REMARK   11  A    between atoms: C_18  and  C_19
REMARK                            x       y       z     vdW  Elec       q    Type
REMARK                         _______ _______ _______ _____ _____    ______ ____
ROOT
ATOM      1  C   UNL     1       4.355   5.139  18.470  0.00  0.00    +0.000 C 
ENDROOT
BRANCH   1   2
ATOM      2  C   UNL     1       2.889   5.476  18.968  0.00  0.00    +0.000 C 
ATOM      3  C   UNL     1       1.852   4.942  17.938  0.00  0.00    +0.000 C 
ATOM      4  C   UNL     1       1.674   3.426  17.955  0.00  0.00    +0.000 C 
ATOM      5  O   UNL     1       1.360   2.935  19.255  0.00  0.00    +0.000 OA
ATOM      6  C   UNL     1       2.328   3.235  20.267  0.00  0.00    +0.000 C 
ATOM      7  C   UNL     1       1.700   2.802  21.605  0.00  0.00    +0.000 C 
ATOM      8  C   UNL     1       3.584   2.375  20.085  0.00  0.00    +0.000 C 
ATOM      9  C   UNL     1       2.571   4.765  20.321  0.00  0.00    +0.000 C 
BRANCH   2  10
ATOM     10  C   UNL     1       2.725   7.059  19.130  0.00  0.00    +0.000 C 
ATOM     11  C   UNL     1       2.147   7.753  17.884  0.00  0.00    +0.000 C 
ATOM     12  C   UNL     1       1.868   7.526  20.327  0.00  0.00    +0.000 C 
ENDBRANCH   2  10
ENDBRANCH   1   2
BRANCH   1  13
ATOM     13  C   UNL     1       4.652   5.389  16.972  0.00  0.00    +0.000 C 
BRANCH  13  17
ATOM     14  C   UNL     1       5.924   7.976  17.599  0.00  0.00    +0.000 C 
ATOM     15  C   UNL     1       6.729   6.869  16.980  0.00  0.00    +0.000 C 
ATOM     16  O   UNL     1       7.933   7.034  16.771  0.00  0.00    +0.000 OA
ATOM     17  N   UNL     1       6.074   5.679  16.687  0.00  0.00    +0.000 N 
BRANCH  17  18
ATOM     18  C   UNL     1       6.913   4.573  16.214  0.00  0.00    +0.000 C 
BRANCH  18  19
ATOM     19  C   UNL     1       6.889   4.497  14.724  0.00  0.00    +0.000 A 
ATOM     20  C   UNL     1       6.152   3.749  13.826  0.00  0.00    +0.000 A 
ATOM     21  C   UNL     1       6.626   4.090  12.534  0.00  0.00    +0.000 A 
ATOM     22  C   UNL     1       7.612   5.026  12.724  0.00  0.00    +0.000 A 
ATOM     23  O   UNL     1       7.782   5.282  14.049  0.00  0.00    +0.000 OA
ENDBRANCH  18  19
ENDBRANCH  17  18
ENDBRANCH  13  17
ENDBRANCH   1  13
TORSDOF 6
ENDMDL
MODEL 8
REMARK VINA RESULT:      -7.2      1.288      1.649
REMARK  Name = 
REMARK  11 active torsions:
REMARK  status: ('A' for Active; 'I' for Inactive)
REMARK    1  A    between atoms: C_1  and  C_2
REMARK    2  A    between atoms: N_4  and  C_5
REMARK    3  A    between atoms: N_4  and  C_18
REMARK    4  A    between atoms: C_5  and  C_6
REMARK    5  A    between atoms: C_6  and  C_7
REMARK    6  A    between atoms: C_7  and  C_8
REMARK    7  A    between atoms: C_8  and  C_9
REMARK    8  A    between atoms: C_8  and  C_10
REMARK    9  A    between atoms: C_14  and  C_15
REMARK   10  A    between atoms: C_14  and  C_16
REMARK   11  A    between atoms: C_18  and  C_19
REMARK                            x       y       z     vdW  Elec       q    Type
REMARK                         _______ _______ _______ _____ _____    ______ ____
ROOT
ATOM      1  C   UNL     1       4.335   5.615  18.592  0.00  0.00    +0.000 C 
ENDROOT
BRANCH   1   2
ATOM      2  C   UNL     1       2.762   5.507  18.753  0.00  0.00    +0.000 C 
ATOM      3  C   UNL     1       2.173   4.666  17.582  0.00  0.00    +0.000 C 
ATOM      4  C   UNL     1       2.440   3.168  17.690  0.00  0.00    +0.000 C 
ATOM      5  O   UNL     1       2.005   2.631  18.936  0.00  0.00    +0.000 OA
ATOM      6  C   UNL     1       2.600   3.228  20.094  0.00  0.00    +0.000 C 
ATOM      7  C   UNL     1       1.846   2.653  21.309  0.00  0.00    +0.000 C 
ATOM      8  C   UNL     1       4.058   2.779  20.244  0.00  0.00    +0.000 C 
ATOM      9  C   UNL     1       2.375   4.760  20.068  0.00  0.00    +0.000 C 
BRANCH   2  10
ATOM     10  C   UNL     1       2.118   6.971  18.745  0.00  0.00    +0.000 C 
ATOM     11  C   UNL     1       1.945   7.580  20.148  0.00  0.00    +0.000 C 
ATOM     12  C   UNL     1       2.864   8.028  17.899  0.00  0.00    +0.000 C 
ENDBRANCH   2  10
ENDBRANCH   1   2
BRANCH   1  13
ATOM     13  C   UNL     1       4.878   5.709  17.146  0.00  0.00    +0.000 C 
BRANCH  13  17
ATOM     14  C   UNL     1       7.430   6.008  18.597  0.00  0.00    +0.000 C 
ATOM     15  C   UNL     1       7.271   4.931  17.563  0.00  0.00    +0.000 C 
ATOM     16  O   UNL     1       8.200   4.148  17.350  0.00  0.00    +0.000 OA
ATOM     17  N   UNL     1       6.055   4.849  16.895  0.00  0.00    +0.000 N 
BRANCH  17  18
ATOM     18  C   UNL     1       5.882   3.704  15.995  0.00  0.00    +0.000 C 
BRANCH  18  19
ATOM     19  C   UNL     1       6.374   4.036  14.626  0.00  0.00    +0.000 A 
ATOM     20  C   UNL     1       7.234   5.000  14.136  0.00  0.00    +0.000 A 
ATOM     21  C   UNL     1       7.262   4.838  12.728  0.00  0.00    +0.000 A 
ATOM     22  C   UNL     1       6.428   3.784  12.449  0.00  0.00    +0.000 A 
ATOM     23  O   UNL     1       5.881   3.289  13.592  0.00  0.00    +0.000 OA
ENDBRANCH  18  19
ENDBRANCH  17  18
ENDBRANCH  13  17
ENDBRANCH   1  13
TORSDOF 6
ENDMDL
MODEL 9
REMARK VINA RESULT:      -7.2      0.940      1.162
REMARK  Name = 
REMARK  11 active torsions:
REMARK  status: ('A' for Active; 'I' for Inactive)
REMARK    1  A    between atoms: C_1  and  C_2
REMARK    2  A    between atoms: N_4  and  C_5
REMARK    3  A    between atoms: N_4  and  C_18
REMARK    4  A    between atoms: C_5  and  C_6
REMARK    5  A    between atoms: C_6  and  C_7
REMARK    6  A    between atoms: C_7  and  C_8
REMARK    7  A    between atoms: C_8  and  C_9
REMARK    8  A    between atoms: C_8  and  C_10
REMARK    9  A    between atoms: C_14  and  C_15
REMARK   10  A    between atoms: C_14  and  C_16
REMARK   11  A    between atoms: C_18  and  C_19
REMARK                            x       y       z     vdW  Elec       q    Type
REMARK                         _______ _______ _______ _____ _____    ______ ____
ROOT
ATOM      1  C   UNL     1       3.831   4.695  17.483  0.00  0.00    +0.000 C 
ENDROOT
BRANCH   1   2
ATOM      2  C   UNL     1       2.856   5.139  18.651  0.00  0.00    +0.000 C 
ATOM      3  C   UNL     1       1.390   4.777  18.273  0.00  0.00    +0.000 C 
ATOM      4  C   UNL     1       1.067   3.288  18.364  0.00  0.00    +0.000 C 
ATOM      5  O   UNL     1       1.385   2.746  19.642  0.00  0.00    +0.000 OA
ATOM      6  C   UNL     1       2.754   2.883  20.037  0.00  0.00    +0.000 C 
ATOM      7  C   UNL     1       2.826   2.426  21.507  0.00  0.00    +0.000 C 
ATOM      8  C   UNL     1       3.644   1.918  19.245  0.00  0.00    +0.000 C 
ATOM      9  C   UNL     1       3.170   4.375  19.975  0.00  0.00    +0.000 C 
BRANCH   2  10
ATOM     10  C   UNL     1       2.981   6.716  18.886  0.00  0.00    +0.000 C 
ATOM     11  C   UNL     1       2.757   7.553  17.613  0.00  0.00    +0.000 C 
ATOM     12  C   UNL     1       2.051   7.309  19.967  0.00  0.00    +0.000 C 
ENDBRANCH   2  10
ENDBRANCH   1   2
BRANCH   1  13
ATOM     13  C   UNL     1       5.348   4.800  17.770  0.00  0.00    +0.000 C 
BRANCH  13  17
ATOM     14  C   UNL     1       7.747   6.148  18.835  0.00  0.00    +0.000 C 
ATOM     15  C   UNL     1       7.147   6.591  17.531  0.00  0.00    +0.000 C 
ATOM     16  O   UNL     1       7.685   7.496  16.889  0.00  0.00    +0.000 OA
ATOM     17  N   UNL     1       6.006   5.935  17.087  0.00  0.00    +0.000 N 
BRANCH  17  18
ATOM     18  C   UNL     1       5.526   6.295  15.748  0.00  0.00    +0.000 C 
BRANCH  18  19
ATOM     19  C   UNL     1       6.019   5.316  14.735  0.00  0.00    +0.000 A 
ATOM     20  C   UNL     1       7.227   5.151  14.087  0.00  0.00    +0.000 A 
ATOM     21  C   UNL     1       7.060   4.064  13.192  0.00  0.00    +0.000 A 
ATOM     22  C   UNL     1       5.768   3.630  13.357  0.00  0.00    +0.000 A 
ATOM     23  O   UNL     1       5.124   4.382  14.290  0.00  0.00    +0.000 OA
ENDBRANCH  18  19
ENDBRANCH  17  18
ENDBRANCH  13  17
ENDBRANCH   1  13
TORSDOF 6
ENDMDL
