MODEL 1
REMARK VINA RESULT:      -8.4      0.000      0.000
REMARK  Name = 
REMARK  5 active torsions:
REMARK  status: ('A' for Active; 'I' for Inactive)
REMARK    1  A    between atoms: C_1  and  C_2
REMARK    2  A    between atoms: C_2  and  C_3
REMARK    3  A    between atoms: C_3  and  N_4
REMARK    4  A    between atoms: C_9  and  C_10
REMARK    5  A    between atoms: C_17  and  C_18
REMARK                            x       y       z     vdW  Elec       q    Type
REMARK                         _______ _______ _______ _____ _____    ______ ____
ROOT
ATOM      1  N   UNL     1       1.814   3.839  19.010  0.00  0.00    +0.000 N 
ATOM      2  C   UNL     1       1.732   2.697  18.226  0.00  0.00    +0.000 C 
ATOM      3  O   UNL     1       0.808   1.889  18.322  0.00  0.00    +0.000 OA
ATOM      4  C   UNL     1       2.773   2.481  17.151  0.00  0.00    +0.000 C 
ATOM      5  C   UNL     1       4.097   3.173  17.399  0.00  0.00    +0.000 C 
ATOM      6  C   UNL     1       3.851   4.651  17.695  0.00  0.00    +0.000 C 
ATOM      7  C   UNL     1       2.953   4.792  18.963  0.00  0.00    +0.000 C 
ENDROOT
BRANCH   6   8
ATOM      8  C   UNL     1       5.167   5.415  17.798  0.00  0.00    +0.000 A 
ATOM      9  C   UNL     1       5.444   6.454  16.891  0.00  0.00    +0.000 A 
ATOM     10  C   UNL     1       6.620   7.203  16.993  0.00  0.00    +0.000 A 
ATOM     11  C   UNL     1       7.537   6.930  18.006  0.00  0.00    +0.000 A 
ATOM     12  C   UNL     1       7.280   5.896  18.901  0.00  0.00    +0.000 A 
ATOM     13 CL   UNL     1       8.400   5.565  20.164  0.00  0.00    +0.000 Cl
ATOM     14  C   UNL     1       6.114   5.136  18.796  0.00  0.00    +0.000 A 
ENDBRANCH   6   8
BRANCH   7  15
ATOM     15  C   UNL     1       2.481   6.241  19.113  0.00  0.00    +0.000 A 
ATOM     16  C   UNL     1       2.178   6.780  20.377  0.00  0.00    +0.000 A 
ATOM     17  C   UNL     1       1.731   8.097  20.498  0.00  0.00    +0.000 A 
ATOM     18  C   UNL     1       1.607   8.895  19.365  0.00  0.00    +0.000 A 
ATOM     19 CL   UNL     1       1.057  10.518  19.516  0.00  0.00    +0.000 Cl
ATOM     20  C   UNL     1       1.930   8.389  18.106  0.00  0.00    +0.000 A 
ATOM     21  C   UNL     1       2.361   7.066  17.982  0.00  0.00    +0.000 A 
ENDBRANCH   7  15
BRANCH   1  22
ATOM     22  C   UNL     1       0.830   3.967  20.101  0.00  0.00    +0.000 C 
BRANCH  22  24
ATOM     23  C   UNL     1       2.498   2.830  21.671  0.00  0.00    +0.000 C 
ATOM     24  C   UNL     1       1.040   3.017  21.289  0.00  0.00    +0.000 C 
ENDBRANCH  22  24
ENDBRANCH   1  22
TORSDOF 4
ENDMDL
MODEL 2
REMARK VINA RESULT:      -7.3      1.015      1.416
REMARK  Name = 
REMARK  5 active torsions:
REMARK  status: ('A' for Active; 'I' for Inactive)
REMARK    1  A    between atoms: C_1  and  C_2
REMARK    2  A    between atoms: C_2  and  C_3
REMARK    3  A    between atoms: C_3  and  N_4
REMARK    4  A    between atoms: C_9  and  C_10
REMARK    5  A    between atoms: C_17  and  C_18
REMARK                            x       y       z     vdW  Elec       q    Type
REMARK                         _______ _______ _______ _____ _____    ______ ____
ROOT
ATOM      1  N   UNL     1       1.993   3.769  18.911  0.00  0.00    +0.000 N 
ATOM      2  C   UNL     1       2.043   2.642  18.102  0.00  0.00    +0.000 C 
ATOM      3  O   UNL     1       1.119   1.831  18.034  0.00  0.00    +0.000 OA
ATOM      4  C   UNL     1       3.243   2.449  17.204  0.00  0.00    +0.000 C 
ATOM      5  C   UNL     1       4.507   3.138  17.674  0.00  0.00    +0.000 C 
ATOM      6  C   UNL     1       4.210   4.610  17.954  0.00  0.00    +0.000 C 
ATOM      7  C   UNL     1       3.120   4.724  19.065  0.00  0.00    +0.000 C 
ENDROOT
BRANCH   6   8
ATOM      8  C   UNL     1       5.489   5.375  18.281  0.00  0.00    +0.000 A 
ATOM      9  C   UNL     1       6.368   4.879  19.261  0.00  0.00    +0.000 A 
ATOM     10  C   UNL     1       7.570   5.532  19.544  0.00  0.00    +0.000 A 
ATOM     11  C   UNL     1       7.918   6.689  18.851  0.00  0.00    +0.000 A 
ATOM     12  C   UNL     1       7.050   7.197  17.889  0.00  0.00    +0.000 A 
ATOM     13 CL   UNL     1       7.480   8.616  17.016  0.00  0.00    +0.000 Cl
ATOM     14  C   UNL     1       5.841   6.556  17.610  0.00  0.00    +0.000 A 
ENDBRANCH   6   8
BRANCH   7  15
ATOM     15  C   UNL     1       2.623   6.169  19.165  0.00  0.00    +0.000 A 
ATOM     16  C   UNL     1       2.278   6.736  20.406  0.00  0.00    +0.000 A 
ATOM     17  C   UNL     1       1.809   8.048  20.481  0.00  0.00    +0.000 A 
ATOM     18  C   UNL     1       1.703   8.815  19.325  0.00  0.00    +0.000 A 
ATOM     19 CL   UNL     1       1.125  10.433  19.420  0.00  0.00    +0.000 Cl
ATOM     20  C   UNL     1       2.068   8.283  18.089  0.00  0.00    +0.000 A 
ATOM     21  C   UNL     1       2.521   6.963  18.010  0.00  0.00    +0.000 A 
ENDBRANCH   7  15
BRANCH   1  22
ATOM     22  C   UNL     1       0.846   3.873  19.833  0.00  0.00    +0.000 C 
BRANCH  22  24
ATOM     23  C   UNL     1       2.434   2.798  21.525  0.00  0.00    +0.000 C 
ATOM     24  C   UNL     1       0.994   3.105  21.154  0.00  0.00    +0.000 C 
ENDBRANCH  22  24
ENDBRANCH   1  22
TORSDOF 4
ENDMDL
MODEL 3
REMARK VINA RESULT:      -7.3      1.599      5.134
REMARK  Name = 
REMARK  5 active torsions:
REMARK  status: ('A' for Active; 'I' for Inactive)
REMARK    1  A    between atoms: C_1  and  C_2
REMARK    2  A    between atoms: C_2  and  C_3
REMARK    3  A    between atoms: C_3  and  N_4
REMARK    4  A    between atoms: C_9  and  C_10
REMARK    5  A    between atoms: C_17  and  C_18
REMARK                            x       y       z     vdW  Elec       q    Type
REMARK                         _______ _______ _______ _____ _____    ______ ____
ROOT
ATOM      1  N   UNL     1       4.259   3.571  17.482  0.00  0.00    +0.000 N 
ATOM      2  C   UNL     1       3.502   2.514  17.971  0.00  0.00    +0.000 C 
ATOM      3  O   UNL     1       3.739   1.339  17.687  0.00  0.00    +0.000 OA
ATOM      4  C   UNL     1       2.398   2.812  18.960  0.00  0.00    +0.000 C 
ATOM      5  C   UNL     1       1.834   4.214  18.880  0.00  0.00    +0.000 C 
ATOM      6  C   UNL     1       2.975   5.227  18.946  0.00  0.00    +0.000 C 
ATOM      7  C   UNL     1       3.952   4.999  17.752  0.00  0.00    +0.000 C 
ENDROOT
BRANCH   6   8
ATOM      8  C   UNL     1       2.438   6.653  19.025  0.00  0.00    +0.000 A 
ATOM      9  C   UNL     1       2.290   7.409  17.849  0.00  0.00    +0.000 A 
ATOM     10  C   UNL     1       1.755   8.700  17.886  0.00  0.00    +0.000 A 
ATOM     11  C   UNL     1       1.352   9.255  19.099  0.00  0.00    +0.000 A 
ATOM     12  C   UNL     1       1.506   8.521  20.271  0.00  0.00    +0.000 A 
ATOM     13 CL   UNL     1       0.996   9.194  21.771  0.00  0.00    +0.000 Cl
ATOM     14  C   UNL     1       2.053   7.237  20.242  0.00  0.00    +0.000 A 
ENDBRANCH   6   8
BRANCH   7  15
ATOM     15  C   UNL     1       5.229   5.820  17.953  0.00  0.00    +0.000 A 
ATOM     16  C   UNL     1       6.179   5.462  18.927  0.00  0.00    +0.000 A 
ATOM     17  C   UNL     1       7.329   6.230  19.112  0.00  0.00    +0.000 A 
ATOM     18  C   UNL     1       7.556   7.345  18.311  0.00  0.00    +0.000 A 
ATOM     19 CL   UNL     1       8.975   8.291  18.540  0.00  0.00    +0.000 Cl
ATOM     20  C   UNL     1       6.641   7.701  17.320  0.00  0.00    +0.000 A 
ATOM     21  C   UNL     1       5.481   6.942  17.146  0.00  0.00    +0.000 A 
ENDBRANCH   7  15
BRANCH   1  22
ATOM     22  C   UNL     1       5.267   3.245  16.456  0.00  0.00    +0.000 C 
BRANCH  22  24
ATOM     23  C   UNL     1       6.528   4.447  14.584  0.00  0.00    +0.000 C 
ATOM     24  C   UNL     1       5.176   4.067  15.162  0.00  0.00    +0.000 C 
ENDBRANCH  22  24
ENDBRANCH   1  22
TORSDOF 4
ENDMDL
MODEL 4
REMARK VINA RESULT:      -7.1      1.419      1.904
REMARK  Name = 
REMARK  5 active torsions:
REMARK  status: ('A' for Active; 'I' for Inactive)
REMARK    1  A    between atoms: C_1  and  C_2
REMARK    2  A    between atoms: C_2  and  C_3
REMARK    3  A    between atoms: C_3  and  N_4
REMARK    4  A    between atoms: C_9  and  C_10
REMARK    5  A    between atoms: C_17  and  C_18
REMARK                            x       y       z     vdW  Elec       q    Type
REMARK                         _______ _______ _______ _____ _____    ______ ____
ROOT
ATOM      1  N   UNL     1       1.653   3.676  19.201  0.00  0.00    +0.000 N 
ATOM      2  C   UNL     1       1.390   2.459  18.586  0.00  0.00    +0.000 C 
ATOM      3  O   UNL     1       0.455   1.732  18.923  0.00  0.00    +0.000 OA
ATOM      4  C   UNL     1       2.232   2.050  17.399  0.00  0.00    +0.000 C 
ATOM      5  C   UNL     1       3.611   2.675  17.353  0.00  0.00    +0.000 C 
ATOM      6  C   UNL     1       3.488   4.191  17.498  0.00  0.00    +0.000 C 
ATOM      7  C   UNL     1       2.814   4.537  18.861  0.00  0.00    +0.000 C 
ENDROOT
BRANCH   6   8
ATOM      8  C   UNL     1       4.840   4.871  17.301  0.00  0.00    +0.000 A 
ATOM      9  C   UNL     1       5.481   5.480  18.394  0.00  0.00    +0.000 A 
ATOM     10  C   UNL     1       6.741   6.066  18.254  0.00  0.00    +0.000 A 
ATOM     11  C   UNL     1       7.386   6.050  17.019  0.00  0.00    +0.000 A 
ATOM     12  C   UNL     1       6.756   5.462  15.926  0.00  0.00    +0.000 A 
ATOM     13 CL   UNL     1       7.553   5.423  14.402  0.00  0.00    +0.000 Cl
ATOM     14  C   UNL     1       5.491   4.887  16.057  0.00  0.00    +0.000 A 
ENDBRANCH   6   8
BRANCH   7  15
ATOM     15  C   UNL     1       2.443   6.022  18.901  0.00  0.00    +0.000 A 
ATOM     16  C   UNL     1       2.303   6.770  17.717  0.00  0.00    +0.000 A 
ATOM     17  C   UNL     1       1.983   8.128  17.770  0.00  0.00    +0.000 A 
ATOM     18  C   UNL     1       1.774   8.745  18.998  0.00  0.00    +0.000 A 
ATOM     19 CL   UNL     1       1.379  10.419  19.060  0.00  0.00    +0.000 Cl
ATOM     20  C   UNL     1       1.880   8.016  20.182  0.00  0.00    +0.000 A 
ATOM     21  C   UNL     1       2.217   6.661  20.132  0.00  0.00    +0.000 A 
ENDBRANCH   7  15
BRANCH   1  22
ATOM     22  C   UNL     1       0.864   3.994  20.406  0.00  0.00    +0.000 C 
BRANCH  22  24
ATOM     23  C   UNL     1       2.685   2.658  21.606  0.00  0.00    +0.000 C 
ATOM     24  C   UNL     1       1.291   3.257  21.683  0.00  0.00    +0.000 C 
ENDBRANCH  22  24
ENDBRANCH   1  22
TORSDOF 4
ENDMDL
MODEL 5
REMARK VINA RESULT:      -6.9      5.700      9.608
REMARK  Name = 
REMARK  5 active torsions:
REMARK  status: ('A' for Active; 'I' for Inactive)
REMARK    1  A    between atoms: C_1  and  C_2
REMARK    2  A    between atoms: C_2  and  C_3
REMARK    3  A    between atoms: C_3  and  N_4
REMARK    4  A    between atoms: C_9  and  C_10
REMARK    5  A    between atoms: C_17  and  C_18
REMARK                            x       y       z     vdW  Elec       q    Type
REMARK                         _______ _______ _______ _____ _____    ______ ____
ROOT
ATOM      1  N   UNL     1       0.058  10.168  20.481  0.00  0.00    +0.000 N 
ATOM      2  C   UNL     1       0.392   9.080  21.275  0.00  0.00    +0.000 C 
ATOM      3  O   UNL     1       0.921   8.064  20.822  0.00  0.00    +0.000 OA
ATOM      4  C   UNL     1       0.177   9.180  22.768  0.00  0.00    +0.000 C 
ATOM      5  C   UNL     1      -0.891  10.167  23.192  0.00  0.00    +0.000 C 
ATOM      6  C   UNL     1      -0.619  11.522  22.541  0.00  0.00    +0.000 C 
ATOM      7  C   UNL     1      -0.644  11.375  20.988  0.00  0.00    +0.000 C 
ENDROOT
BRANCH   6   8
ATOM      8  C   UNL     1      -1.582  12.583  23.064  0.00  0.00    +0.000 A 
ATOM      9  C   UNL     1      -1.105  13.871  23.366  0.00  0.00    +0.000 A 
ATOM     10  C   UNL     1      -1.973  14.877  23.799  0.00  0.00    +0.000 A 
ATOM     11  C   UNL     1      -3.335  14.614  23.934  0.00  0.00    +0.000 A 
ATOM     12  C   UNL     1      -3.817  13.339  23.651  0.00  0.00    +0.000 A 
ATOM     13 CL   UNL     1      -5.499  13.012  23.800  0.00  0.00    +0.000 Cl
ATOM     14  C   UNL     1      -2.952  12.327  23.231  0.00  0.00    +0.000 A 
ENDBRANCH   6   8
BRANCH   7  15
ATOM     15  C   UNL     1      -0.113  12.652  20.331  0.00  0.00    +0.000 A 
ATOM     16  C   UNL     1      -0.915  13.408  19.457  0.00  0.00    +0.000 A 
ATOM     17  C   UNL     1      -0.413  14.561  18.851  0.00  0.00    +0.000 A 
ATOM     18  C   UNL     1       0.883  14.984  19.130  0.00  0.00    +0.000 A 
ATOM     19 CL   UNL     1       1.500  16.405  18.382  0.00  0.00    +0.000 Cl
ATOM     20  C   UNL     1       1.684  14.265  20.017  0.00  0.00    +0.000 A 
ATOM     21  C   UNL     1       1.188  13.102  20.611  0.00  0.00    +0.000 A 
ENDBRANCH   7  15
BRANCH   1  22
ATOM     22  C   UNL     1       0.203   9.995  19.023  0.00  0.00    +0.000 C 
BRANCH  22  24
ATOM     23  C   UNL     1       2.165   8.956  17.754  0.00  0.00    +0.000 C 
ATOM     24  C   UNL     1       1.627  10.178  18.479  0.00  0.00    +0.000 C 
ENDBRANCH  22  24
ENDBRANCH   1  22
TORSDOF 4
ENDMDL
MODEL 6
REMARK VINA RESULT:      -6.8      1.465      5.045
REMARK  Name = 
REMARK  5 active torsions:
REMARK  status: ('A' for Active; 'I' for Inactive)
REMARK    1  A    between atoms: C_1  and  C_2
REMARK    2  A    between atoms: C_2  and  C_3
REMARK    3  A    between atoms: C_3  and  N_4
REMARK    4  A    between atoms: C_9  and  C_10
REMARK    5  A    between atoms: C_17  and  C_18
REMARK                            x       y       z     vdW  Elec       q    Type
REMARK                         _______ _______ _______ _____ _____    ______ ____
ROOT
ATOM      1  N   UNL     1       2.614   3.651  18.349  0.00  0.00    +0.000 N 
ATOM      2  C   UNL     1       1.964   2.725  19.154  0.00  0.00    +0.000 C 
ATOM      3  O   UNL     1       1.965   1.518  18.912  0.00  0.00    +0.000 OA
ATOM      4  C   UNL     1       1.303   3.209  20.424  0.00  0.00    +0.000 C 
ATOM      5  C   UNL     1       0.895   4.667  20.414  0.00  0.00    +0.000 C 
ATOM      6  C   UNL     1       2.090   5.527  20.005  0.00  0.00    +0.000 C 
ATOM      7  C   UNL     1       2.569   5.118  18.578  0.00  0.00    +0.000 C 
ENDROOT
BRANCH   6   8
ATOM      8  C   UNL     1       1.765   7.012  20.132  0.00  0.00    +0.000 A 
ATOM      9  C   UNL     1       1.891   7.853  19.012  0.00  0.00    +0.000 A 
ATOM     10  C   UNL     1       1.553   9.206  19.087  0.00  0.00    +0.000 A 
ATOM     11  C   UNL     1       1.078   9.743  20.282  0.00  0.00    +0.000 A 
ATOM     12  C   UNL     1       0.962   8.924  21.401  0.00  0.00    +0.000 A 
ATOM     13 CL   UNL     1       0.361   9.576  22.876  0.00  0.00    +0.000 Cl
ATOM     14  C   UNL     1       1.311   7.574  21.336  0.00  0.00    +0.000 A 
ENDBRANCH   6   8
BRANCH   7  15
ATOM     15  C   UNL     1       3.916   5.776  18.268  0.00  0.00    +0.000 A 
ATOM     16  C   UNL     1       4.066   6.646  17.172  0.00  0.00    +0.000 A 
ATOM     17  C   UNL     1       5.305   7.226  16.890  0.00  0.00    +0.000 A 
ATOM     18  C   UNL     1       6.396   6.964  17.711  0.00  0.00    +0.000 A 
ATOM     19 CL   UNL     1       7.922   7.680  17.362  0.00  0.00    +0.000 Cl
ATOM     20  C   UNL     1       6.263   6.128  18.820  0.00  0.00    +0.000 A 
ATOM     21  C   UNL     1       5.028   5.534  19.093  0.00  0.00    +0.000 A 
ENDBRANCH   7  15
BRANCH   1  22
ATOM     22  C   UNL     1       3.170   3.150  17.078  0.00  0.00    +0.000 C 
BRANCH  22  24
ATOM     23  C   UNL     1       5.421   3.536  15.927  0.00  0.00    +0.000 C 
ATOM     24  C   UNL     1       4.681   2.883  17.082  0.00  0.00    +0.000 C 
ENDBRANCH  22  24
ENDBRANCH   1  22
TORSDOF 4
ENDMDL
MODEL 7
REMARK VINA RESULT:      -6.8      5.693      9.549
REMARK  Name = 
REMARK  5 active torsions:
REMARK  status: ('A' for Active; 'I' for Inactive)
REMARK    1  A    between atoms: C_1  and  C_2
REMARK    2  A    between atoms: C_2  and  C_3
REMARK    3  A    between atoms: C_3  and  N_4
REMARK    4  A    between atoms: C_9  and  C_10
REMARK    5  A    between atoms: C_17  and  C_18
REMARK                            x       y       z     vdW  Elec       q    Type
REMARK                         _______ _______ _______ _____ _____    ______ ____
ROOT
ATOM      1  N   UNL     1       0.064  10.162  20.479  0.00  0.00    +0.000 N 
ATOM      2  C   UNL     1       0.394   9.081  21.285  0.00  0.00    +0.000 C 
ATOM      3  O   UNL     1       0.924   8.061  20.843  0.00  0.00    +0.000 OA
ATOM      4  C   UNL     1       0.172   9.194  22.776  0.00  0.00    +0.000 C 
ATOM      5  C   UNL     1      -0.898  10.185  23.186  0.00  0.00    +0.000 C 
ATOM      6  C   UNL     1      -0.622  11.534  22.525  0.00  0.00    +0.000 C 
ATOM      7  C   UNL     1      -0.640  11.374  20.973  0.00  0.00    +0.000 C 
ENDROOT
BRANCH   6   8
ATOM      8  C   UNL     1      -1.587  12.601  23.034  0.00  0.00    +0.000 A 
ATOM      9  C   UNL     1      -2.965  12.324  23.096  0.00  0.00    +0.000 A 
ATOM     10  C   UNL     1      -3.865  13.264  23.605  0.00  0.00    +0.000 A 
ATOM     11  C   UNL     1      -3.404  14.495  24.065  0.00  0.00    +0.000 A 
ATOM     12  C   UNL     1      -2.045  14.786  23.996  0.00  0.00    +0.000 A 
ATOM     13 CL   UNL     1      -1.466  16.298  24.578  0.00  0.00    +0.000 Cl
ATOM     14  C   UNL     1      -1.142  13.856  23.477  0.00  0.00    +0.000 A 
ENDBRANCH   6   8
BRANCH   7  15
ATOM     15  C   UNL     1      -0.106  12.645  20.308  0.00  0.00    +0.000 A 
ATOM     16  C   UNL     1      -0.896  13.383  19.408  0.00  0.00    +0.000 A 
ATOM     17  C   UNL     1      -0.390  14.530  18.794  0.00  0.00    +0.000 A 
ATOM     18  C   UNL     1       0.897  14.966  19.092  0.00  0.00    +0.000 A 
ATOM     19 CL   UNL     1       1.519  16.380  18.335  0.00  0.00    +0.000 Cl
ATOM     20  C   UNL     1       1.687  14.266  20.004  0.00  0.00    +0.000 A 
ATOM     21  C   UNL     1       1.188  13.108  20.605  0.00  0.00    +0.000 A 
ENDBRANCH   7  15
BRANCH   1  22
ATOM     22  C   UNL     1       0.216   9.977  19.024  0.00  0.00    +0.000 C 
BRANCH  22  24
ATOM     23  C   UNL     1       2.182   8.937  17.762  0.00  0.00    +0.000 C 
ATOM     24  C   UNL     1       1.641  10.159  18.485  0.00  0.00    +0.000 C 
ENDBRANCH  22  24
ENDBRANCH   1  22
TORSDOF 4
ENDMDL
MODEL 8
REMARK VINA RESULT:      -6.8      6.818      9.932
REMARK  Name = 
REMARK  5 active torsions:
REMARK  status: ('A' for Active; 'I' for Inactive)
REMARK    1  A    between atoms: C_1  and  C_2
REMARK    2  A    between atoms: C_2  and  C_3
REMARK    3  A    between atoms: C_3  and  N_4
REMARK    4  A    between atoms: C_9  and  C_10
REMARK    5  A    between atoms: C_17  and  C_18
REMARK                            x       y       z     vdW  Elec       q    Type
REMARK                         _______ _______ _______ _____ _____    ______ ____
ROOT
ATOM      1  N   UNL     1       0.064  10.556  20.406  0.00  0.00    +0.000 N 
ATOM      2  C   UNL     1       0.424   9.403  21.091  0.00  0.00    +0.000 C 
ATOM      3  O   UNL     1       0.990   8.455  20.545  0.00  0.00    +0.000 OA
ATOM      4  C   UNL     1       0.191   9.345  22.583  0.00  0.00    +0.000 C 
ATOM      5  C   UNL     1      -0.912  10.251  23.090  0.00  0.00    +0.000 C 
ATOM      6  C   UNL     1      -0.676  11.673  22.584  0.00  0.00    +0.000 C 
ATOM      7  C   UNL     1      -0.681  11.683  21.024  0.00  0.00    +0.000 C 
ENDROOT
BRANCH   6   8
ATOM      8  C   UNL     1      -1.678  12.646  23.198  0.00  0.00    +0.000 A 
ATOM      9  C   UNL     1      -1.254  13.927  23.594  0.00  0.00    +0.000 A 
ATOM     10  C   UNL     1      -2.159  14.855  24.114  0.00  0.00    +0.000 A 
ATOM     11  C   UNL     1      -3.506  14.522  24.243  0.00  0.00    +0.000 A 
ATOM     12  C   UNL     1      -3.935  13.253  23.866  0.00  0.00    +0.000 A 
ATOM     13 CL   UNL     1      -5.600  12.840  24.006  0.00  0.00    +0.000 Cl
ATOM     14  C   UNL     1      -3.033  12.316  23.359  0.00  0.00    +0.000 A 
ENDBRANCH   6   8
BRANCH   7  15
ATOM     15  C   UNL     1      -0.184  13.036  20.506  0.00  0.00    +0.000 A 
ATOM     16  C   UNL     1       1.151  13.439  20.689  0.00  0.00    +0.000 A 
ATOM     17  C   UNL     1       1.586  14.683  20.228  0.00  0.00    +0.000 A 
ATOM     18  C   UNL     1       0.702  15.524  19.559  0.00  0.00    +0.000 A 
ATOM     19 CL   UNL     1       1.239  17.056  18.992  0.00  0.00    +0.000 Cl
ATOM     20  C   UNL     1      -0.619  15.131  19.342  0.00  0.00    +0.000 A 
ATOM     21  C   UNL     1      -1.059  13.893  19.818  0.00  0.00    +0.000 A 
ENDBRANCH   7  15
BRANCH   1  22
ATOM     22  C   UNL     1       0.229  10.536  18.941  0.00  0.00    +0.000 C 
BRANCH  22  24
ATOM     23  C   UNL     1      -1.781  11.210  17.510  0.00  0.00    +0.000 C 
ATOM     24  C   UNL     1      -1.001  10.073  18.147  0.00  0.00    +0.000 C 
ENDBRANCH  22  24
ENDBRANCH   1  22
TORSDOF 4
ENDMDL
MODEL 9
REMARK VINA RESULT:      -6.7      5.122      8.247
REMARK  Name = 
REMARK  5 active torsions:
REMARK  status: ('A' for Active; 'I' for Inactive)
REMARK    1  A    between atoms: C_1  and  C_2
REMARK    2  A    between atoms: C_2  and  C_3
REMARK    3  A    between atoms: C_3  and  N_4
REMARK    4  A    between atoms: C_9  and  C_10
REMARK    5  A    between atoms: C_17  and  C_18
REMARK                            x       y       z     vdW  Elec       q    Type
REMARK                         _______ _______ _______ _____ _____    ______ ____
ROOT
ATOM      1  N   UNL     1      -1.972  11.242  18.754  0.00  0.00    +0.000 N 
ATOM      2  C   UNL     1      -2.964  12.037  19.313  0.00  0.00    +0.000 C 
ATOM      3  O   UNL     1      -4.162  11.767  19.222  0.00  0.00    +0.000 OA
ATOM      4  C   UNL     1      -2.552  13.234  20.138  0.00  0.00    +0.000 C 
ATOM      5  C   UNL     1      -1.185  13.796  19.806  0.00  0.00    +0.000 C 
ATOM      6  C   UNL     1      -0.151  12.671  19.839  0.00  0.00    +0.000 C 
ATOM      7  C   UNL     1      -0.527  11.581  18.788  0.00  0.00    +0.000 C 
ENDROOT
BRANCH   6   8
ATOM      8  C   UNL     1       1.261  13.221  19.662  0.00  0.00    +0.000 A 
ATOM      9  C   UNL     1       1.713  13.588  18.382  0.00  0.00    +0.000 A 
ATOM     10  C   UNL     1       2.983  14.140  18.199  0.00  0.00    +0.000 A 
ATOM     11  C   UNL     1       3.823  14.340  19.292  0.00  0.00    +0.000 A 
ATOM     12  C   UNL     1       3.392  13.968  20.563  0.00  0.00    +0.000 A 
ATOM     13 CL   UNL     1       4.417  14.228  21.920  0.00  0.00    +0.000 Cl
ATOM     14  C   UNL     1       2.129  13.404  20.750  0.00  0.00    +0.000 A 
ENDBRANCH   6   8
BRANCH   7  15
ATOM     15  C   UNL     1       0.339  10.334  18.994  0.00  0.00    +0.000 A 
ATOM     16  C   UNL     1       0.364   9.661  20.229  0.00  0.00    +0.000 A 
ATOM     17  C   UNL     1       1.172   8.537  20.408  0.00  0.00    +0.000 A 
ATOM     18  C   UNL     1       1.940   8.059  19.351  0.00  0.00    +0.000 A 
ATOM     19 CL   UNL     1       2.935   6.672  19.574  0.00  0.00    +0.000 Cl
ATOM     20  C   UNL     1       1.907   8.694  18.110  0.00  0.00    +0.000 A 
ATOM     21  C   UNL     1       1.113   9.829  17.935  0.00  0.00    +0.000 A 
ENDBRANCH   7  15
BRANCH   1  22
ATOM     22  C   UNL     1      -2.419  10.135  17.887  0.00  0.00    +0.000 C 
BRANCH  22  24
ATOM     23  C   UNL     1      -3.686  10.762  15.756  0.00  0.00    +0.000 C 
ATOM     24  C   UNL     1      -2.346  10.413  16.379  0.00  0.00    +0.000 C 
ENDBRANCH  22  24
ENDBRANCH   1  22
TORSDOF 4
ENDMDL
