MODEL 1
REMARK VINA RESULT:      -8.9      0.000      0.000
REMARK  Name = 
REMARK  5 active torsions:
REMARK  status: ('A' for Active; 'I' for Inactive)
REMARK    1  A    between atoms: C_1  and  O_2
REMARK    2  A    between atoms: O_2  and  C_3
REMARK    3  A    between atoms: C_12  and  C_13
REMARK    4  A    between atoms: C_14  and  C_15
REMARK    5  A    between atoms: C_18  and  C_19
REMARK                            x       y       z     vdW  Elec       q    Type
REMARK                         _______ _______ _______ _____ _____    ______ ____
ROOT
ATOM      1  C   UNL     1       4.539   5.769  17.814  0.00  0.00    +0.000 C 
ATOM      2  C   UNL     1       3.515   6.639  17.858  0.00  0.00    +0.000 C 
ENDROOT
BRANCH   1  12
ATOM      3  C   UNL     1       6.732   5.881  16.501  0.00  0.00    +0.000 A 
ATOM      4  N   UNL     1       7.493   5.612  15.413  0.00  0.00    +0.000 NA
ATOM      5  C   UNL     1       6.938   4.931  14.401  0.00  0.00    +0.000 A 
ATOM      6  C   UNL     1       7.707   4.637  13.283  0.00  0.00    +0.000 A 
ATOM      7  C   UNL     1       7.186   3.916  12.206  0.00  0.00    +0.000 A 
ATOM      8  C   UNL     1       5.869   3.475  12.239  0.00  0.00    +0.000 A 
ATOM      9  C   UNL     1       5.075   3.761  13.349  0.00  0.00    +0.000 A 
ATOM     10  C   UNL     1       5.601   4.489  14.433  0.00  0.00    +0.000 A 
ATOM     11  C   UNL     1       4.834   4.794  15.569  0.00  0.00    +0.000 A 
ATOM     12  C   UNL     1       5.389   5.512  16.634  0.00  0.00    +0.000 A 
BRANCH   3  14
ATOM     13  C   UNL     1       7.561   7.887  17.372  0.00  0.00    +0.000 C 
ATOM     14  O   UNL     1       7.351   6.494  17.574  0.00  0.00    +0.000 OA
ENDBRANCH   3  14
ENDBRANCH   1  12
BRANCH   2  15
ATOM     15  C   UNL     1       2.704   6.911  18.998  0.00  0.00    +0.000 A 
ATOM     16  N   UNL     1       2.343   6.008  19.919  0.00  0.00    +0.000 NA
ATOM     17  O   UNL     1       1.545   6.744  20.794  0.00  0.00    +0.000 OA
ATOM     18  C   UNL     1       1.506   8.025  20.311  0.00  0.00    +0.000 A 
ATOM     19  N   UNL     1       2.206   8.172  19.208  0.00  0.00    +0.000 NA
BRANCH  18  20
ATOM     20  C   UNL     1       0.693   8.971  21.066  0.00  0.00    +0.000 A 
ATOM     21  C   UNL     1       0.660   8.867  22.473  0.00  0.00    +0.000 A 
ATOM     22  C   UNL     1      -0.103   9.742  23.248  0.00  0.00    +0.000 A 
ATOM     23  C   UNL     1      -0.846  10.744  22.635  0.00  0.00    +0.000 A 
ATOM     24  C   UNL     1      -0.830  10.867  21.247  0.00  0.00    +0.000 A 
ATOM     25  C   UNL     1      -0.068   9.987  20.464  0.00  0.00    +0.000 A 
ATOM     26 BR   UNL     1      -0.110  10.288  18.584  0.00  0.00    +0.000 Br
ENDBRANCH  18  20
ENDBRANCH   2  15
TORSDOF 4
ENDMDL
MODEL 2
REMARK VINA RESULT:      -8.8      4.656      8.178
REMARK  Name = 
REMARK  5 active torsions:
REMARK  status: ('A' for Active; 'I' for Inactive)
REMARK    1  A    between atoms: C_1  and  O_2
REMARK    2  A    between atoms: O_2  and  C_3
REMARK    3  A    between atoms: C_12  and  C_13
REMARK    4  A    between atoms: C_14  and  C_15
REMARK    5  A    between atoms: C_18  and  C_19
REMARK                            x       y       z     vdW  Elec       q    Type
REMARK                         _______ _______ _______ _____ _____    ______ ____
ROOT
ATOM      1  C   UNL     1       8.666   9.288  18.734  0.00  0.00    +0.000 C 
ATOM      2  C   UNL     1       8.146   8.909  17.554  0.00  0.00    +0.000 C 
ENDROOT
BRANCH   1  12
ATOM      3  C   UNL     1       9.531  11.193  20.206  0.00  0.00    +0.000 A 
ATOM      4  N   UNL     1      10.239  12.331  20.400  0.00  0.00    +0.000 NA
ATOM      5  C   UNL     1      10.887  12.864  19.355  0.00  0.00    +0.000 A 
ATOM      6  C   UNL     1      11.626  14.025  19.538  0.00  0.00    +0.000 A 
ATOM      7  C   UNL     1      12.333  14.615  18.488  0.00  0.00    +0.000 A 
ATOM      8  C   UNL     1      12.306  14.039  17.224  0.00  0.00    +0.000 A 
ATOM      9  C   UNL     1      11.567  12.876  17.013  0.00  0.00    +0.000 A 
ATOM     10  C   UNL     1      10.854  12.283  18.071  0.00  0.00    +0.000 A 
ATOM     11  C   UNL     1      10.102  11.110  17.900  0.00  0.00    +0.000 A 
ATOM     12  C   UNL     1       9.410  10.540  18.975  0.00  0.00    +0.000 A 
BRANCH   3  14
ATOM     13  C   UNL     1       8.420  11.553  22.233  0.00  0.00    +0.000 C 
ATOM     14  O   UNL     1       8.956  10.604  21.317  0.00  0.00    +0.000 OA
ENDBRANCH   3  14
ENDBRANCH   1  12
BRANCH   2  15
ATOM     15  C   UNL     1       7.407   7.713  17.317  0.00  0.00    +0.000 A 
ATOM     16  N   UNL     1       7.762   6.744  16.463  0.00  0.00    +0.000 NA
ATOM     17  O   UNL     1       6.719   5.825  16.569  0.00  0.00    +0.000 OA
ATOM     18  C   UNL     1       5.834   6.334  17.482  0.00  0.00    +0.000 A 
ATOM     19  N   UNL     1       6.220   7.493  17.969  0.00  0.00    +0.000 NA
BRANCH  18  20
ATOM     20  C   UNL     1       4.639   5.538  17.730  0.00  0.00    +0.000 A 
ATOM     21  C   UNL     1       4.766   4.138  17.845  0.00  0.00    +0.000 A 
ATOM     22  C   UNL     1       3.655   3.324  18.078  0.00  0.00    +0.000 A 
ATOM     23  C   UNL     1       2.393   3.892  18.206  0.00  0.00    +0.000 A 
ATOM     24  C   UNL     1       2.242   5.273  18.095  0.00  0.00    +0.000 A 
ATOM     25  C   UNL     1       3.354   6.094  17.857  0.00  0.00    +0.000 A 
ATOM     26 BR   UNL     1       3.010   7.964  17.761  0.00  0.00    +0.000 Br
ENDBRANCH  18  20
ENDBRANCH   2  15
TORSDOF 4
ENDMDL
MODEL 3
REMARK VINA RESULT:      -8.7      2.961      4.902
REMARK  Name = 
REMARK  5 active torsions:
REMARK  status: ('A' for Active; 'I' for Inactive)
REMARK    1  A    between atoms: C_1  and  O_2
REMARK    2  A    between atoms: O_2  and  C_3
REMARK    3  A    between atoms: C_12  and  C_13
REMARK    4  A    between atoms: C_14  and  C_15
REMARK    5  A    between atoms: C_18  and  C_19
REMARK                            x       y       z     vdW  Elec       q    Type
REMARK                         _______ _______ _______ _____ _____    ______ ____
ROOT
ATOM      1  C   UNL     1       1.558   7.197  20.825  0.00  0.00    +0.000 C 
ATOM      2  C   UNL     1       1.386   8.524  20.693  0.00  0.00    +0.000 C 
ENDROOT
BRANCH   1  12
ATOM      3  C   UNL     1       2.043   4.939  19.726  0.00  0.00    +0.000 A 
ATOM      4  N   UNL     1       2.653   4.164  18.797  0.00  0.00    +0.000 NA
ATOM      5  C   UNL     1       3.468   4.754  17.913  0.00  0.00    +0.000 A 
ATOM      6  C   UNL     1       4.093   3.976  16.947  0.00  0.00    +0.000 A 
ATOM      7  C   UNL     1       4.941   4.539  15.990  0.00  0.00    +0.000 A 
ATOM      8  C   UNL     1       5.175   5.909  15.991  0.00  0.00    +0.000 A 
ATOM      9  C   UNL     1       4.563   6.711  16.954  0.00  0.00    +0.000 A 
ATOM     10  C   UNL     1       3.710   6.142  17.918  0.00  0.00    +0.000 A 
ATOM     11  C   UNL     1       3.073   6.917  18.901  0.00  0.00    +0.000 A 
ATOM     12  C   UNL     1       2.224   6.322  19.841  0.00  0.00    +0.000 A 
BRANCH   3  14
ATOM     13  C   UNL     1       1.182   2.907  20.500  0.00  0.00    +0.000 C 
ATOM     14  O   UNL     1       1.128   4.328  20.563  0.00  0.00    +0.000 OA
ENDBRANCH   3  14
ENDBRANCH   1  12
BRANCH   2  15
ATOM     15  C   UNL     1       0.767   9.382  21.647  0.00  0.00    +0.000 A 
ATOM     16  N   UNL     1       0.884   9.266  22.977  0.00  0.00    +0.000 NA
ATOM     17  O   UNL     1       0.084  10.300  23.461  0.00  0.00    +0.000 OA
ATOM     18  C   UNL     1      -0.438  10.940  22.369  0.00  0.00    +0.000 A 
ATOM     19  N   UNL     1      -0.042  10.409  21.233  0.00  0.00    +0.000 NA
BRANCH  18  20
ATOM     20  C   UNL     1      -1.340  12.052  22.647  0.00  0.00    +0.000 A 
ATOM     21  C   UNL     1      -2.573  11.786  23.278  0.00  0.00    +0.000 A 
ATOM     22  C   UNL     1      -3.478  12.809  23.565  0.00  0.00    +0.000 A 
ATOM     23  C   UNL     1      -3.168  14.123  23.233  0.00  0.00    +0.000 A 
ATOM     24  C   UNL     1      -1.956  14.411  22.607  0.00  0.00    +0.000 A 
ATOM     25  C   UNL     1      -1.046  13.385  22.313  0.00  0.00    +0.000 A 
ATOM     26 BR   UNL     1       0.584  13.922  21.489  0.00  0.00    +0.000 Br
ENDBRANCH  18  20
ENDBRANCH   2  15
TORSDOF 4
ENDMDL
MODEL 4
REMARK VINA RESULT:      -8.5      5.395      9.525
REMARK  Name = 
REMARK  5 active torsions:
REMARK  status: ('A' for Active; 'I' for Inactive)
REMARK    1  A    between atoms: C_1  and  O_2
REMARK    2  A    between atoms: O_2  and  C_3
REMARK    3  A    between atoms: C_12  and  C_13
REMARK    4  A    between atoms: C_14  and  C_15
REMARK    5  A    between atoms: C_18  and  C_19
REMARK                            x       y       z     vdW  Elec       q    Type
REMARK                         _______ _______ _______ _____ _____    ______ ____
ROOT
ATOM      1  C   UNL     1       9.552  10.191  18.990  0.00  0.00    +0.000 C 
ATOM      2  C   UNL     1       8.544   9.733  18.226  0.00  0.00    +0.000 C 
ENDROOT
BRANCH   1  12
ATOM      3  C   UNL     1       9.955  12.339  20.318  0.00  0.00    +0.000 A 
ATOM      4  N   UNL     1      10.339  13.635  20.415  0.00  0.00    +0.000 NA
ATOM      5  C   UNL     1      10.755  14.260  19.305  0.00  0.00    +0.000 A 
ATOM      6  C   UNL     1      11.162  15.584  19.387  0.00  0.00    +0.000 A 
ATOM      7  C   UNL     1      11.620  16.281  18.266  0.00  0.00    +0.000 A 
ATOM      8  C   UNL     1      11.674  15.646  17.031  0.00  0.00    +0.000 A 
ATOM      9  C   UNL     1      11.266  14.318  16.920  0.00  0.00    +0.000 A 
ATOM     10  C   UNL     1      10.804  13.618  18.051  0.00  0.00    +0.000 A 
ATOM     11  C   UNL     1      10.388  12.279  17.981  0.00  0.00    +0.000 A 
ATOM     12  C   UNL     1       9.942  11.608  19.126  0.00  0.00    +0.000 A 
BRANCH   3  14
ATOM     13  C   UNL     1       8.400  12.131  22.053  0.00  0.00    +0.000 C 
ATOM     14  O   UNL     1       9.629  11.684  21.490  0.00  0.00    +0.000 OA
ENDBRANCH   3  14
ENDBRANCH   1  12
BRANCH   2  15
ATOM     15  C   UNL     1       8.145   8.370  18.107  0.00  0.00    +0.000 A 
ATOM     16  N   UNL     1       8.500   7.387  18.945  0.00  0.00    +0.000 NA
ATOM     17  O   UNL     1       7.893   6.260  18.394  0.00  0.00    +0.000 OA
ATOM     18  C   UNL     1       7.226   6.679  17.273  0.00  0.00    +0.000 A 
ATOM     19  N   UNL     1       7.354   7.969  17.061  0.00  0.00    +0.000 NA
BRANCH  18  20
ATOM     20  C   UNL     1       6.533   5.644  16.514  0.00  0.00    +0.000 A 
ATOM     21  C   UNL     1       7.114   5.173  15.318  0.00  0.00    +0.000 A 
ATOM     22  C   UNL     1       6.495   4.187  14.548  0.00  0.00    +0.000 A 
ATOM     23  C   UNL     1       5.282   3.646  14.960  0.00  0.00    +0.000 A 
ATOM     24  C   UNL     1       4.688   4.095  16.138  0.00  0.00    +0.000 A 
ATOM     25  C   UNL     1       5.305   5.089  16.912  0.00  0.00    +0.000 A 
ATOM     26 BR   UNL     1       4.401   5.585  18.512  0.00  0.00    +0.000 Br
ENDBRANCH  18  20
ENDBRANCH   2  15
TORSDOF 4
ENDMDL
MODEL 5
REMARK VINA RESULT:      -8.4      3.180      4.937
REMARK  Name = 
REMARK  5 active torsions:
REMARK  status: ('A' for Active; 'I' for Inactive)
REMARK    1  A    between atoms: C_1  and  O_2
REMARK    2  A    between atoms: O_2  and  C_3
REMARK    3  A    between atoms: C_12  and  C_13
REMARK    4  A    between atoms: C_14  and  C_15
REMARK    5  A    between atoms: C_18  and  C_19
REMARK                            x       y       z     vdW  Elec       q    Type
REMARK                         _______ _______ _______ _____ _____    ______ ____
ROOT
ATOM      1  C   UNL     1       1.762   8.144  18.736  0.00  0.00    +0.000 C 
ATOM      2  C   UNL     1       1.620   9.285  18.039  0.00  0.00    +0.000 C 
ENDROOT
BRANCH   1  12
ATOM      3  C   UNL     1       3.115   6.070  19.376  0.00  0.00    +0.000 A 
ATOM      4  N   UNL     1       4.091   5.157  19.149  0.00  0.00    +0.000 NA
ATOM      5  C   UNL     1       4.824   5.274  18.034  0.00  0.00    +0.000 A 
ATOM      6  C   UNL     1       5.821   4.342  17.780  0.00  0.00    +0.000 A 
ATOM      7  C   UNL     1       6.606   4.405  16.626  0.00  0.00    +0.000 A 
ATOM      8  C   UNL     1       6.395   5.419  15.700  0.00  0.00    +0.000 A 
ATOM      9  C   UNL     1       5.403   6.371  15.934  0.00  0.00    +0.000 A 
ATOM     10  C   UNL     1       4.615   6.306  17.098  0.00  0.00    +0.000 A 
ATOM     11  C   UNL     1       3.604   7.243  17.367  0.00  0.00    +0.000 A 
ATOM     12  C   UNL     1       2.831   7.147  18.530  0.00  0.00    +0.000 A 
BRANCH   3  14
ATOM     13  C   UNL     1       1.460   4.734  20.349  0.00  0.00    +0.000 C 
ATOM     14  O   UNL     1       2.304   5.873  20.478  0.00  0.00    +0.000 OA
ENDBRANCH   3  14
ENDBRANCH   1  12
BRANCH   2  15
ATOM     15  C   UNL     1       0.606  10.264  18.245  0.00  0.00    +0.000 A 
ATOM     16  N   UNL     1       0.805  11.479  18.774  0.00  0.00    +0.000 NA
ATOM     17  O   UNL     1      -0.474  12.034  18.793  0.00  0.00    +0.000 OA
ATOM     18  C   UNL     1      -1.321  11.094  18.269  0.00  0.00    +0.000 A 
ATOM     19  N   UNL     1      -0.698   9.991  17.917  0.00  0.00    +0.000 NA
BRANCH  18  20
ATOM     20  C   UNL     1      -2.732  11.458  18.218  0.00  0.00    +0.000 A 
ATOM     21  C   UNL     1      -3.322  12.053  19.353  0.00  0.00    +0.000 A 
ATOM     22  C   UNL     1      -4.669  12.418  19.364  0.00  0.00    +0.000 A 
ATOM     23  C   UNL     1      -5.456  12.202  18.239  0.00  0.00    +0.000 A 
ATOM     24  C   UNL     1      -4.896  11.615  17.105  0.00  0.00    +0.000 A 
ATOM     25  C   UNL     1      -3.544  11.242  17.091  0.00  0.00    +0.000 A 
ATOM     26 BR   UNL     1      -2.901  10.482  15.468  0.00  0.00    +0.000 Br
ENDBRANCH  18  20
ENDBRANCH   2  15
TORSDOF 4
ENDMDL
MODEL 6
REMARK VINA RESULT:      -8.4      2.579      4.065
REMARK  Name = 
REMARK  5 active torsions:
REMARK  status: ('A' for Active; 'I' for Inactive)
REMARK    1  A    between atoms: C_1  and  O_2
REMARK    2  A    between atoms: O_2  and  C_3
REMARK    3  A    between atoms: C_12  and  C_13
REMARK    4  A    between atoms: C_14  and  C_15
REMARK    5  A    between atoms: C_18  and  C_19
REMARK                            x       y       z     vdW  Elec       q    Type
REMARK                         _______ _______ _______ _____ _____    ______ ____
ROOT
ATOM      1  C   UNL     1       2.376   7.767  18.816  0.00  0.00    +0.000 C 
ATOM      2  C   UNL     1       1.845   8.820  18.170  0.00  0.00    +0.000 C 
ENDROOT
BRANCH   1  12
ATOM      3  C   UNL     1       2.707   5.280  18.316  0.00  0.00    +0.000 A 
ATOM      4  N   UNL     1       3.340   4.256  17.694  0.00  0.00    +0.000 NA
ATOM      5  C   UNL     1       4.357   4.544  16.870  0.00  0.00    +0.000 A 
ATOM      6  C   UNL     1       5.010   3.507  16.216  0.00  0.00    +0.000 A 
ATOM      7  C   UNL     1       6.065   3.749  15.333  0.00  0.00    +0.000 A 
ATOM      8  C   UNL     1       6.484   5.052  15.094  0.00  0.00    +0.000 A 
ATOM      9  C   UNL     1       5.847   6.110  15.742  0.00  0.00    +0.000 A 
ATOM     10  C   UNL     1       4.785   5.865  16.631  0.00  0.00    +0.000 A 
ATOM     11  C   UNL     1       4.117   6.903  17.300  0.00  0.00    +0.000 A 
ATOM     12  C   UNL     1       3.058   6.627  18.172  0.00  0.00    +0.000 A 
BRANCH   3  14
ATOM     13  C   UNL     1       1.458   3.575  19.317  0.00  0.00    +0.000 C 
ATOM     14  O   UNL     1       1.598   4.972  19.080  0.00  0.00    +0.000 OA
ENDBRANCH   3  14
ENDBRANCH   1  12
BRANCH   2  15
ATOM     15  C   UNL     1       1.206   9.936  18.784  0.00  0.00    +0.000 A 
ATOM     16  N   UNL     1       1.495  11.220  18.538  0.00  0.00    +0.000 NA
ATOM     17  O   UNL     1       0.636  11.912  19.391  0.00  0.00    +0.000 OA
ATOM     18  C   UNL     1      -0.091  10.970  20.069  0.00  0.00    +0.000 A 
ATOM     19  N   UNL     1       0.227   9.741  19.725  0.00  0.00    +0.000 NA
BRANCH  18  20
ATOM     20  C   UNL     1      -1.045  11.477  21.048  0.00  0.00    +0.000 A 
ATOM     21  C   UNL     1      -1.947  12.489  20.657  0.00  0.00    +0.000 A 
ATOM     22  C   UNL     1      -2.880  13.016  21.552  0.00  0.00    +0.000 A 
ATOM     23  C   UNL     1      -2.936  12.540  22.856  0.00  0.00    +0.000 A 
ATOM     24  C   UNL     1      -2.055  11.541  23.267  0.00  0.00    +0.000 A 
ATOM     25  C   UNL     1      -1.113  11.012  22.372  0.00  0.00    +0.000 A 
ATOM     26 BR   UNL     1       0.006   9.630  23.054  0.00  0.00    +0.000 Br
ENDBRANCH  18  20
ENDBRANCH   2  15
TORSDOF 4
ENDMDL
MODEL 7
REMARK VINA RESULT:      -8.3      3.790      5.483
REMARK  Name = 
REMARK  5 active torsions:
REMARK  status: ('A' for Active; 'I' for Inactive)
REMARK    1  A    between atoms: C_1  and  O_2
REMARK    2  A    between atoms: O_2  and  C_3
REMARK    3  A    between atoms: C_12  and  C_13
REMARK    4  A    between atoms: C_14  and  C_15
REMARK    5  A    between atoms: C_18  and  C_19
REMARK                            x       y       z     vdW  Elec       q    Type
REMARK                         _______ _______ _______ _____ _____    ______ ____
ROOT
ATOM      1  C   UNL     1       1.468   7.663  21.059  0.00  0.00    +0.000 C 
ATOM      2  C   UNL     1       0.359   8.419  20.988  0.00  0.00    +0.000 C 
ENDROOT
BRANCH   1  12
ATOM      3  C   UNL     1       2.474   6.823  18.862  0.00  0.00    +0.000 A 
ATOM      4  N   UNL     1       2.827   5.835  18.006  0.00  0.00    +0.000 NA
ATOM      5  C   UNL     1       2.582   4.567  18.362  0.00  0.00    +0.000 A 
ATOM      6  C   UNL     1       2.947   3.541  17.500  0.00  0.00    +0.000 A 
ATOM      7  C   UNL     1       2.730   2.199  17.826  0.00  0.00    +0.000 A 
ATOM      8  C   UNL     1       2.135   1.868  19.037  0.00  0.00    +0.000 A 
ATOM      9  C   UNL     1       1.754   2.881  19.918  0.00  0.00    +0.000 A 
ATOM     10  C   UNL     1       1.973   4.231  19.587  0.00  0.00    +0.000 A 
ATOM     11  C   UNL     1       1.607   5.279  20.448  0.00  0.00    +0.000 A 
ATOM     12  C   UNL     1       1.845   6.611  20.094  0.00  0.00    +0.000 A 
BRANCH   3  14
ATOM     13  C   UNL     1       1.882   8.743  17.664  0.00  0.00    +0.000 C 
ATOM     14  O   UNL     1       2.828   8.115  18.523  0.00  0.00    +0.000 OA
ENDBRANCH   3  14
ENDBRANCH   1  12
BRANCH   2  15
ATOM     15  C   UNL     1      -0.002   9.452  21.901  0.00  0.00    +0.000 A 
ATOM     16  N   UNL     1       0.414   9.537  23.172  0.00  0.00    +0.000 NA
ATOM     17  O   UNL     1      -0.227  10.682  23.644  0.00  0.00    +0.000 OA
ATOM     18  C   UNL     1      -0.968  11.177  22.604  0.00  0.00    +0.000 A 
ATOM     19  N   UNL     1      -0.857  10.452  21.513  0.00  0.00    +0.000 NA
BRANCH  18  20
ATOM     20  C   UNL     1      -1.751  12.374  22.887  0.00  0.00    +0.000 A 
ATOM     21  C   UNL     1      -3.013  12.231  23.501  0.00  0.00    +0.000 A 
ATOM     22  C   UNL     1      -3.810  13.340  23.793  0.00  0.00    +0.000 A 
ATOM     23  C   UNL     1      -3.360  14.618  23.481  0.00  0.00    +0.000 A 
ATOM     24  C   UNL     1      -2.117  14.785  22.873  0.00  0.00    +0.000 A 
ATOM     25  C   UNL     1      -1.315  13.673  22.575  0.00  0.00    +0.000 A 
ATOM     26 BR   UNL     1       0.372  14.046  21.776  0.00  0.00    +0.000 Br
ENDBRANCH  18  20
ENDBRANCH   2  15
TORSDOF 4
ENDMDL
MODEL 8
REMARK VINA RESULT:      -8.2      4.880      7.973
REMARK  Name = 
REMARK  5 active torsions:
REMARK  status: ('A' for Active; 'I' for Inactive)
REMARK    1  A    between atoms: C_1  and  O_2
REMARK    2  A    between atoms: O_2  and  C_3
REMARK    3  A    between atoms: C_12  and  C_13
REMARK    4  A    between atoms: C_14  and  C_15
REMARK    5  A    between atoms: C_18  and  C_19
REMARK                            x       y       z     vdW  Elec       q    Type
REMARK                         _______ _______ _______ _____ _____    ______ ____
ROOT
ATOM      1  C   UNL     1       7.740   7.256  18.140  0.00  0.00    +0.000 C 
ATOM      2  C   UNL     1       7.605   8.578  17.935  0.00  0.00    +0.000 C 
ENDROOT
BRANCH   1  12
ATOM      3  C   UNL     1       6.643   5.620  16.508  0.00  0.00    +0.000 A 
ATOM      4  N   UNL     1       5.734   4.664  16.198  0.00  0.00    +0.000 NA
ATOM      5  C   UNL     1       4.890   4.255  17.154  0.00  0.00    +0.000 A 
ATOM      6  C   UNL     1       3.959   3.269  16.857  0.00  0.00    +0.000 A 
ATOM      7  C   UNL     1       3.065   2.792  17.818  0.00  0.00    +0.000 A 
ATOM      8  C   UNL     1       3.095   3.309  19.108  0.00  0.00    +0.000 A 
ATOM      9  C   UNL     1       4.017   4.303  19.431  0.00  0.00    +0.000 A 
ATOM     10  C   UNL     1       4.916   4.783  18.461  0.00  0.00    +0.000 A 
ATOM     11  C   UNL     1       5.862   5.780  18.748  0.00  0.00    +0.000 A 
ATOM     12  C   UNL     1       6.748   6.230  17.763  0.00  0.00    +0.000 A 
BRANCH   3  14
ATOM     13  C   UNL     1       7.405   5.215  14.334  0.00  0.00    +0.000 C 
ATOM     14  O   UNL     1       7.571   5.954  15.539  0.00  0.00    +0.000 OA
ENDBRANCH   3  14
ENDBRANCH   1  12
BRANCH   2  15
ATOM     15  C   UNL     1       8.567   9.574  18.274  0.00  0.00    +0.000 A 
ATOM     16  N   UNL     1       9.304   9.584  19.392  0.00  0.00    +0.000 NA
ATOM     17  O   UNL     1      10.053  10.754  19.273  0.00  0.00    +0.000 OA
ATOM     18  C   UNL     1       9.692  11.335  18.086  0.00  0.00    +0.000 A 
ATOM     19  N   UNL     1       8.782  10.641  17.439  0.00  0.00    +0.000 NA
BRANCH  18  20
ATOM     20  C   UNL     1      10.341  12.601  17.768  0.00  0.00    +0.000 A 
ATOM     21  C   UNL     1      11.659  12.582  17.267  0.00  0.00    +0.000 A 
ATOM     22  C   UNL     1      12.333  13.763  16.949  0.00  0.00    +0.000 A 
ATOM     23  C   UNL     1      11.702  14.989  17.121  0.00  0.00    +0.000 A 
ATOM     24  C   UNL     1      10.400  15.035  17.616  0.00  0.00    +0.000 A 
ATOM     25  C   UNL     1       9.721  13.851  17.941  0.00  0.00    +0.000 A 
ATOM     26 BR   UNL     1       7.937  14.055  18.574  0.00  0.00    +0.000 Br
ENDBRANCH  18  20
ENDBRANCH   2  15
TORSDOF 4
ENDMDL
MODEL 9
REMARK VINA RESULT:      -8.2      2.756      4.284
REMARK  Name = 
REMARK  5 active torsions:
REMARK  status: ('A' for Active; 'I' for Inactive)
REMARK    1  A    between atoms: C_1  and  O_2
REMARK    2  A    between atoms: O_2  and  C_3
REMARK    3  A    between atoms: C_12  and  C_13
REMARK    4  A    between atoms: C_14  and  C_15
REMARK    5  A    between atoms: C_18  and  C_19
REMARK                            x       y       z     vdW  Elec       q    Type
REMARK                         _______ _______ _______ _____ _____    ______ ____
ROOT
ATOM      1  C   UNL     1       2.206   8.053  18.853  0.00  0.00    +0.000 C 
ATOM      2  C   UNL     1       1.715   9.044  18.089  0.00  0.00    +0.000 C 
ENDROOT
BRANCH   1  12
ATOM      3  C   UNL     1       2.827   5.571  18.829  0.00  0.00    +0.000 A 
ATOM      4  N   UNL     1       3.510   4.511  18.334  0.00  0.00    +0.000 NA
ATOM      5  C   UNL     1       4.347   4.716  17.307  0.00  0.00    +0.000 A 
ATOM      6  C   UNL     1       5.047   3.639  16.781  0.00  0.00    +0.000 A 
ATOM      7  C   UNL     1       5.921   3.791  15.701  0.00  0.00    +0.000 A 
ATOM      8  C   UNL     1       6.104   5.045  15.130  0.00  0.00    +0.000 A 
ATOM      9  C   UNL     1       5.416   6.144  15.644  0.00  0.00    +0.000 A 
ATOM     10  C   UNL     1       4.538   5.989  16.732  0.00  0.00    +0.000 A 
ATOM     11  C   UNL     1       3.824   7.069  17.275  0.00  0.00    +0.000 A 
ATOM     12  C   UNL     1       2.951   6.881  18.352  0.00  0.00    +0.000 A 
BRANCH   3  14
ATOM     13  C   UNL     1       1.303   4.031  19.709  0.00  0.00    +0.000 C 
ATOM     14  O   UNL     1       1.894   5.322  19.817  0.00  0.00    +0.000 OA
ENDBRANCH   3  14
ENDBRANCH   1  12
BRANCH   2  15
ATOM     15  C   UNL     1       1.015  10.191  18.566  0.00  0.00    +0.000 A 
ATOM     16  N   UNL     1       1.513  11.434  18.611  0.00  0.00    +0.000 NA
ATOM     17  O   UNL     1       0.474  12.176  19.171  0.00  0.00    +0.000 OA
ATOM     18  C   UNL     1      -0.553  11.302  19.408  0.00  0.00    +0.000 A 
ATOM     19  N   UNL     1      -0.264  10.071  19.048  0.00  0.00    +0.000 NA
BRANCH  18  20
ATOM     20  C   UNL     1      -1.747  11.866  20.025  0.00  0.00    +0.000 A 
ATOM     21  C   UNL     1      -1.676  12.312  21.361  0.00  0.00    +0.000 A 
ATOM     22  C   UNL     1      -2.787  12.858  22.006  0.00  0.00    +0.000 A 
ATOM     23  C   UNL     1      -3.995  12.975  21.328  0.00  0.00    +0.000 A 
ATOM     24  C   UNL     1      -4.091  12.540  20.007  0.00  0.00    +0.000 A 
ATOM     25  C   UNL     1      -2.978  11.987  19.357  0.00  0.00    +0.000 A 
ATOM     26 BR   UNL     1      -3.239  11.466  17.544  0.00  0.00    +0.000 Br
ENDBRANCH  18  20
ENDBRANCH   2  15
TORSDOF 4
ENDMDL
