MODEL 1
REMARK VINA RESULT:      -8.9      0.000      0.000
REMARK  Name = 
REMARK  9 active torsions:
REMARK  status: ('A' for Active; 'I' for Inactive)
REMARK    1  A    between atoms: C_1  and  O_2
REMARK    2  A    between atoms: O_2  and  C_3
REMARK    3  A    between atoms: C_3  and  C_5
REMARK    4  A    between atoms: C_5  and  C_6
REMARK    5  A    between atoms: C_5  and  N_16
REMARK    6  A    between atoms: C_6  and  C_7
REMARK    7  A    between atoms: C_17  and  C_19
REMARK    8  A    between atoms: C_23  and  S_24
REMARK    9  A    between atoms: S_24  and  N_27
REMARK                            x       y       z     vdW  Elec       q    Type
REMARK                         _______ _______ _______ _____ _____    ______ ____
ROOT
ATOM      1  N   UNL     1       3.575   6.707  18.097  0.00  0.00    +0.000 N 
ATOM      2  C   UNL     1       2.801   7.822  17.872  0.00  0.00    +0.000 C 
ATOM      3  O   UNL     1       2.700   8.384  16.791  0.00  0.00    +0.000 OA
ATOM      4  H   UNL     1       3.620   6.265  19.007  0.00  0.00    +0.000 HD
ENDROOT
BRANCH   2   5
ATOM      5  C   UNL     1       2.046   8.342  19.038  0.00  0.00    +0.000 A 
ATOM      6  C   UNL     1       1.934   7.581  20.206  0.00  0.00    +0.000 A 
ATOM      7  C   UNL     1       1.149   8.047  21.264  0.00  0.00    +0.000 A 
ATOM      8  C   UNL     1       0.458   9.253  21.144  0.00  0.00    +0.000 A 
ATOM      9  C   UNL     1       0.535   9.984  19.955  0.00  0.00    +0.000 A 
ATOM     10  C   UNL     1       1.353   9.548  18.916  0.00  0.00    +0.000 A 
BRANCH   9  11
ATOM     11  S   UNL     1      -0.407  11.494  19.811  0.00  0.00    +0.000 S 
ATOM     12  O   UNL     1      -0.795  11.866  21.164  0.00  0.00    +0.000 OA
ATOM     13  O   UNL     1       0.351  12.390  18.981  0.00  0.00    +0.000 OA
BRANCH  11  14
ATOM     14  N   UNL     1      -1.832  11.049  18.970  0.00  0.00    +0.000 NA
ATOM     15  C   UNL     1      -2.961  12.011  19.080  0.00  0.00    +0.000 C 
ATOM     16  C   UNL     1      -4.226  11.518  18.387  0.00  0.00    +0.000 C 
ATOM     17  C   UNL     1      -3.945  11.018  16.980  0.00  0.00    +0.000 C 
ATOM     18  C   UNL     1      -2.925   9.893  17.033  0.00  0.00    +0.000 C 
ATOM     19  C   UNL     1      -1.622  10.348  17.676  0.00  0.00    +0.000 C 
ENDBRANCH  11  14
ENDBRANCH   9  11
ENDBRANCH   2   5
BRANCH   1  20
ATOM     20  C   UNL     1       4.418   6.131  17.041  0.00  0.00    +0.000 C 
BRANCH  20  21
ATOM     21  C   UNL     1       5.909   6.451  17.289  0.00  0.00    +0.000 C 
ATOM     22  O   UNL     1       6.688   6.818  16.431  0.00  0.00    +0.000 OA
BRANCH  21  24
ATOM     23  C   UNL     1       7.622   5.999  18.863  0.00  0.00    +0.000 C 
ATOM     24  O   UNL     1       6.234   6.233  18.602  0.00  0.00    +0.000 OA
ENDBRANCH  21  24
ENDBRANCH  20  21
BRANCH  20  25
ATOM     25  C   UNL     1       4.183   4.614  16.917  0.00  0.00    +0.000 C 
BRANCH  25  26
ATOM     26  C   UNL     1       4.138   3.874  18.225  0.00  0.00    +0.000 A 
ATOM     27  C   UNL     1       5.181   3.152  18.773  0.00  0.00    +0.000 A 
ATOM     28  N   UNL     1       4.753   2.599  19.947  0.00  0.00    +0.000 N 
ATOM     29  C   UNL     1       3.432   2.914  20.164  0.00  0.00    +0.000 A 
ATOM     30  C   UNL     1       2.575   2.532  21.204  0.00  0.00    +0.000 A 
ATOM     31  C   UNL     1       1.253   2.983  21.154  0.00  0.00    +0.000 A 
ATOM     32  C   UNL     1       0.817   3.812  20.127  0.00  0.00    +0.000 A 
ATOM     33  C   UNL     1       1.696   4.216  19.119  0.00  0.00    +0.000 A 
ATOM     34  C   UNL     1       3.022   3.735  19.115  0.00  0.00    +0.000 A 
ATOM     35  H   UNL     1       5.312   2.023  20.560  0.00  0.00    +0.000 HD
ENDBRANCH  25  26
ENDBRANCH  20  25
ENDBRANCH   1  20
TORSDOF 8
ENDMDL
MODEL 2
REMARK VINA RESULT:      -8.8      3.095      5.194
REMARK  Name = 
REMARK  9 active torsions:
REMARK  status: ('A' for Active; 'I' for Inactive)
REMARK    1  A    between atoms: C_1  and  O_2
REMARK    2  A    between atoms: O_2  and  C_3
REMARK    3  A    between atoms: C_3  and  C_5
REMARK    4  A    between atoms: C_5  and  C_6
REMARK    5  A    between atoms: C_5  and  N_16
REMARK    6  A    between atoms: C_6  and  C_7
REMARK    7  A    between atoms: C_17  and  C_19
REMARK    8  A    between atoms: C_23  and  S_24
REMARK    9  A    between atoms: S_24  and  N_27
REMARK                            x       y       z     vdW  Elec       q    Type
REMARK                         _______ _______ _______ _____ _____    ______ ____
ROOT
ATOM      1  N   UNL     1       3.477   4.998  17.795  0.00  0.00    +0.000 N 
ATOM      2  C   UNL     1       3.604   5.869  18.852  0.00  0.00    +0.000 C 
ATOM      3  O   UNL     1       4.367   5.703  19.794  0.00  0.00    +0.000 OA
ATOM      4  H   UNL     1       2.840   5.182  17.029  0.00  0.00    +0.000 HD
ENDROOT
BRANCH   2   5
ATOM      5  C   UNL     1       2.753   7.083  18.809  0.00  0.00    +0.000 A 
ATOM      6  C   UNL     1       2.705   7.874  17.656  0.00  0.00    +0.000 A 
ATOM      7  C   UNL     1       1.966   9.060  17.659  0.00  0.00    +0.000 A 
ATOM      8  C   UNL     1       1.301   9.467  18.816  0.00  0.00    +0.000 A 
ATOM      9  C   UNL     1       1.395   8.697  19.980  0.00  0.00    +0.000 A 
ATOM     10  C   UNL     1       2.091   7.491  19.968  0.00  0.00    +0.000 A 
BRANCH   9  11
ATOM     11  S   UNL     1       0.582   9.274  21.461  0.00  0.00    +0.000 S 
ATOM     12  O   UNL     1      -0.578   8.415  21.653  0.00  0.00    +0.000 OA
ATOM     13  O   UNL     1       1.591   9.402  22.477  0.00  0.00    +0.000 OA
BRANCH  11  14
ATOM     14  N   UNL     1       0.004  10.840  21.068  0.00  0.00    +0.000 NA
ATOM     15  C   UNL     1       1.048  11.895  20.975  0.00  0.00    +0.000 C 
ATOM     16  C   UNL     1       0.464  13.278  20.712  0.00  0.00    +0.000 C 
ATOM     17  C   UNL     1      -0.538  13.266  19.569  0.00  0.00    +0.000 C 
ATOM     18  C   UNL     1      -1.661  12.294  19.889  0.00  0.00    +0.000 C 
ATOM     19  C   UNL     1      -1.135  10.883  20.115  0.00  0.00    +0.000 C 
ENDBRANCH  11  14
ENDBRANCH   9  11
ENDBRANCH   2   5
BRANCH   1  20
ATOM     20  C   UNL     1       4.218   3.731  17.749  0.00  0.00    +0.000 C 
BRANCH  20  21
ATOM     21  C   UNL     1       3.443   2.611  18.478  0.00  0.00    +0.000 C 
ATOM     22  O   UNL     1       3.835   2.038  19.475  0.00  0.00    +0.000 OA
BRANCH  21  24
ATOM     23  C   UNL     1       1.079   2.517  18.600  0.00  0.00    +0.000 C 
ATOM     24  O   UNL     1       2.270   2.338  17.826  0.00  0.00    +0.000 OA
ENDBRANCH  21  24
ENDBRANCH  20  21
BRANCH  20  25
ATOM     25  C   UNL     1       4.540   3.336  16.296  0.00  0.00    +0.000 C 
BRANCH  25  26
ATOM     26  C   UNL     1       5.700   4.072  15.685  0.00  0.00    +0.000 A 
ATOM     27  C   UNL     1       6.535   4.947  16.354  0.00  0.00    +0.000 A 
ATOM     28  N   UNL     1       7.448   5.439  15.462  0.00  0.00    +0.000 N 
ATOM     29  C   UNL     1       7.205   4.930  14.208  0.00  0.00    +0.000 A 
ATOM     30  C   UNL     1       7.851   5.187  12.992  0.00  0.00    +0.000 A 
ATOM     31  C   UNL     1       7.366   4.542  11.851  0.00  0.00    +0.000 A 
ATOM     32  C   UNL     1       6.304   3.648  11.929  0.00  0.00    +0.000 A 
ATOM     33  C   UNL     1       5.697   3.373  13.157  0.00  0.00    +0.000 A 
ATOM     34  C   UNL     1       6.131   4.048  14.318  0.00  0.00    +0.000 A 
ATOM     35  H   UNL     1       8.181   6.097  15.681  0.00  0.00    +0.000 HD
ENDBRANCH  25  26
ENDBRANCH  20  25
ENDBRANCH   1  20
TORSDOF 8
ENDMDL
MODEL 3
REMARK VINA RESULT:      -8.8      1.182      1.634
REMARK  Name = 
REMARK  9 active torsions:
REMARK  status: ('A' for Active; 'I' for Inactive)
REMARK    1  A    between atoms: C_1  and  O_2
REMARK    2  A    between atoms: O_2  and  C_3
REMARK    3  A    between atoms: C_3  and  C_5
REMARK    4  A    between atoms: C_5  and  C_6
REMARK    5  A    between atoms: C_5  and  N_16
REMARK    6  A    between atoms: C_6  and  C_7
REMARK    7  A    between atoms: C_17  and  C_19
REMARK    8  A    between atoms: C_23  and  S_24
REMARK    9  A    between atoms: S_24  and  N_27
REMARK                            x       y       z     vdW  Elec       q    Type
REMARK                         _______ _______ _______ _____ _____    ______ ____
ROOT
ATOM      1  N   UNL     1       4.196   6.204  18.806  0.00  0.00    +0.000 N 
ATOM      2  C   UNL     1       3.319   7.131  18.292  0.00  0.00    +0.000 C 
ATOM      3  O   UNL     1       3.270   7.454  17.113  0.00  0.00    +0.000 OA
ATOM      4  H   UNL     1       4.193   5.958  19.789  0.00  0.00    +0.000 HD
ENDROOT
BRANCH   2   5
ATOM      5  C   UNL     1       2.379   7.751  19.257  0.00  0.00    +0.000 A 
ATOM      6  C   UNL     1       1.908   7.022  20.355  0.00  0.00    +0.000 A 
ATOM      7  C   UNL     1       0.958   7.590  21.208  0.00  0.00    +0.000 A 
ATOM      8  C   UNL     1       0.460   8.868  20.948  0.00  0.00    +0.000 A 
ATOM      9  C   UNL     1       0.898   9.570  19.821  0.00  0.00    +0.000 A 
ATOM     10  C   UNL     1       1.879   9.028  18.995  0.00  0.00    +0.000 A 
BRANCH   9  11
ATOM     11  S   UNL     1       0.199  11.178  19.484  0.00  0.00    +0.000 S 
ATOM     12  O   UNL     1      -0.007  11.814  20.778  0.00  0.00    +0.000 OA
ATOM     13  O   UNL     1       1.016  11.792  18.473  0.00  0.00    +0.000 OA
BRANCH  11  14
ATOM     14  N   UNL     1      -1.346  10.858  18.815  0.00  0.00    +0.000 NA
ATOM     15  C   UNL     1      -2.344  11.949  18.973  0.00  0.00    +0.000 C 
ATOM     16  C   UNL     1      -3.721  11.571  18.439  0.00  0.00    +0.000 C 
ATOM     17  C   UNL     1      -3.644  10.971  17.045  0.00  0.00    +0.000 C 
ATOM     18  C   UNL     1      -2.754   9.740  17.070  0.00  0.00    +0.000 C 
ATOM     19  C   UNL     1      -1.349  10.073  17.553  0.00  0.00    +0.000 C 
ENDBRANCH  11  14
ENDBRANCH   9  11
ENDBRANCH   2   5
BRANCH   1  20
ATOM     20  C   UNL     1       5.218   5.564  17.967  0.00  0.00    +0.000 C 
BRANCH  20  21
ATOM     21  C   UNL     1       6.597   5.588  18.662  0.00  0.00    +0.000 C 
ATOM     22  O   UNL     1       6.795   5.255  19.814  0.00  0.00    +0.000 OA
BRANCH  21  24
ATOM     23  C   UNL     1       7.541   7.479  17.592  0.00  0.00    +0.000 C 
ATOM     24  O   UNL     1       7.556   6.064  17.808  0.00  0.00    +0.000 OA
ENDBRANCH  21  24
ENDBRANCH  20  21
BRANCH  20  25
ATOM     25  C   UNL     1       4.801   4.130  17.594  0.00  0.00    +0.000 C 
BRANCH  25  26
ATOM     26  C   UNL     1       3.389   3.768  17.959  0.00  0.00    +0.000 A 
ATOM     27  C   UNL     1       2.305   3.807  17.102  0.00  0.00    +0.000 A 
ATOM     28  N   UNL     1       1.189   3.440  17.802  0.00  0.00    +0.000 N 
ATOM     29  C   UNL     1       1.513   3.196  19.115  0.00  0.00    +0.000 A 
ATOM     30  C   UNL     1       0.692   2.841  20.194  0.00  0.00    +0.000 A 
ATOM     31  C   UNL     1       1.296   2.682  21.444  0.00  0.00    +0.000 A 
ATOM     32  C   UNL     1       2.669   2.835  21.601  0.00  0.00    +0.000 A 
ATOM     33  C   UNL     1       3.479   3.150  20.507  0.00  0.00    +0.000 A 
ATOM     34  C   UNL     1       2.890   3.367  19.242  0.00  0.00    +0.000 A 
ATOM     35  H   UNL     1       0.255   3.378  17.421  0.00  0.00    +0.000 HD
ENDBRANCH  25  26
ENDBRANCH  20  25
ENDBRANCH   1  20
TORSDOF 8
ENDMDL
MODEL 4
REMARK VINA RESULT:      -8.7      2.986      5.030
REMARK  Name = 
REMARK  9 active torsions:
REMARK  status: ('A' for Active; 'I' for Inactive)
REMARK    1  A    between atoms: C_1  and  O_2
REMARK    2  A    between atoms: O_2  and  C_3
REMARK    3  A    between atoms: C_3  and  C_5
REMARK    4  A    between atoms: C_5  and  C_6
REMARK    5  A    between atoms: C_5  and  N_16
REMARK    6  A    between atoms: C_6  and  C_7
REMARK    7  A    between atoms: C_17  and  C_19
REMARK    8  A    between atoms: C_23  and  S_24
REMARK    9  A    between atoms: S_24  and  N_27
REMARK                            x       y       z     vdW  Elec       q    Type
REMARK                         _______ _______ _______ _____ _____    ______ ____
ROOT
ATOM      1  N   UNL     1       3.117   5.157  17.799  0.00  0.00    +0.000 N 
ATOM      2  C   UNL     1       3.391   6.050  18.809  0.00  0.00    +0.000 C 
ATOM      3  O   UNL     1       4.217   5.863  19.690  0.00  0.00    +0.000 OA
ATOM      4  H   UNL     1       2.432   5.359  17.081  0.00  0.00    +0.000 HD
ENDROOT
BRANCH   2   5
ATOM      5  C   UNL     1       2.620   7.318  18.790  0.00  0.00    +0.000 A 
ATOM      6  C   UNL     1       2.702   8.180  17.691  0.00  0.00    +0.000 A 
ATOM      7  C   UNL     1       2.038   9.409  17.724  0.00  0.00    +0.000 A 
ATOM      8  C   UNL     1       1.320   9.787  18.859  0.00  0.00    +0.000 A 
ATOM      9  C   UNL     1       1.285   8.942  19.973  0.00  0.00    +0.000 A 
ATOM     10  C   UNL     1       1.905   7.696  19.927  0.00  0.00    +0.000 A 
BRANCH   9  11
ATOM     11  S   UNL     1       0.407   9.479  21.432  0.00  0.00    +0.000 S 
ATOM     12  O   UNL     1      -0.686   8.535  21.623  0.00  0.00    +0.000 OA
ATOM     13  O   UNL     1       1.387   9.701  22.460  0.00  0.00    +0.000 OA
BRANCH  11  14
ATOM     14  N   UNL     1      -0.284  10.988  21.004  0.00  0.00    +0.000 NA
ATOM     15  C   UNL     1      -1.479  10.911  20.122  0.00  0.00    +0.000 C 
ATOM     16  C   UNL     1      -1.992  12.284  19.704  0.00  0.00    +0.000 C 
ATOM     17  C   UNL     1      -2.131  13.224  20.890  0.00  0.00    +0.000 C 
ATOM     18  C   UNL     1      -0.786  13.374  21.580  0.00  0.00    +0.000 C 
ATOM     19  C   UNL     1      -0.249  12.033  22.060  0.00  0.00    +0.000 C 
ENDBRANCH  11  14
ENDBRANCH   9  11
ENDBRANCH   2   5
BRANCH   1  20
ATOM     20  C   UNL     1       3.767   3.841  17.740  0.00  0.00    +0.000 C 
BRANCH  20  21
ATOM     21  C   UNL     1       2.854   2.747  18.337  0.00  0.00    +0.000 C 
ATOM     22  O   UNL     1       1.795   2.394  17.856  0.00  0.00    +0.000 OA
BRANCH  21  24
ATOM     23  C   UNL     1       2.842   2.790  20.706  0.00  0.00    +0.000 C 
ATOM     24  O   UNL     1       3.391   2.255  19.496  0.00  0.00    +0.000 OA
ENDBRANCH  21  24
ENDBRANCH  20  21
BRANCH  20  25
ATOM     25  C   UNL     1       4.184   3.499  16.298  0.00  0.00    +0.000 C 
BRANCH  25  26
ATOM     26  C   UNL     1       5.427   4.196  15.819  0.00  0.00    +0.000 A 
ATOM     27  C   UNL     1       6.214   5.042  16.577  0.00  0.00    +0.000 A 
ATOM     28  N   UNL     1       7.232   5.504  15.791  0.00  0.00    +0.000 N 
ATOM     29  C   UNL     1       7.109   5.006  14.516  0.00  0.00    +0.000 A 
ATOM     30  C   UNL     1       7.890   5.243  13.378  0.00  0.00    +0.000 A 
ATOM     31  C   UNL     1       7.510   4.616  12.188  0.00  0.00    +0.000 A 
ATOM     32  C   UNL     1       6.417   3.758  12.147  0.00  0.00    +0.000 A 
ATOM     33  C   UNL     1       5.672   3.501  13.302  0.00  0.00    +0.000 A 
ATOM     34  C   UNL     1       6.001   4.160  14.505  0.00  0.00    +0.000 A 
ATOM     35  H   UNL     1       7.960   6.138  16.091  0.00  0.00    +0.000 HD
ENDBRANCH  25  26
ENDBRANCH  20  25
ENDBRANCH   1  20
TORSDOF 8
ENDMDL
MODEL 5
REMARK VINA RESULT:      -8.6      2.731      4.713
REMARK  Name = 
REMARK  9 active torsions:
REMARK  status: ('A' for Active; 'I' for Inactive)
REMARK    1  A    between atoms: C_1  and  O_2
REMARK    2  A    between atoms: O_2  and  C_3
REMARK    3  A    between atoms: C_3  and  C_5
REMARK    4  A    between atoms: C_5  and  C_6
REMARK    5  A    between atoms: C_5  and  N_16
REMARK    6  A    between atoms: C_6  and  C_7
REMARK    7  A    between atoms: C_17  and  C_19
REMARK    8  A    between atoms: C_23  and  S_24
REMARK    9  A    between atoms: S_24  and  N_27
REMARK                            x       y       z     vdW  Elec       q    Type
REMARK                         _______ _______ _______ _____ _____    ______ ____
ROOT
ATOM      1  N   UNL     1       2.551   5.021  19.057  0.00  0.00    +0.000 N 
ATOM      2  C   UNL     1       2.256   6.019  19.956  0.00  0.00    +0.000 C 
ATOM      3  O   UNL     1       2.243   5.872  21.170  0.00  0.00    +0.000 OA
ATOM      4  H   UNL     1       2.563   5.192  18.058  0.00  0.00    +0.000 HD
ENDROOT
BRANCH   2   5
ATOM      5  C   UNL     1       1.947   7.351  19.380  0.00  0.00    +0.000 A 
ATOM      6  C   UNL     1       2.386   7.686  18.094  0.00  0.00    +0.000 A 
ATOM      7  C   UNL     1       2.162   8.973  17.599  0.00  0.00    +0.000 A 
ATOM      8  C   UNL     1       1.528   9.928  18.394  0.00  0.00    +0.000 A 
ATOM      9  C   UNL     1       1.137   9.602  19.696  0.00  0.00    +0.000 A 
ATOM     10  C   UNL     1       1.315   8.307  20.178  0.00  0.00    +0.000 A 
BRANCH   9  11
ATOM     11  S   UNL     1       0.381  10.863  20.710  0.00  0.00    +0.000 S 
ATOM     12  O   UNL     1      -1.057  10.653  20.620  0.00  0.00    +0.000 OA
ATOM     13  O   UNL     1       1.058  10.850  21.978  0.00  0.00    +0.000 OA
BRANCH  11  14
ATOM     14  N   UNL     1       0.738  12.340  19.917  0.00  0.00    +0.000 NA
ATOM     15  C   UNL     1      -0.446  13.114  19.457  0.00  0.00    +0.000 C 
ATOM     16  C   UNL     1      -0.063  14.370  18.682  0.00  0.00    +0.000 C 
ATOM     17  C   UNL     1       0.993  15.187  19.409  0.00  0.00    +0.000 C 
ATOM     18  C   UNL     1       2.230  14.333  19.634  0.00  0.00    +0.000 C 
ATOM     19  C   UNL     1       1.910  13.086  20.446  0.00  0.00    +0.000 C 
ENDBRANCH  11  14
ENDBRANCH   9  11
ENDBRANCH   2   5
BRANCH   1  20
ATOM     20  C   UNL     1       2.814   3.644  19.495  0.00  0.00    +0.000 C 
BRANCH  20  21
ATOM     21  C   UNL     1       1.531   2.787  19.421  0.00  0.00    +0.000 C 
ATOM     22  O   UNL     1       1.151   2.199  18.427  0.00  0.00    +0.000 OA
BRANCH  21  24
ATOM     23  C   UNL     1       1.668   2.493  21.767  0.00  0.00    +0.000 C 
ATOM     24  O   UNL     1       0.871   2.808  20.620  0.00  0.00    +0.000 OA
ENDBRANCH  21  24
ENDBRANCH  20  21
BRANCH  20  25
ATOM     25  C   UNL     1       3.958   3.017  18.678  0.00  0.00    +0.000 C 
BRANCH  25  26
ATOM     26  C   UNL     1       4.689   3.974  17.778  0.00  0.00    +0.000 A 
ATOM     27  C   UNL     1       4.474   4.121  16.421  0.00  0.00    +0.000 A 
ATOM     28  N   UNL     1       5.346   5.060  15.945  0.00  0.00    +0.000 N 
ATOM     29  C   UNL     1       6.158   5.508  16.960  0.00  0.00    +0.000 A 
ATOM     30  C   UNL     1       7.215   6.426  16.928  0.00  0.00    +0.000 A 
ATOM     31  C   UNL     1       7.896   6.675  18.123  0.00  0.00    +0.000 A 
ATOM     32  C   UNL     1       7.511   6.059  19.308  0.00  0.00    +0.000 A 
ATOM     33  C   UNL     1       6.428   5.175  19.331  0.00  0.00    +0.000 A 
ATOM     34  C   UNL     1       5.755   4.866  18.130  0.00  0.00    +0.000 A 
ATOM     35  H   UNL     1       5.406   5.368  14.985  0.00  0.00    +0.000 HD
ENDBRANCH  25  26
ENDBRANCH  20  25
ENDBRANCH   1  20
TORSDOF 8
ENDMDL
MODEL 6
REMARK VINA RESULT:      -8.5      1.885      2.662
REMARK  Name = 
REMARK  9 active torsions:
REMARK  status: ('A' for Active; 'I' for Inactive)
REMARK    1  A    between atoms: C_1  and  O_2
REMARK    2  A    between atoms: O_2  and  C_3
REMARK    3  A    between atoms: C_3  and  C_5
REMARK    4  A    between atoms: C_5  and  C_6
REMARK    5  A    between atoms: C_5  and  N_16
REMARK    6  A    between atoms: C_6  and  C_7
REMARK    7  A    between atoms: C_17  and  C_19
REMARK    8  A    between atoms: C_23  and  S_24
REMARK    9  A    between atoms: S_24  and  N_27
REMARK                            x       y       z     vdW  Elec       q    Type
REMARK                         _______ _______ _______ _____ _____    ______ ____
ROOT
ATOM      1  N   UNL     1       3.553   6.786  18.137  0.00  0.00    +0.000 N 
ATOM      2  C   UNL     1       2.761   7.891  17.926  0.00  0.00    +0.000 C 
ATOM      3  O   UNL     1       2.646   8.461  16.851  0.00  0.00    +0.000 OA
ATOM      4  H   UNL     1       3.609   6.337  19.043  0.00  0.00    +0.000 HD
ENDROOT
BRANCH   2   5
ATOM      5  C   UNL     1       2.004   8.389  19.100  0.00  0.00    +0.000 A 
ATOM      6  C   UNL     1       1.932   7.628  20.272  0.00  0.00    +0.000 A 
ATOM      7  C   UNL     1       1.145   8.070  21.339  0.00  0.00    +0.000 A 
ATOM      8  C   UNL     1       0.412   9.251  21.224  0.00  0.00    +0.000 A 
ATOM      9  C   UNL     1       0.448   9.981  20.032  0.00  0.00    +0.000 A 
ATOM     10  C   UNL     1       1.268   9.570  18.984  0.00  0.00    +0.000 A 
BRANCH   9  11
ATOM     11  S   UNL     1      -0.547  11.457  19.896  0.00  0.00    +0.000 S 
ATOM     12  O   UNL     1      -1.200  11.392  18.597  0.00  0.00    +0.000 OA
ATOM     13  O   UNL     1      -1.310  11.568  21.109  0.00  0.00    +0.000 OA
BRANCH  11  14
ATOM     14  N   UNL     1       0.580  12.747  19.842  0.00  0.00    +0.000 NA
ATOM     15  C   UNL     1       1.670  12.680  20.852  0.00  0.00    +0.000 C 
ATOM     16  C   UNL     1       2.586  13.898  20.812  0.00  0.00    +0.000 C 
ATOM     17  C   UNL     1       3.041  14.222  19.399  0.00  0.00    +0.000 C 
ATOM     18  C   UNL     1       1.829  14.470  18.518  0.00  0.00    +0.000 C 
ATOM     19  C   UNL     1       0.902  13.263  18.485  0.00  0.00    +0.000 C 
ENDBRANCH  11  14
ENDBRANCH   9  11
ENDBRANCH   2   5
BRANCH   1  20
ATOM     20  C   UNL     1       4.400   6.232  17.072  0.00  0.00    +0.000 C 
BRANCH  20  21
ATOM     21  C   UNL     1       5.890   6.546  17.332  0.00  0.00    +0.000 C 
ATOM     22  O   UNL     1       6.665   6.957  16.492  0.00  0.00    +0.000 OA
BRANCH  21  24
ATOM     23  C   UNL     1       7.606   6.018  18.878  0.00  0.00    +0.000 C 
ATOM     24  O   UNL     1       6.218   6.269  18.633  0.00  0.00    +0.000 OA
ENDBRANCH  21  24
ENDBRANCH  20  21
BRANCH  20  25
ATOM     25  C   UNL     1       4.164   4.719  16.914  0.00  0.00    +0.000 C 
BRANCH  25  26
ATOM     26  C   UNL     1       4.131   3.948  18.204  0.00  0.00    +0.000 A 
ATOM     27  C   UNL     1       5.179   3.212  18.725  0.00  0.00    +0.000 A 
ATOM     28  N   UNL     1       4.762   2.632  19.890  0.00  0.00    +0.000 N 
ATOM     29  C   UNL     1       3.443   2.943  20.128  0.00  0.00    +0.000 A 
ATOM     30  C   UNL     1       2.596   2.537  21.166  0.00  0.00    +0.000 A 
ATOM     31  C   UNL     1       1.274   2.990  21.140  0.00  0.00    +0.000 A 
ATOM     32  C   UNL     1       0.829   3.843  20.137  0.00  0.00    +0.000 A 
ATOM     33  C   UNL     1       1.698   4.271  19.130  0.00  0.00    +0.000 A 
ATOM     34  C   UNL     1       3.024   3.789  19.102  0.00  0.00    +0.000 A 
ATOM     35  H   UNL     1       5.327   2.042  20.484  0.00  0.00    +0.000 HD
ENDBRANCH  25  26
ENDBRANCH  20  25
ENDBRANCH   1  20
TORSDOF 8
ENDMDL
MODEL 7
REMARK VINA RESULT:      -8.4      2.476      4.570
REMARK  Name = 
REMARK  9 active torsions:
REMARK  status: ('A' for Active; 'I' for Inactive)
REMARK    1  A    between atoms: C_1  and  O_2
REMARK    2  A    between atoms: O_2  and  C_3
REMARK    3  A    between atoms: C_3  and  C_5
REMARK    4  A    between atoms: C_5  and  C_6
REMARK    5  A    between atoms: C_5  and  N_16
REMARK    6  A    between atoms: C_6  and  C_7
REMARK    7  A    between atoms: C_17  and  C_19
REMARK    8  A    between atoms: C_23  and  S_24
REMARK    9  A    between atoms: S_24  and  N_27
REMARK                            x       y       z     vdW  Elec       q    Type
REMARK                         _______ _______ _______ _____ _____    ______ ____
ROOT
ATOM      1  N   UNL     1       2.755   5.018  18.284  0.00  0.00    +0.000 N 
ATOM      2  C   UNL     1       2.786   5.880  19.356  0.00  0.00    +0.000 C 
ATOM      3  O   UNL     1       3.281   5.613  20.442  0.00  0.00    +0.000 OA
ATOM      4  H   UNL     1       2.345   5.287  17.397  0.00  0.00    +0.000 HD
ENDROOT
BRANCH   2   5
ATOM      5  C   UNL     1       2.179   7.216  19.141  0.00  0.00    +0.000 A 
ATOM      6  C   UNL     1       2.308   7.862  17.906  0.00  0.00    +0.000 A 
ATOM      7  C   UNL     1       1.804   9.156  17.746  0.00  0.00    +0.000 A 
ATOM      8  C   UNL     1       1.202   9.811  18.820  0.00  0.00    +0.000 A 
ATOM      9  C   UNL     1       1.122   9.178  20.065  0.00  0.00    +0.000 A 
ATOM     10  C   UNL     1       1.579   7.872  20.217  0.00  0.00    +0.000 A 
BRANCH   9  11
ATOM     11  S   UNL     1       0.397  10.064  21.435  0.00  0.00    +0.000 S 
ATOM     12  O   UNL     1      -0.808   9.335  21.804  0.00  0.00    +0.000 OA
ATOM     13  O   UNL     1       1.446  10.300  22.390  0.00  0.00    +0.000 OA
BRANCH  11  14
ATOM     14  N   UNL     1      -0.092  11.571  20.780  0.00  0.00    +0.000 NA
ATOM     15  C   UNL     1      -1.561  11.796  20.735  0.00  0.00    +0.000 C 
ATOM     16  C   UNL     1      -1.935  13.111  20.061  0.00  0.00    +0.000 C 
ATOM     17  C   UNL     1      -1.125  14.277  20.603  0.00  0.00    +0.000 C 
ATOM     18  C   UNL     1       0.356  14.007  20.398  0.00  0.00    +0.000 C 
ATOM     19  C   UNL     1       0.792  12.724  21.093  0.00  0.00    +0.000 C 
ENDBRANCH  11  14
ENDBRANCH   9  11
ENDBRANCH   2   5
BRANCH   1  20
ATOM     20  C   UNL     1       3.268   3.645  18.386  0.00  0.00    +0.000 C 
BRANCH  20  21
ATOM     21  C   UNL     1       2.108   2.625  18.431  0.00  0.00    +0.000 C 
ATOM     22  O   UNL     1       1.288   2.475  17.548  0.00  0.00    +0.000 OA
BRANCH  21  24
ATOM     23  C   UNL     1       1.482   2.598  20.716  0.00  0.00    +0.000 C 
ATOM     24  O   UNL     1       2.120   1.939  19.616  0.00  0.00    +0.000 OA
ENDBRANCH  21  24
ENDBRANCH  20  21
BRANCH  20  25
ATOM     25  C   UNL     1       4.243   3.337  17.236  0.00  0.00    +0.000 C 
BRANCH  25  26
ATOM     26  C   UNL     1       5.112   4.491  16.819  0.00  0.00    +0.000 A 
ATOM     27  C   UNL     1       5.162   5.038  15.551  0.00  0.00    +0.000 A 
ATOM     28  N   UNL     1       6.087   6.045  15.553  0.00  0.00    +0.000 N 
ATOM     29  C   UNL     1       6.674   6.146  16.792  0.00  0.00    +0.000 A 
ATOM     30  C   UNL     1       7.694   6.996  17.237  0.00  0.00    +0.000 A 
ATOM     31  C   UNL     1       8.122   6.858  18.561  0.00  0.00    +0.000 A 
ATOM     32  C   UNL     1       7.529   5.934  19.413  0.00  0.00    +0.000 A 
ATOM     33  C   UNL     1       6.485   5.121  18.963  0.00  0.00    +0.000 A 
ATOM     34  C   UNL     1       6.067   5.202  17.618  0.00  0.00    +0.000 A 
ATOM     35  H   UNL     1       6.325   6.620  14.757  0.00  0.00    +0.000 HD
ENDBRANCH  25  26
ENDBRANCH  20  25
ENDBRANCH   1  20
TORSDOF 8
ENDMDL
MODEL 8
REMARK VINA RESULT:      -8.4      2.189      4.030
REMARK  Name = 
REMARK  9 active torsions:
REMARK  status: ('A' for Active; 'I' for Inactive)
REMARK    1  A    between atoms: C_1  and  O_2
REMARK    2  A    between atoms: O_2  and  C_3
REMARK    3  A    between atoms: C_3  and  C_5
REMARK    4  A    between atoms: C_5  and  C_6
REMARK    5  A    between atoms: C_5  and  N_16
REMARK    6  A    between atoms: C_6  and  C_7
REMARK    7  A    between atoms: C_17  and  C_19
REMARK    8  A    between atoms: C_23  and  S_24
REMARK    9  A    between atoms: S_24  and  N_27
REMARK                            x       y       z     vdW  Elec       q    Type
REMARK                         _______ _______ _______ _____ _____    ______ ____
ROOT
ATOM      1  N   UNL     1       2.910   5.163  19.114  0.00  0.00    +0.000 N 
ATOM      2  C   UNL     1       2.253   6.128  19.843  0.00  0.00    +0.000 C 
ATOM      3  O   UNL     1       1.819   5.961  20.974  0.00  0.00    +0.000 OA
ATOM      4  H   UNL     1       3.264   5.349  18.183  0.00  0.00    +0.000 HD
ENDROOT
BRANCH   2   5
ATOM      5  C   UNL     1       2.088   7.447  19.186  0.00  0.00    +0.000 A 
ATOM      6  C   UNL     1       2.785   7.745  18.009  0.00  0.00    +0.000 A 
ATOM      7  C   UNL     1       2.685   9.022  17.449  0.00  0.00    +0.000 A 
ATOM      8  C   UNL     1       1.916  10.002  18.076  0.00  0.00    +0.000 A 
ATOM      9  C   UNL     1       1.262   9.713  19.278  0.00  0.00    +0.000 A 
ATOM     10  C   UNL     1       1.320   8.429  19.815  0.00  0.00    +0.000 A 
BRANCH   9  11
ATOM     11  S   UNL     1       0.334  11.006  20.086  0.00  0.00    +0.000 S 
ATOM     12  O   UNL     1       0.231  10.623  21.487  0.00  0.00    +0.000 OA
ATOM     13  O   UNL     1       0.924  12.258  19.698  0.00  0.00    +0.000 OA
BRANCH  11  14
ATOM     14  N   UNL     1      -1.238  10.912  19.409  0.00  0.00    +0.000 NA
ATOM     15  C   UNL     1      -2.081  12.123  19.593  0.00  0.00    +0.000 C 
ATOM     16  C   UNL     1      -3.494  11.945  19.049  0.00  0.00    +0.000 C 
ATOM     17  C   UNL     1      -3.494  11.372  17.642  0.00  0.00    +0.000 C 
ATOM     18  C   UNL     1      -2.778  10.032  17.638  0.00  0.00    +0.000 C 
ATOM     19  C   UNL     1      -1.342  10.163  18.130  0.00  0.00    +0.000 C 
ENDBRANCH  11  14
ENDBRANCH   9  11
ENDBRANCH   2   5
BRANCH   1  20
ATOM     20  C   UNL     1       3.084   3.798  19.627  0.00  0.00    +0.000 C 
BRANCH  20  21
ATOM     21  C   UNL     1       2.129   2.814  18.913  0.00  0.00    +0.000 C 
ATOM     22  O   UNL     1       1.965   2.764  17.710  0.00  0.00    +0.000 OA
BRANCH  21  24
ATOM     23  C   UNL     1       1.341   2.597  21.137  0.00  0.00    +0.000 C 
ATOM     24  O   UNL     1       1.477   2.032  19.828  0.00  0.00    +0.000 OA
ENDBRANCH  21  24
ENDBRANCH  20  21
BRANCH  20  25
ATOM     25  C   UNL     1       4.550   3.348  19.502  0.00  0.00    +0.000 C 
BRANCH  25  26
ATOM     26  C   UNL     1       5.442   4.302  18.757  0.00  0.00    +0.000 A 
ATOM     27  C   UNL     1       6.207   5.299  19.333  0.00  0.00    +0.000 A 
ATOM     28  N   UNL     1       6.854   5.975  18.337  0.00  0.00    +0.000 N 
ATOM     29  C   UNL     1       6.501   5.464  17.111  0.00  0.00    +0.000 A 
ATOM     30  C   UNL     1       6.878   5.869  15.824  0.00  0.00    +0.000 A 
ATOM     31  C   UNL     1       6.334   5.175  14.740  0.00  0.00    +0.000 A 
ATOM     32  C   UNL     1       5.477   4.098  14.935  0.00  0.00    +0.000 A 
ATOM     33  C   UNL     1       5.142   3.682  16.226  0.00  0.00    +0.000 A 
ATOM     34  C   UNL     1       5.636   4.395  17.340  0.00  0.00    +0.000 A 
ATOM     35  H   UNL     1       7.485   6.753  18.473  0.00  0.00    +0.000 HD
ENDBRANCH  25  26
ENDBRANCH  20  25
ENDBRANCH   1  20
TORSDOF 8
ENDMDL
MODEL 9
REMARK VINA RESULT:      -8.4      2.522      8.512
REMARK  Name = 
REMARK  9 active torsions:
REMARK  status: ('A' for Active; 'I' for Inactive)
REMARK    1  A    between atoms: C_1  and  O_2
REMARK    2  A    between atoms: O_2  and  C_3
REMARK    3  A    between atoms: C_3  and  C_5
REMARK    4  A    between atoms: C_5  and  C_6
REMARK    5  A    between atoms: C_5  and  N_16
REMARK    6  A    between atoms: C_6  and  C_7
REMARK    7  A    between atoms: C_17  and  C_19
REMARK    8  A    between atoms: C_23  and  S_24
REMARK    9  A    between atoms: S_24  and  N_27
REMARK                            x       y       z     vdW  Elec       q    Type
REMARK                         _______ _______ _______ _____ _____    ______ ____
ROOT
ATOM      1  N   UNL     1       1.728   8.441  19.819  0.00  0.00    +0.000 N 
ATOM      2  C   UNL     1       1.904   8.271  18.465  0.00  0.00    +0.000 C 
ATOM      3  O   UNL     1       1.265   8.864  17.607  0.00  0.00    +0.000 OA
ATOM      4  H   UNL     1       2.289   7.937  20.495  0.00  0.00    +0.000 HD
ENDROOT
BRANCH   2   5
ATOM      5  C   UNL     1       2.952   7.304  18.056  0.00  0.00    +0.000 A 
ATOM      6  C   UNL     1       4.184   7.758  17.573  0.00  0.00    +0.000 A 
ATOM      7  C   UNL     1       5.129   6.837  17.112  0.00  0.00    +0.000 A 
ATOM      8  C   UNL     1       4.833   5.474  17.107  0.00  0.00    +0.000 A 
ATOM      9  C   UNL     1       3.580   5.032  17.545  0.00  0.00    +0.000 A 
ATOM     10  C   UNL     1       2.654   5.941  18.049  0.00  0.00    +0.000 A 
BRANCH   9  11
ATOM     11  S   UNL     1       3.210   3.287  17.472  0.00  0.00    +0.000 S 
ATOM     12  O   UNL     1       2.102   3.141  16.539  0.00  0.00    +0.000 OA
ATOM     13  O   UNL     1       4.454   2.597  17.264  0.00  0.00    +0.000 OA
BRANCH  11  14
ATOM     14  N   UNL     1       2.625   2.893  19.034  0.00  0.00    +0.000 NA
ATOM     15  C   UNL     1       3.647   2.897  20.114  0.00  0.00    +0.000 C 
ATOM     16  C   UNL     1       3.085   2.453  21.459  0.00  0.00    +0.000 C 
ATOM     17  C   UNL     1       1.790   3.172  21.800  0.00  0.00    +0.000 C 
ATOM     18  C   UNL     1       0.763   2.913  20.711  0.00  0.00    +0.000 C 
ATOM     19  C   UNL     1       1.258   3.383  19.350  0.00  0.00    +0.000 C 
ENDBRANCH  11  14
ENDBRANCH   9  11
ENDBRANCH   2   5
BRANCH   1  20
ATOM     20  C   UNL     1       0.682   9.323  20.353  0.00  0.00    +0.000 C 
BRANCH  20  21
ATOM     21  C   UNL     1       0.726   9.359  21.897  0.00  0.00    +0.000 C 
ATOM     22  O   UNL     1       1.743   9.448  22.556  0.00  0.00    +0.000 OA
BRANCH  21  24
ATOM     23  C   UNL     1      -0.993  10.370  23.177  0.00  0.00    +0.000 C 
ATOM     24  O   UNL     1      -0.537   9.247  22.415  0.00  0.00    +0.000 OA
ENDBRANCH  21  24
ENDBRANCH  20  21
BRANCH  20  25
ATOM     25  C   UNL     1       0.797  10.737  19.755  0.00  0.00    +0.000 C 
BRANCH  25  26
ATOM     26  C   UNL     1      -0.512  11.451  19.567  0.00  0.00    +0.000 A 
ATOM     27  C   UNL     1      -0.869  12.642  20.171  0.00  0.00    +0.000 A 
ATOM     28  N   UNL     1      -2.141  12.958  19.781  0.00  0.00    +0.000 N 
ATOM     29  C   UNL     1      -2.642  11.977  18.959  0.00  0.00    +0.000 A 
ATOM     30  C   UNL     1      -3.905  11.858  18.365  0.00  0.00    +0.000 A 
ATOM     31  C   UNL     1      -4.153  10.722  17.589  0.00  0.00    +0.000 A 
ATOM     32  C   UNL     1      -3.167   9.764  17.385  0.00  0.00    +0.000 A 
ATOM     33  C   UNL     1      -1.899   9.918  17.953  0.00  0.00    +0.000 A 
ATOM     34  C   UNL     1      -1.636  11.028  18.783  0.00  0.00    +0.000 A 
ATOM     35  H   UNL     1      -2.652  13.780  20.069  0.00  0.00    +0.000 HD
ENDBRANCH  25  26
ENDBRANCH  20  25
ENDBRANCH   1  20
TORSDOF 8
ENDMDL
