MODEL 1
REMARK VINA RESULT:      -8.8      0.000      0.000
REMARK  Name = 
REMARK  7 active torsions:
REMARK  status: ('A' for Active; 'I' for Inactive)
REMARK    1  A    between atoms: O_1  and  C_2
REMARK    2  A    between atoms: C_2  and  C_3
REMARK    3  A    between atoms: C_3  and  C_4
REMARK    4  A    between atoms: C_4  and  N_5
REMARK    5  A    between atoms: C_7  and  C_8
REMARK    6  A    between atoms: C_8  and  N_9
REMARK    7  A    between atoms: N_9  and  C_10
REMARK                            x       y       z     vdW  Elec       q    Type
REMARK                         _______ _______ _______ _____ _____    ______ ____
ROOT
ATOM      1  C   UNL     1       3.331   5.565  18.191  0.00  0.00    +0.000 A 
ATOM      2  C   UNL     1       3.146   4.638  19.260  0.00  0.00    +0.000 A 
ATOM      3  C   UNL     1       3.771   3.368  19.260  0.00  0.00    +0.000 A 
ATOM      4  C   UNL     1       3.591   2.464  20.303  0.00  0.00    +0.000 A 
ATOM      5  C   UNL     1       2.783   2.814  21.373  0.00  0.00    +0.000 A 
ATOM      6  C   UNL     1       2.170   4.069  21.395  0.00  0.00    +0.000 A 
ATOM      7  C   UNL     1       2.335   4.994  20.370  0.00  0.00    +0.000 A 
ATOM      8  N   UNL     1       1.713   6.170  20.508  0.00  0.00    +0.000 NA
ATOM      9  C   UNL     1       1.988   7.093  19.555  0.00  0.00    +0.000 A 
ATOM     10  C   UNL     1       2.794   6.829  18.459  0.00  0.00    +0.000 A 
ATOM     11  O   UNL     1       2.952   7.970  17.718  0.00  0.00    +0.000 OA
ATOM     12  C   UNL     1       2.250   8.953  18.344  0.00  0.00    +0.000 A 
ATOM     13  C   UNL     1       2.215  10.290  17.954  0.00  0.00    +0.000 A 
ATOM     14  C   UNL     1       1.392  11.138  18.702  0.00  0.00    +0.000 A 
ATOM     15  C   UNL     1       0.628  10.649  19.766  0.00  0.00    +0.000 A 
ATOM     16  C   UNL     1       0.708   9.302  20.153  0.00  0.00    +0.000 A 
ATOM     17  C   UNL     1       1.565   8.444  19.441  0.00  0.00    +0.000 A 
ENDROOT
BRANCH   1  18
ATOM     18  N   UNL     1       4.045   5.176  17.036  0.00  0.00    +0.000 N 
ATOM     19  H   UNL     1       3.643   5.632  16.218  0.00  0.00    +0.000 HD
BRANCH  18  20
ATOM     20  C   UNL     1       5.505   5.313  17.019  0.00  0.00    +0.000 C 
BRANCH  20  23
ATOM     21  N   UNL     1       6.685   4.445  13.692  0.00  0.00    +0.000 N 
ATOM     22  C   UNL     1       5.702   4.299  14.625  0.00  0.00    +0.000 A 
ATOM     23  C   UNL     1       6.140   5.064  15.687  0.00  0.00    +0.000 A 
ATOM     24  N   UNL     1       7.351   5.625  15.364  0.00  0.00    +0.000 NA
ATOM     25  N   UNL     1       7.668   5.245  14.134  0.00  0.00    +0.000 NA
BRANCH  21  26
ATOM     26  C   UNL     1       6.763   3.856  12.373  0.00  0.00    +0.000 C 
BRANCH  26  27
ATOM     27  C   UNL     1       5.531   3.029  12.002  0.00  0.00    +0.000 C 
BRANCH  27  28
ATOM     28  C   UNL     1       5.886   1.684  11.386  0.00  0.00    +0.000 C 
BRANCH  28  29
ATOM     29  O   UNL     1       7.297   1.588  11.253  0.00  0.00    +0.000 OA
ATOM     30  H   UNL     1       7.493   0.682  10.960  0.00  0.00    +0.000 HD
ENDBRANCH  28  29
ENDBRANCH  27  28
ENDBRANCH  26  27
ENDBRANCH  21  26
ENDBRANCH  20  23
ENDBRANCH  18  20
ENDBRANCH   1  18
TORSDOF 7
ENDMDL
MODEL 2
REMARK VINA RESULT:      -8.3      1.151      4.539
REMARK  Name = 
REMARK  7 active torsions:
REMARK  status: ('A' for Active; 'I' for Inactive)
REMARK    1  A    between atoms: O_1  and  C_2
REMARK    2  A    between atoms: C_2  and  C_3
REMARK    3  A    between atoms: C_3  and  C_4
REMARK    4  A    between atoms: C_4  and  N_5
REMARK    5  A    between atoms: C_7  and  C_8
REMARK    6  A    between atoms: C_8  and  N_9
REMARK    7  A    between atoms: N_9  and  C_10
REMARK                            x       y       z     vdW  Elec       q    Type
REMARK                         _______ _______ _______ _____ _____    ______ ____
ROOT
ATOM      1  C   UNL     1       3.196   7.160  18.114  0.00  0.00    +0.000 A 
ATOM      2  C   UNL     1       2.385   8.234  18.590  0.00  0.00    +0.000 A 
ATOM      3  C   UNL     1       2.279   9.455  17.884  0.00  0.00    +0.000 A 
ATOM      4  C   UNL     1       1.487  10.502  18.348  0.00  0.00    +0.000 A 
ATOM      5  C   UNL     1       0.778  10.347  19.528  0.00  0.00    +0.000 A 
ATOM      6  C   UNL     1       0.860   9.142  20.230  0.00  0.00    +0.000 A 
ATOM      7  C   UNL     1       1.640   8.077  19.789  0.00  0.00    +0.000 A 
ATOM      8  N   UNL     1       1.627   6.966  20.534  0.00  0.00    +0.000 NA
ATOM      9  C   UNL     1       2.297   5.908  20.018  0.00  0.00    +0.000 A 
ATOM     10  C   UNL     1       3.022   5.976  18.839  0.00  0.00    +0.000 A 
ATOM     11  O   UNL     1       3.519   4.737  18.533  0.00  0.00    +0.000 OA
ATOM     12  C   UNL     1       3.110   3.888  19.514  0.00  0.00    +0.000 A 
ATOM     13  C   UNL     1       3.340   2.514  19.538  0.00  0.00    +0.000 A 
ATOM     14  C   UNL     1       2.879   1.823  20.662  0.00  0.00    +0.000 A 
ATOM     15  C   UNL     1       2.248   2.493  21.714  0.00  0.00    +0.000 A 
ATOM     16  C   UNL     1       2.005   3.874  21.648  0.00  0.00    +0.000 A 
ATOM     17  C   UNL     1       2.421   4.579  20.504  0.00  0.00    +0.000 A 
ENDROOT
BRANCH   1  18
ATOM     18  N   UNL     1       4.023   7.348  16.985  0.00  0.00    +0.000 N 
ATOM     19  H   UNL     1       3.845   8.266  16.582  0.00  0.00    +0.000 HD
BRANCH  18  20
ATOM     20  C   UNL     1       5.467   7.126  17.113  0.00  0.00    +0.000 C 
BRANCH  20  23
ATOM     21  N   UNL     1       6.444   4.719  14.569  0.00  0.00    +0.000 N 
ATOM     22  C   UNL     1       5.417   5.299  15.253  0.00  0.00    +0.000 A 
ATOM     23  C   UNL     1       6.046   6.188  16.101  0.00  0.00    +0.000 A 
ATOM     24  N   UNL     1       7.403   6.105  15.907  0.00  0.00    +0.000 NA
ATOM     25  N   UNL     1       7.632   5.209  14.958  0.00  0.00    +0.000 NA
BRANCH  21  26
ATOM     26  C   UNL     1       6.376   3.698  13.547  0.00  0.00    +0.000 C 
BRANCH  26  27
ATOM     27  C   UNL     1       5.023   3.638  12.836  0.00  0.00    +0.000 C 
BRANCH  27  28
ATOM     28  C   UNL     1       5.086   2.901  11.507  0.00  0.00    +0.000 C 
BRANCH  28  29
ATOM     29  O   UNL     1       5.844   1.711  11.667  0.00  0.00    +0.000 OA
ATOM     30  H   UNL     1       5.542   1.088  10.985  0.00  0.00    +0.000 HD
ENDBRANCH  28  29
ENDBRANCH  27  28
ENDBRANCH  26  27
ENDBRANCH  21  26
ENDBRANCH  20  23
ENDBRANCH  18  20
ENDBRANCH   1  18
TORSDOF 7
ENDMDL
MODEL 3
REMARK VINA RESULT:      -7.9      1.107      1.436
REMARK  Name = 
REMARK  7 active torsions:
REMARK  status: ('A' for Active; 'I' for Inactive)
REMARK    1  A    between atoms: O_1  and  C_2
REMARK    2  A    between atoms: C_2  and  C_3
REMARK    3  A    between atoms: C_3  and  C_4
REMARK    4  A    between atoms: C_4  and  N_5
REMARK    5  A    between atoms: C_7  and  C_8
REMARK    6  A    between atoms: C_8  and  N_9
REMARK    7  A    between atoms: N_9  and  C_10
REMARK                            x       y       z     vdW  Elec       q    Type
REMARK                         _______ _______ _______ _____ _____    ______ ____
ROOT
ATOM      1  C   UNL     1       2.789   6.369  18.703  0.00  0.00    +0.000 A 
ATOM      2  C   UNL     1       2.869   5.140  19.425  0.00  0.00    +0.000 A 
ATOM      3  C   UNL     1       3.669   4.064  18.974  0.00  0.00    +0.000 A 
ATOM      4  C   UNL     1       3.748   2.865  19.678  0.00  0.00    +0.000 A 
ATOM      5  C   UNL     1       3.029   2.719  20.854  0.00  0.00    +0.000 A 
ATOM      6  C   UNL     1       2.245   3.777  21.320  0.00  0.00    +0.000 A 
ATOM      7  C   UNL     1       2.150   4.987  20.640  0.00  0.00    +0.000 A 
ATOM      8  N   UNL     1       1.383   5.934  21.191  0.00  0.00    +0.000 NA
ATOM      9  C   UNL     1       1.405   7.140  20.572  0.00  0.00    +0.000 A 
ATOM     10  C   UNL     1       2.107   7.372  19.400  0.00  0.00    +0.000 A 
ATOM     11  O   UNL     1       2.008   8.696  19.060  0.00  0.00    +0.000 OA
ATOM     12  C   UNL     1       1.247   9.298  20.014  0.00  0.00    +0.000 A 
ATOM     13  C   UNL     1       0.970  10.662  20.080  0.00  0.00    +0.000 A 
ATOM     14  C   UNL     1       0.125  11.078  21.114  0.00  0.00    +0.000 A 
ATOM     15  C   UNL     1      -0.428  10.158  22.009  0.00  0.00    +0.000 A 
ATOM     16  C   UNL     1      -0.106   8.794  21.934  0.00  0.00    +0.000 A 
ATOM     17  C   UNL     1       0.778   8.362  20.929  0.00  0.00    +0.000 A 
ENDROOT
BRANCH   1  18
ATOM     18  N   UNL     1       3.411   6.488  17.441  0.00  0.00    +0.000 N 
ATOM     19  H   UNL     1       2.893   7.150  16.867  0.00  0.00    +0.000 HD
BRANCH  18  20
ATOM     20  C   UNL     1       4.847   6.785  17.378  0.00  0.00    +0.000 C 
BRANCH  20  23
ATOM     21  N   UNL     1       6.303   4.619  14.847  0.00  0.00    +0.000 N 
ATOM     22  C   UNL     1       5.203   4.915  15.596  0.00  0.00    +0.000 A 
ATOM     23  C   UNL     1       5.602   5.997  16.354  0.00  0.00    +0.000 A 
ATOM     24  N   UNL     1       6.904   6.303  16.044  0.00  0.00    +0.000 NA
ATOM     25  N   UNL     1       7.318   5.457  15.112  0.00  0.00    +0.000 NA
BRANCH  21  26
ATOM     26  C   UNL     1       6.466   3.564  13.872  0.00  0.00    +0.000 C 
BRANCH  26  27
ATOM     27  C   UNL     1       5.644   3.779  12.600  0.00  0.00    +0.000 C 
BRANCH  27  28
ATOM     28  C   UNL     1       5.534   2.524  11.747  0.00  0.00    +0.000 C 
BRANCH  28  29
ATOM     29  O   UNL     1       6.834   1.996  11.523  0.00  0.00    +0.000 OA
ATOM     30  H   UNL     1       6.892   1.782  10.576  0.00  0.00    +0.000 HD
ENDBRANCH  28  29
ENDBRANCH  27  28
ENDBRANCH  26  27
ENDBRANCH  21  26
ENDBRANCH  20  23
ENDBRANCH  18  20
ENDBRANCH   1  18
TORSDOF 7
ENDMDL
MODEL 4
REMARK VINA RESULT:      -7.9      2.878      4.415
REMARK  Name = 
REMARK  7 active torsions:
REMARK  status: ('A' for Active; 'I' for Inactive)
REMARK    1  A    between atoms: O_1  and  C_2
REMARK    2  A    between atoms: C_2  and  C_3
REMARK    3  A    between atoms: C_3  and  C_4
REMARK    4  A    between atoms: C_4  and  N_5
REMARK    5  A    between atoms: C_7  and  C_8
REMARK    6  A    between atoms: C_8  and  N_9
REMARK    7  A    between atoms: N_9  and  C_10
REMARK                            x       y       z     vdW  Elec       q    Type
REMARK                         _______ _______ _______ _____ _____    ______ ____
ROOT
ATOM      1  C   UNL     1       3.382   5.301  18.199  0.00  0.00    +0.000 A 
ATOM      2  C   UNL     1       3.164   4.415  19.297  0.00  0.00    +0.000 A 
ATOM      3  C   UNL     1       3.744   3.126  19.339  0.00  0.00    +0.000 A 
ATOM      4  C   UNL     1       3.533   2.262  20.410  0.00  0.00    +0.000 A 
ATOM      5  C   UNL     1       2.736   2.674  21.467  0.00  0.00    +0.000 A 
ATOM      6  C   UNL     1       2.167   3.949  21.447  0.00  0.00    +0.000 A 
ATOM      7  C   UNL     1       2.364   4.834  20.393  0.00  0.00    +0.000 A 
ATOM      8  N   UNL     1       1.784   6.035  20.492  0.00  0.00    +0.000 NA
ATOM      9  C   UNL     1       2.091   6.918  19.511  0.00  0.00    +0.000 A 
ATOM     10  C   UNL     1       2.889   6.590  18.426  0.00  0.00    +0.000 A 
ATOM     11  O   UNL     1       3.087   7.702  17.650  0.00  0.00    +0.000 OA
ATOM     12  C   UNL     1       2.419   8.728  18.242  0.00  0.00    +0.000 A 
ATOM     13  C   UNL     1       2.430  10.052  17.809  0.00  0.00    +0.000 A 
ATOM     14  C   UNL     1       1.637  10.951  18.529  0.00  0.00    +0.000 A 
ATOM     15  C   UNL     1       0.855  10.523  19.606  0.00  0.00    +0.000 A 
ATOM     16  C   UNL     1       0.888   9.188  20.036  0.00  0.00    +0.000 A 
ATOM     17  C   UNL     1       1.715   8.278  19.354  0.00  0.00    +0.000 A 
ENDROOT
BRANCH   1  18
ATOM     18  N   UNL     1       4.083   4.851  17.059  0.00  0.00    +0.000 N 
ATOM     19  H   UNL     1       3.876   5.460  16.270  0.00  0.00    +0.000 HD
BRANCH  18  20
ATOM     20  C   UNL     1       5.530   4.627  17.152  0.00  0.00    +0.000 C 
BRANCH  20  23
ATOM     21  N   UNL     1       7.680   7.437  17.986  0.00  0.00    +0.000 N 
ATOM     22  C   UNL     1       7.269   6.180  18.318  0.00  0.00    +0.000 A 
ATOM     23  C   UNL     1       6.343   5.868  17.343  0.00  0.00    +0.000 A 
ATOM     24  N   UNL     1       6.226   6.932  16.483  0.00  0.00    +0.000 NA
ATOM     25  N   UNL     1       7.058   7.882  16.882  0.00  0.00    +0.000 NA
BRANCH  21  26
ATOM     26  C   UNL     1       8.644   8.274  18.666  0.00  0.00    +0.000 C 
BRANCH  26  27
ATOM     27  C   UNL     1       8.577   9.743  18.246  0.00  0.00    +0.000 C 
BRANCH  27  28
ATOM     28  C   UNL     1       9.491  10.636  19.072  0.00  0.00    +0.000 C 
BRANCH  28  29
ATOM     29  O   UNL     1       9.306  10.347  20.450  0.00  0.00    +0.000 OA
ATOM     30  H   UNL     1       9.094   9.400  20.514  0.00  0.00    +0.000 HD
ENDBRANCH  28  29
ENDBRANCH  27  28
ENDBRANCH  26  27
ENDBRANCH  21  26
ENDBRANCH  20  23
ENDBRANCH  18  20
ENDBRANCH   1  18
TORSDOF 7
ENDMDL
MODEL 5
REMARK VINA RESULT:      -7.7      3.980      7.211
REMARK  Name = 
REMARK  7 active torsions:
REMARK  status: ('A' for Active; 'I' for Inactive)
REMARK    1  A    between atoms: O_1  and  C_2
REMARK    2  A    between atoms: C_2  and  C_3
REMARK    3  A    between atoms: C_3  and  C_4
REMARK    4  A    between atoms: C_4  and  N_5
REMARK    5  A    between atoms: C_7  and  C_8
REMARK    6  A    between atoms: C_8  and  N_9
REMARK    7  A    between atoms: N_9  and  C_10
REMARK                            x       y       z     vdW  Elec       q    Type
REMARK                         _______ _______ _______ _____ _____    ______ ____
ROOT
ATOM      1  C   UNL     1       5.701   5.200  18.021  0.00  0.00    +0.000 A 
ATOM      2  C   UNL     1       4.361   4.883  18.395  0.00  0.00    +0.000 A 
ATOM      3  C   UNL     1       3.842   5.226  19.665  0.00  0.00    +0.000 A 
ATOM      4  C   UNL     1       2.534   4.918  20.029  0.00  0.00    +0.000 A 
ATOM      5  C   UNL     1       1.714   4.262  19.125  0.00  0.00    +0.000 A 
ATOM      6  C   UNL     1       2.206   3.929  17.861  0.00  0.00    +0.000 A 
ATOM      7  C   UNL     1       3.507   4.228  17.468  0.00  0.00    +0.000 A 
ATOM      8  N   UNL     1       3.862   3.876  16.228  0.00  0.00    +0.000 NA
ATOM      9  C   UNL     1       5.091   4.286  15.832  0.00  0.00    +0.000 A 
ATOM     10  C   UNL     1       5.969   4.957  16.670  0.00  0.00    +0.000 A 
ATOM     11  O   UNL     1       7.092   5.311  15.970  0.00  0.00    +0.000 OA
ATOM     12  C   UNL     1       6.925   4.867  14.695  0.00  0.00    +0.000 A 
ATOM     13  C   UNL     1       7.810   5.092  13.642  0.00  0.00    +0.000 A 
ATOM     14  C   UNL     1       7.482   4.509  12.415  0.00  0.00    +0.000 A 
ATOM     15  C   UNL     1       6.337   3.720  12.273  0.00  0.00    +0.000 A 
ATOM     16  C   UNL     1       5.450   3.536  13.345  0.00  0.00    +0.000 A 
ATOM     17  C   UNL     1       5.739   4.151  14.576  0.00  0.00    +0.000 A 
ENDROOT
BRANCH   1  18
ATOM     18  N   UNL     1       6.587   5.751  18.973  0.00  0.00    +0.000 N 
ATOM     19  H   UNL     1       6.658   5.126  19.774  0.00  0.00    +0.000 HD
BRANCH  18  20
ATOM     20  C   UNL     1       7.926   6.170  18.544  0.00  0.00    +0.000 C 
BRANCH  20  23
ATOM     21  N   UNL     1       8.571   9.732  18.208  0.00  0.00    +0.000 N 
ATOM     22  C   UNL     1       8.877   8.576  18.864  0.00  0.00    +0.000 A 
ATOM     23  C   UNL     1       8.063   7.634  18.268  0.00  0.00    +0.000 A 
ATOM     24  N   UNL     1       7.305   8.247  17.301  0.00  0.00    +0.000 NA
ATOM     25  N   UNL     1       7.634   9.530  17.268  0.00  0.00    +0.000 NA
BRANCH  21  26
ATOM     26  C   UNL     1       9.115  11.055  18.421  0.00  0.00    +0.000 C 
BRANCH  26  27
ATOM     27  C   UNL     1      10.221  11.094  19.478  0.00  0.00    +0.000 C 
BRANCH  27  28
ATOM     28  C   UNL     1      11.531  11.652  18.943  0.00  0.00    +0.000 C 
BRANCH  28  29
ATOM     29  O   UNL     1      11.562  11.498  17.531  0.00  0.00    +0.000 OA
ATOM     30  H   UNL     1      12.276  12.069  17.200  0.00  0.00    +0.000 HD
ENDBRANCH  28  29
ENDBRANCH  27  28
ENDBRANCH  26  27
ENDBRANCH  21  26
ENDBRANCH  20  23
ENDBRANCH  18  20
ENDBRANCH   1  18
TORSDOF 7
ENDMDL
MODEL 6
REMARK VINA RESULT:      -7.5      4.179      7.167
REMARK  Name = 
REMARK  7 active torsions:
REMARK  status: ('A' for Active; 'I' for Inactive)
REMARK    1  A    between atoms: O_1  and  C_2
REMARK    2  A    between atoms: C_2  and  C_3
REMARK    3  A    between atoms: C_3  and  C_4
REMARK    4  A    between atoms: C_4  and  N_5
REMARK    5  A    between atoms: C_7  and  C_8
REMARK    6  A    between atoms: C_8  and  N_9
REMARK    7  A    between atoms: N_9  and  C_10
REMARK                            x       y       z     vdW  Elec       q    Type
REMARK                         _______ _______ _______ _____ _____    ______ ____
ROOT
ATOM      1  C   UNL     1       6.340   4.265  17.677  0.00  0.00    +0.000 A 
ATOM      2  C   UNL     1       6.232   4.323  16.255  0.00  0.00    +0.000 A 
ATOM      3  C   UNL     1       7.367   4.502  15.430  0.00  0.00    +0.000 A 
ATOM      4  C   UNL     1       7.262   4.556  14.043  0.00  0.00    +0.000 A 
ATOM      5  C   UNL     1       6.016   4.429  13.450  0.00  0.00    +0.000 A 
ATOM      6  C   UNL     1       4.887   4.238  14.250  0.00  0.00    +0.000 A 
ATOM      7  C   UNL     1       4.962   4.175  15.637  0.00  0.00    +0.000 A 
ATOM      8  N   UNL     1       3.817   3.971  16.298  0.00  0.00    +0.000 NA
ATOM      9  C   UNL     1       3.936   3.793  17.636  0.00  0.00    +0.000 A 
ATOM     10  C   UNL     1       5.146   3.893  18.305  0.00  0.00    +0.000 A 
ATOM     11  O   UNL     1       4.967   3.586  19.628  0.00  0.00    +0.000 OA
ATOM     12  C   UNL     1       3.649   3.292  19.795  0.00  0.00    +0.000 A 
ATOM     13  C   UNL     1       3.066   2.853  20.982  0.00  0.00    +0.000 A 
ATOM     14  C   UNL     1       1.683   2.651  20.961  0.00  0.00    +0.000 A 
ATOM     15  C   UNL     1       0.932   2.908  19.811  0.00  0.00    +0.000 A 
ATOM     16  C   UNL     1       1.552   3.322  18.622  0.00  0.00    +0.000 A 
ATOM     17  C   UNL     1       2.949   3.487  18.609  0.00  0.00    +0.000 A 
ENDROOT
BRANCH   1  18
ATOM     18  N   UNL     1       7.580   4.521  18.301  0.00  0.00    +0.000 N 
ATOM     19  H   UNL     1       8.306   4.608  17.593  0.00  0.00    +0.000 HD
BRANCH  18  20
ATOM     20  C   UNL     1       7.682   5.626  19.261  0.00  0.00    +0.000 C 
BRANCH  20  23
ATOM     21  N   UNL     1       8.408   8.999  18.116  0.00  0.00    +0.000 N 
ATOM     22  C   UNL     1       8.619   8.052  19.073  0.00  0.00    +0.000 A 
ATOM     23  C   UNL     1       7.870   6.975  18.642  0.00  0.00    +0.000 A 
ATOM     24  N   UNL     1       7.241   7.311  17.469  0.00  0.00    +0.000 NA
ATOM     25  N   UNL     1       7.587   8.550  17.152  0.00  0.00    +0.000 NA
BRANCH  21  26
ATOM     26  C   UNL     1       8.940  10.342  18.051  0.00  0.00    +0.000 C 
BRANCH  26  27
ATOM     27  C   UNL     1       9.744  10.738  19.291  0.00  0.00    +0.000 C 
BRANCH  27  28
ATOM     28  C   UNL     1       9.370  12.113  19.824  0.00  0.00    +0.000 C 
BRANCH  28  29
ATOM     29  O   UNL     1       9.281  12.056  21.240  0.00  0.00    +0.000 OA
ATOM     30  H   UNL     1       9.628  11.189  21.511  0.00  0.00    +0.000 HD
ENDBRANCH  28  29
ENDBRANCH  27  28
ENDBRANCH  26  27
ENDBRANCH  21  26
ENDBRANCH  20  23
ENDBRANCH  18  20
ENDBRANCH   1  18
TORSDOF 7
ENDMDL
MODEL 7
REMARK VINA RESULT:      -7.4      2.891      8.536
REMARK  Name = 
REMARK  7 active torsions:
REMARK  status: ('A' for Active; 'I' for Inactive)
REMARK    1  A    between atoms: O_1  and  C_2
REMARK    2  A    between atoms: C_2  and  C_3
REMARK    3  A    between atoms: C_3  and  C_4
REMARK    4  A    between atoms: C_4  and  N_5
REMARK    5  A    between atoms: C_7  and  C_8
REMARK    6  A    between atoms: C_8  and  N_9
REMARK    7  A    between atoms: N_9  and  C_10
REMARK                            x       y       z     vdW  Elec       q    Type
REMARK                         _______ _______ _______ _____ _____    ______ ____
ROOT
ATOM      1  C   UNL     1       3.252   5.741  19.227  0.00  0.00    +0.000 A 
ATOM      2  C   UNL     1       2.714   4.573  19.844  0.00  0.00    +0.000 A 
ATOM      3  C   UNL     1       1.810   4.655  20.929  0.00  0.00    +0.000 A 
ATOM      4  C   UNL     1       1.284   3.515  21.531  0.00  0.00    +0.000 A 
ATOM      5  C   UNL     1       1.649   2.265  21.056  0.00  0.00    +0.000 A 
ATOM      6  C   UNL     1       2.531   2.167  19.977  0.00  0.00    +0.000 A 
ATOM      7  C   UNL     1       3.068   3.288  19.353  0.00  0.00    +0.000 A 
ATOM      8  N   UNL     1       3.887   3.072  18.318  0.00  0.00    +0.000 NA
ATOM      9  C   UNL     1       4.299   4.181  17.655  0.00  0.00    +0.000 A 
ATOM     10  C   UNL     1       3.970   5.465  18.058  0.00  0.00    +0.000 A 
ATOM     11  O   UNL     1       4.459   6.370  17.153  0.00  0.00    +0.000 OA
ATOM     12  C   UNL     1       5.094   5.660  16.181  0.00  0.00    +0.000 A 
ATOM     13  C   UNL     1       5.665   6.202  15.032  0.00  0.00    +0.000 A 
ATOM     14  C   UNL     1       6.316   5.307  14.177  0.00  0.00    +0.000 A 
ATOM     15  C   UNL     1       6.408   3.947  14.487  0.00  0.00    +0.000 A 
ATOM     16  C   UNL     1       5.797   3.427  15.639  0.00  0.00    +0.000 A 
ATOM     17  C   UNL     1       5.098   4.304  16.488  0.00  0.00    +0.000 A 
ENDROOT
BRANCH   1  18
ATOM     18  N   UNL     1       2.991   7.015  19.779  0.00  0.00    +0.000 N 
ATOM     19  H   UNL     1       3.868   7.449  20.061  0.00  0.00    +0.000 HD
BRANCH  18  20
ATOM     20  C   UNL     1       2.180   7.971  19.018  0.00  0.00    +0.000 C 
BRANCH  20  23
ATOM     21  N   UNL     1       0.012   9.683  21.381  0.00  0.00    +0.000 N 
ATOM     22  C   UNL     1       0.980   8.740  21.201  0.00  0.00    +0.000 A 
ATOM     23  C   UNL     1       1.223   8.773  19.843  0.00  0.00    +0.000 A 
ATOM     24  N   UNL     1       0.403   9.710  19.265  0.00  0.00    +0.000 NA
ATOM     25  N   UNL     1      -0.327  10.268  20.220  0.00  0.00    +0.000 NA
BRANCH  21  26
ATOM     26  C   UNL     1      -0.638  10.076  22.611  0.00  0.00    +0.000 C 
BRANCH  26  27
ATOM     27  C   UNL     1      -0.846  11.587  22.733  0.00  0.00    +0.000 C 
BRANCH  27  28
ATOM     28  C   UNL     1      -2.291  12.006  22.506  0.00  0.00    +0.000 C 
BRANCH  28  29
ATOM     29  O   UNL     1      -3.049  11.721  23.673  0.00  0.00    +0.000 OA
ATOM     30  H   UNL     1      -3.987  11.800  23.428  0.00  0.00    +0.000 HD
ENDBRANCH  28  29
ENDBRANCH  27  28
ENDBRANCH  26  27
ENDBRANCH  21  26
ENDBRANCH  20  23
ENDBRANCH  18  20
ENDBRANCH   1  18
TORSDOF 7
ENDMDL
MODEL 8
REMARK VINA RESULT:      -7.4      4.375      7.139
REMARK  Name = 
REMARK  7 active torsions:
REMARK  status: ('A' for Active; 'I' for Inactive)
REMARK    1  A    between atoms: O_1  and  C_2
REMARK    2  A    between atoms: C_2  and  C_3
REMARK    3  A    between atoms: C_3  and  C_4
REMARK    4  A    between atoms: C_4  and  N_5
REMARK    5  A    between atoms: C_7  and  C_8
REMARK    6  A    between atoms: C_8  and  N_9
REMARK    7  A    between atoms: N_9  and  C_10
REMARK                            x       y       z     vdW  Elec       q    Type
REMARK                         _______ _______ _______ _____ _____    ______ ____
ROOT
ATOM      1  C   UNL     1       5.921   5.784  17.469  0.00  0.00    +0.000 A 
ATOM      2  C   UNL     1       6.107   5.195  16.182  0.00  0.00    +0.000 A 
ATOM      3  C   UNL     1       7.277   5.427  15.420  0.00  0.00    +0.000 A 
ATOM      4  C   UNL     1       7.460   4.853  14.166  0.00  0.00    +0.000 A 
ATOM      5  C   UNL     1       6.475   4.028  13.646  0.00  0.00    +0.000 A 
ATOM      6  C   UNL     1       5.320   3.777  14.391  0.00  0.00    +0.000 A 
ATOM      7  C   UNL     1       5.112   4.334  15.649  0.00  0.00    +0.000 A 
ATOM      8  N   UNL     1       3.976   4.009  16.276  0.00  0.00    +0.000 NA
ATOM      9  C   UNL     1       3.857   4.467  17.546  0.00  0.00    +0.000 A 
ATOM     10  C   UNL     1       4.800   5.287  18.144  0.00  0.00    +0.000 A 
ATOM     11  O   UNL     1       4.449   5.519  19.447  0.00  0.00    +0.000 OA
ATOM     12  C   UNL     1       3.287   4.847  19.673  0.00  0.00    +0.000 A 
ATOM     13  C   UNL     1       2.633   4.761  20.900  0.00  0.00    +0.000 A 
ATOM     14  C   UNL     1       1.422   4.062  20.915  0.00  0.00    +0.000 A 
ATOM     15  C   UNL     1       0.893   3.509  19.745  0.00  0.00    +0.000 A 
ATOM     16  C   UNL     1       1.591   3.587  18.530  0.00  0.00    +0.000 A 
ATOM     17  C   UNL     1       2.832   4.247  18.504  0.00  0.00    +0.000 A 
ENDROOT
BRANCH   1  18
ATOM     18  N   UNL     1       6.854   6.726  17.955  0.00  0.00    +0.000 N 
ATOM     19  H   UNL     1       7.740   6.261  18.143  0.00  0.00    +0.000 HD
BRANCH  18  20
ATOM     20  C   UNL     1       7.085   7.959  17.196  0.00  0.00    +0.000 C 
BRANCH  20  23
ATOM     21  N   UNL     1       9.057  10.692  18.560  0.00  0.00    +0.000 N 
ATOM     22  C   UNL     1       8.150  10.301  17.620  0.00  0.00    +0.000 A 
ATOM     23  C   UNL     1       7.962   8.959  17.883  0.00  0.00    +0.000 A 
ATOM     24  N   UNL     1       8.753   8.597  18.944  0.00  0.00    +0.000 NA
ATOM     25  N   UNL     1       9.411   9.671  19.356  0.00  0.00    +0.000 NA
BRANCH  21  26
ATOM     26  C   UNL     1       9.634  12.004  18.758  0.00  0.00    +0.000 C 
BRANCH  26  27
ATOM     27  C   UNL     1      10.069  12.680  17.457  0.00  0.00    +0.000 C 
BRANCH  27  28
ATOM     28  C   UNL     1      11.575  12.869  17.363  0.00  0.00    +0.000 C 
BRANCH  28  29
ATOM     29  O   UNL     1      11.932  13.117  16.010  0.00  0.00    +0.000 OA
ATOM     30  H   UNL     1      12.819  13.515  16.020  0.00  0.00    +0.000 HD
ENDBRANCH  28  29
ENDBRANCH  27  28
ENDBRANCH  26  27
ENDBRANCH  21  26
ENDBRANCH  20  23
ENDBRANCH  18  20
ENDBRANCH   1  18
TORSDOF 7
ENDMDL
MODEL 9
REMARK VINA RESULT:      -7.4      4.394      7.733
REMARK  Name = 
REMARK  7 active torsions:
REMARK  status: ('A' for Active; 'I' for Inactive)
REMARK    1  A    between atoms: O_1  and  C_2
REMARK    2  A    between atoms: C_2  and  C_3
REMARK    3  A    between atoms: C_3  and  C_4
REMARK    4  A    between atoms: C_4  and  N_5
REMARK    5  A    between atoms: C_7  and  C_8
REMARK    6  A    between atoms: C_8  and  N_9
REMARK    7  A    between atoms: N_9  and  C_10
REMARK                            x       y       z     vdW  Elec       q    Type
REMARK                         _______ _______ _______ _____ _____    ______ ____
ROOT
ATOM      1  C   UNL     1       6.039   6.020  17.324  0.00  0.00    +0.000 A 
ATOM      2  C   UNL     1       4.805   5.627  17.923  0.00  0.00    +0.000 A 
ATOM      3  C   UNL     1       4.349   6.204  19.132  0.00  0.00    +0.000 A 
ATOM      4  C   UNL     1       3.144   5.822  19.716  0.00  0.00    +0.000 A 
ATOM      5  C   UNL     1       2.366   4.855  19.099  0.00  0.00    +0.000 A 
ATOM      6  C   UNL     1       2.795   4.286  17.898  0.00  0.00    +0.000 A 
ATOM      7  C   UNL     1       3.991   4.651  17.289  0.00  0.00    +0.000 A 
ATOM      8  N   UNL     1       4.291   4.051  16.131  0.00  0.00    +0.000 NA
ATOM      9  C   UNL     1       5.399   4.513  15.502  0.00  0.00    +0.000 A 
ATOM     10  C   UNL     1       6.225   5.484  16.044  0.00  0.00    +0.000 A 
ATOM     11  O   UNL     1       7.211   5.801  15.149  0.00  0.00    +0.000 OA
ATOM     12  C   UNL     1       7.010   5.033  14.044  0.00  0.00    +0.000 A 
ATOM     13  C   UNL     1       7.753   5.106  12.867  0.00  0.00    +0.000 A 
ATOM     14  C   UNL     1       7.419   4.195  11.861  0.00  0.00    +0.000 A 
ATOM     15  C   UNL     1       6.409   3.247  12.050  0.00  0.00    +0.000 A 
ATOM     16  C   UNL     1       5.659   3.218  13.236  0.00  0.00    +0.000 A 
ATOM     17  C   UNL     1       5.950   4.156  14.243  0.00  0.00    +0.000 A 
ENDROOT
BRANCH   1  18
ATOM     18  N   UNL     1       6.902   6.908  18.003  0.00  0.00    +0.000 N 
ATOM     19  H   UNL     1       7.445   6.392  18.694  0.00  0.00    +0.000 HD
BRANCH  18  20
ATOM     20  C   UNL     1       7.784   7.783  17.224  0.00  0.00    +0.000 C 
BRANCH  20  23
ATOM     21  N   UNL     1       8.898  10.916  18.694  0.00  0.00    +0.000 N 
ATOM     22  C   UNL     1       8.271  10.309  17.646  0.00  0.00    +0.000 A 
ATOM     23  C   UNL     1       8.307   8.969  17.972  0.00  0.00    +0.000 A 
ATOM     24  N   UNL     1       8.948   8.819  19.177  0.00  0.00    +0.000 NA
ATOM     25  N   UNL     1       9.295  10.022  19.614  0.00  0.00    +0.000 NA
BRANCH  21  26
ATOM     26  C   UNL     1       9.158  12.325  18.889  0.00  0.00    +0.000 C 
BRANCH  26  27
ATOM     27  C   UNL     1       9.473  13.070  17.591  0.00  0.00    +0.000 C 
BRANCH  27  28
ATOM     28  C   UNL     1      10.938  12.972  17.193  0.00  0.00    +0.000 C 
BRANCH  28  29
ATOM     29  O   UNL     1      11.194  13.874  16.126  0.00  0.00    +0.000 OA
ATOM     30  H   UNL     1      11.079  13.375  15.299  0.00  0.00    +0.000 HD
ENDBRANCH  28  29
ENDBRANCH  27  28
ENDBRANCH  26  27
ENDBRANCH  21  26
ENDBRANCH  20  23
ENDBRANCH  18  20
ENDBRANCH   1  18
TORSDOF 7
ENDMDL
