MODEL 1
REMARK VINA RESULT:      -7.9      0.000      0.000
REMARK  Name = 
REMARK  6 active torsions:
REMARK  status: ('A' for Active; 'I' for Inactive)
REMARK    1  A    between atoms: C_2  and  C_3
REMARK    2  A    between atoms: C_3  and  O_4
REMARK    3  A    between atoms: O_4  and  C_5
REMARK    4  A    between atoms: C_8  and  O_9
REMARK    5  A    between atoms: O_9  and  C_10
REMARK    6  A    between atoms: C_17  and  N_18
REMARK                            x       y       z     vdW  Elec       q    Type
REMARK                         _______ _______ _______ _____ _____    ______ ____
ROOT
ATOM      1  C   UNL     1       5.846   6.587  16.933  0.00  0.00    +0.000 A 
ATOM      2  C   UNL     1       4.613   6.886  17.527  0.00  0.00    +0.000 A 
ATOM      3  C   UNL     1       3.643   5.891  17.722  0.00  0.00    +0.000 A 
ATOM      4  C   UNL     1       3.894   4.576  17.332  0.00  0.00    +0.000 A 
ATOM      5  C   UNL     1       5.147   4.241  16.824  0.00  0.00    +0.000 A 
ATOM      6  C   UNL     1       6.098   5.248  16.619  0.00  0.00    +0.000 A 
ENDROOT
BRANCH   6   7
ATOM      7  N   UNL     1       7.369   4.809  16.096  0.00  0.00    +0.000 N 
ATOM      8  O   UNL     1       7.634   5.101  14.927  0.00  0.00    +0.000 OA
ATOM      9  O   UNL     1       8.104   4.181  16.873  0.00  0.00    +0.000 OA
ENDBRANCH   6   7
BRANCH   1  10
ATOM     10  O   UNL     1       6.659   7.676  16.781  0.00  0.00    +0.000 OA
BRANCH  10  11
ATOM     11  C   UNL     1       7.763   7.804  17.678  0.00  0.00    +0.000 C 
BRANCH  11  13
ATOM     12  C   UNL     1       8.972   9.737  18.728  0.00  0.00    +0.000 C 
ATOM     13  C   UNL     1       8.034   9.260  17.895  0.00  0.00    +0.000 C 
ENDBRANCH  11  13
ENDBRANCH  10  11
ENDBRANCH   1  10
BRANCH   4  14
ATOM     14  O   UNL     1       2.883   3.664  17.535  0.00  0.00    +0.000 OA
BRANCH  14  15
ATOM     15  C   UNL     1       2.468   3.399  18.823  0.00  0.00    +0.000 A 
ATOM     16  C   UNL     1       3.428   2.869  19.686  0.00  0.00    +0.000 A 
ATOM     17  C   UNL     1       3.093   2.570  21.008  0.00  0.00    +0.000 A 
ATOM     18  C   UNL     1       1.798   2.802  21.470  0.00  0.00    +0.000 A 
ATOM     19  C   UNL     1       0.844   3.359  20.619  0.00  0.00    +0.000 A 
ATOM     20  C   UNL     1       1.185   3.682  19.305  0.00  0.00    +0.000 A 
ENDBRANCH  14  15
ENDBRANCH   4  14
TORSDOF 6
ENDMDL
MODEL 2
REMARK VINA RESULT:      -7.7      0.285      1.108
REMARK  Name = 
REMARK  6 active torsions:
REMARK  status: ('A' for Active; 'I' for Inactive)
REMARK    1  A    between atoms: C_2  and  C_3
REMARK    2  A    between atoms: C_3  and  O_4
REMARK    3  A    between atoms: O_4  and  C_5
REMARK    4  A    between atoms: C_8  and  O_9
REMARK    5  A    between atoms: O_9  and  C_10
REMARK    6  A    between atoms: C_17  and  N_18
REMARK                            x       y       z     vdW  Elec       q    Type
REMARK                         _______ _______ _______ _____ _____    ______ ____
ROOT
ATOM      1  C   UNL     1       5.769   6.433  16.934  0.00  0.00    +0.000 A 
ATOM      2  C   UNL     1       4.522   6.748  17.488  0.00  0.00    +0.000 A 
ATOM      3  C   UNL     1       3.543   5.761  17.679  0.00  0.00    +0.000 A 
ATOM      4  C   UNL     1       3.800   4.436  17.326  0.00  0.00    +0.000 A 
ATOM      5  C   UNL     1       5.065   4.086  16.860  0.00  0.00    +0.000 A 
ATOM      6  C   UNL     1       6.025   5.086  16.658  0.00  0.00    +0.000 A 
ENDROOT
BRANCH   6   7
ATOM      7  N   UNL     1       7.307   4.631  16.180  0.00  0.00    +0.000 N 
ATOM      8  O   UNL     1       7.557   4.792  14.982  0.00  0.00    +0.000 OA
ATOM      9  O   UNL     1       8.067   4.124  17.019  0.00  0.00    +0.000 OA
ENDBRANCH   6   7
BRANCH   1  10
ATOM     10  O   UNL     1       6.589   7.516  16.779  0.00  0.00    +0.000 OA
BRANCH  10  11
ATOM     11  C   UNL     1       7.657   7.672  17.714  0.00  0.00    +0.000 C 
BRANCH  11  13
ATOM     12  C   UNL     1       8.667   9.814  18.547  0.00  0.00    +0.000 C 
ATOM     13  C   UNL     1       8.249   9.035  17.537  0.00  0.00    +0.000 C 
ENDBRANCH  11  13
ENDBRANCH  10  11
ENDBRANCH   1  10
BRANCH   4  14
ATOM     14  O   UNL     1       2.781   3.532  17.524  0.00  0.00    +0.000 OA
BRANCH  14  15
ATOM     15  C   UNL     1       2.400   3.222  18.812  0.00  0.00    +0.000 A 
ATOM     16  C   UNL     1       1.034   3.293  19.087  0.00  0.00    +0.000 A 
ATOM     17  C   UNL     1       0.560   2.995  20.367  0.00  0.00    +0.000 A 
ATOM     18  C   UNL     1       1.453   2.624  21.373  0.00  0.00    +0.000 A 
ATOM     19  C   UNL     1       2.815   2.523  21.093  0.00  0.00    +0.000 A 
ATOM     20  C   UNL     1       3.286   2.796  19.808  0.00  0.00    +0.000 A 
ENDBRANCH  14  15
ENDBRANCH   4  14
TORSDOF 6
ENDMDL
MODEL 3
REMARK VINA RESULT:      -7.5      2.195      3.341
REMARK  Name = 
REMARK  6 active torsions:
REMARK  status: ('A' for Active; 'I' for Inactive)
REMARK    1  A    between atoms: C_2  and  C_3
REMARK    2  A    between atoms: C_3  and  O_4
REMARK    3  A    between atoms: O_4  and  C_5
REMARK    4  A    between atoms: C_8  and  O_9
REMARK    5  A    between atoms: O_9  and  C_10
REMARK    6  A    between atoms: C_17  and  N_18
REMARK                            x       y       z     vdW  Elec       q    Type
REMARK                         _______ _______ _______ _____ _____    ______ ____
ROOT
ATOM      1  C   UNL     1       6.534   5.857  16.434  0.00  0.00    +0.000 A 
ATOM      2  C   UNL     1       5.383   6.502  15.963  0.00  0.00    +0.000 A 
ATOM      3  C   UNL     1       4.253   6.654  16.781  0.00  0.00    +0.000 A 
ATOM      4  C   UNL     1       4.259   6.171  18.089  0.00  0.00    +0.000 A 
ATOM      5  C   UNL     1       5.425   5.610  18.605  0.00  0.00    +0.000 A 
ATOM      6  C   UNL     1       6.539   5.448  17.771  0.00  0.00    +0.000 A 
ENDROOT
BRANCH   6   7
ATOM      7  N   UNL     1       7.703   4.865  18.391  0.00  0.00    +0.000 N 
ATOM      8  O   UNL     1       8.340   4.034  17.737  0.00  0.00    +0.000 OA
ATOM      9  O   UNL     1       7.981   5.258  19.534  0.00  0.00    +0.000 OA
ENDBRANCH   6   7
BRANCH   1  10
ATOM     10  O   UNL     1       7.527   5.758  15.498  0.00  0.00    +0.000 OA
BRANCH  10  11
ATOM     11  C   UNL     1       7.157   5.324  14.189  0.00  0.00    +0.000 C 
BRANCH  11  13
ATOM     12  C   UNL     1       5.549   3.564  13.401  0.00  0.00    +0.000 C 
ATOM     13  C   UNL     1       6.426   4.023  14.307  0.00  0.00    +0.000 C 
ENDBRANCH  11  13
ENDBRANCH  10  11
ENDBRANCH   1  10
BRANCH   4  14
ATOM     14  O   UNL     1       3.104   6.340  18.819  0.00  0.00    +0.000 OA
BRANCH  14  15
ATOM     15  C   UNL     1       2.368   5.230  19.175  0.00  0.00    +0.000 A 
ATOM     16  C   UNL     1       1.966   4.394  18.132  0.00  0.00    +0.000 A 
ATOM     17  C   UNL     1       1.216   3.247  18.404  0.00  0.00    +0.000 A 
ATOM     18  C   UNL     1       0.868   2.935  19.718  0.00  0.00    +0.000 A 
ATOM     19  C   UNL     1       1.293   3.753  20.764  0.00  0.00    +0.000 A 
ATOM     20  C   UNL     1       2.064   4.884  20.497  0.00  0.00    +0.000 A 
ENDBRANCH  14  15
ENDBRANCH   4  14
TORSDOF 6
ENDMDL
MODEL 4
REMARK VINA RESULT:      -7.5      2.175      3.296
REMARK  Name = 
REMARK  6 active torsions:
REMARK  status: ('A' for Active; 'I' for Inactive)
REMARK    1  A    between atoms: C_2  and  C_3
REMARK    2  A    between atoms: C_3  and  O_4
REMARK    3  A    between atoms: O_4  and  C_5
REMARK    4  A    between atoms: C_8  and  O_9
REMARK    5  A    between atoms: O_9  and  C_10
REMARK    6  A    between atoms: C_17  and  N_18
REMARK                            x       y       z     vdW  Elec       q    Type
REMARK                         _______ _______ _______ _____ _____    ______ ____
ROOT
ATOM      1  C   UNL     1       6.422   5.788  16.509  0.00  0.00    +0.000 A 
ATOM      2  C   UNL     1       5.214   6.384  16.123  0.00  0.00    +0.000 A 
ATOM      3  C   UNL     1       4.155   6.531  17.033  0.00  0.00    +0.000 A 
ATOM      4  C   UNL     1       4.292   6.092  18.350  0.00  0.00    +0.000 A 
ATOM      5  C   UNL     1       5.515   5.582  18.777  0.00  0.00    +0.000 A 
ATOM      6  C   UNL     1       6.556   5.424  17.852  0.00  0.00    +0.000 A 
ENDROOT
BRANCH   6   7
ATOM      7  N   UNL     1       7.788   4.895  18.384  0.00  0.00    +0.000 N 
ATOM      8  O   UNL     1       8.160   5.316  19.483  0.00  0.00    +0.000 OA
ATOM      9  O   UNL     1       8.372   4.044  17.697  0.00  0.00    +0.000 OA
ENDBRANCH   6   7
BRANCH   1  10
ATOM     10  O   UNL     1       7.331   5.687  15.492  0.00  0.00    +0.000 OA
BRANCH  10  11
ATOM     11  C   UNL     1       7.042   4.765  14.440  0.00  0.00    +0.000 C 
BRANCH  11  13
ATOM     12  C   UNL     1       7.470   4.744  11.967  0.00  0.00    +0.000 C 
ATOM     13  C   UNL     1       7.697   5.255  13.186  0.00  0.00    +0.000 C 
ENDBRANCH  11  13
ENDBRANCH  10  11
ENDBRANCH   1  10
BRANCH   4  14
ATOM     14  O   UNL     1       3.201   6.251  19.173  0.00  0.00    +0.000 OA
BRANCH  14  15
ATOM     15  C   UNL     1       2.465   5.142  19.533  0.00  0.00    +0.000 A 
ATOM     16  C   UNL     1       1.899   4.410  18.489  0.00  0.00    +0.000 A 
ATOM     17  C   UNL     1       1.137   3.272  18.764  0.00  0.00    +0.000 A 
ATOM     18  C   UNL     1       0.941   2.864  20.083  0.00  0.00    +0.000 A 
ATOM     19  C   UNL     1       1.529   3.578  21.127  0.00  0.00    +0.000 A 
ATOM     20  C   UNL     1       2.312   4.699  20.852  0.00  0.00    +0.000 A 
ENDBRANCH  14  15
ENDBRANCH   4  14
TORSDOF 6
ENDMDL
MODEL 5
REMARK VINA RESULT:      -7.4      1.145      1.379
REMARK  Name = 
REMARK  6 active torsions:
REMARK  status: ('A' for Active; 'I' for Inactive)
REMARK    1  A    between atoms: C_2  and  C_3
REMARK    2  A    between atoms: C_3  and  O_4
REMARK    3  A    between atoms: O_4  and  C_5
REMARK    4  A    between atoms: C_8  and  O_9
REMARK    5  A    between atoms: O_9  and  C_10
REMARK    6  A    between atoms: C_17  and  N_18
REMARK                            x       y       z     vdW  Elec       q    Type
REMARK                         _______ _______ _______ _____ _____    ______ ____
ROOT
ATOM      1  C   UNL     1       6.431   6.867  17.206  0.00  0.00    +0.000 A 
ATOM      2  C   UNL     1       5.213   7.547  17.086  0.00  0.00    +0.000 A 
ATOM      3  C   UNL     1       3.990   6.877  17.242  0.00  0.00    +0.000 A 
ATOM      4  C   UNL     1       3.966   5.513  17.531  0.00  0.00    +0.000 A 
ATOM      5  C   UNL     1       5.166   4.839  17.746  0.00  0.00    +0.000 A 
ATOM      6  C   UNL     1       6.379   5.518  17.568  0.00  0.00    +0.000 A 
ENDROOT
BRANCH   6   7
ATOM      7  N   UNL     1       7.569   4.744  17.819  0.00  0.00    +0.000 N 
ATOM      8  O   UNL     1       8.071   4.147  16.862  0.00  0.00    +0.000 OA
ATOM      9  O   UNL     1       8.005   4.751  18.980  0.00  0.00    +0.000 OA
ENDBRANCH   6   7
BRANCH   1  10
ATOM     10  O   UNL     1       7.524   7.659  16.985  0.00  0.00    +0.000 OA
BRANCH  10  11
ATOM     11  C   UNL     1       8.197   8.187  18.129  0.00  0.00    +0.000 C 
BRANCH  11  13
ATOM     12  C   UNL     1       9.207  10.467  18.416  0.00  0.00    +0.000 C 
ATOM     13  C   UNL     1       8.187   9.681  18.040  0.00  0.00    +0.000 C 
ENDBRANCH  11  13
ENDBRANCH  10  11
ENDBRANCH   1  10
BRANCH   4  14
ATOM     14  O   UNL     1       2.728   4.924  17.647  0.00  0.00    +0.000 OA
BRANCH  14  15
ATOM     15  C   UNL     1       2.357   4.372  18.854  0.00  0.00    +0.000 A 
ATOM     16  C   UNL     1       1.838   3.077  18.810  0.00  0.00    +0.000 A 
ATOM     17  C   UNL     1       1.438   2.442  19.988  0.00  0.00    +0.000 A 
ATOM     18  C   UNL     1       1.556   3.101  21.211  0.00  0.00    +0.000 A 
ATOM     19  C   UNL     1       2.102   4.383  21.262  0.00  0.00    +0.000 A 
ATOM     20  C   UNL     1       2.526   5.008  20.090  0.00  0.00    +0.000 A 
ENDBRANCH  14  15
ENDBRANCH   4  14
TORSDOF 6
ENDMDL
MODEL 6
REMARK VINA RESULT:      -7.4      1.186      1.273
REMARK  Name = 
REMARK  6 active torsions:
REMARK  status: ('A' for Active; 'I' for Inactive)
REMARK    1  A    between atoms: C_2  and  C_3
REMARK    2  A    between atoms: C_3  and  O_4
REMARK    3  A    between atoms: O_4  and  C_5
REMARK    4  A    between atoms: C_8  and  O_9
REMARK    5  A    between atoms: O_9  and  C_10
REMARK    6  A    between atoms: C_17  and  N_18
REMARK                            x       y       z     vdW  Elec       q    Type
REMARK                         _______ _______ _______ _____ _____    ______ ____
ROOT
ATOM      1  C   UNL     1       6.514   5.871  16.976  0.00  0.00    +0.000 A 
ATOM      2  C   UNL     1       6.012   5.718  18.274  0.00  0.00    +0.000 A 
ATOM      3  C   UNL     1       5.145   4.662  18.597  0.00  0.00    +0.000 A 
ATOM      4  C   UNL     1       4.773   3.734  17.625  0.00  0.00    +0.000 A 
ATOM      5  C   UNL     1       5.334   3.816  16.352  0.00  0.00    +0.000 A 
ATOM      6  C   UNL     1       6.183   4.886  16.041  0.00  0.00    +0.000 A 
ENDROOT
BRANCH   6   7
ATOM      7  N   UNL     1       6.722   4.885  14.703  0.00  0.00    +0.000 N 
ATOM      8  O   UNL     1       6.041   4.362  13.816  0.00  0.00    +0.000 OA
ATOM      9  O   UNL     1       7.826   5.426  14.547  0.00  0.00    +0.000 OA
ENDBRANCH   6   7
BRANCH   1  10
ATOM     10  O   UNL     1       7.310   6.972  16.823  0.00  0.00    +0.000 OA
BRANCH  10  11
ATOM     11  C   UNL     1       7.896   7.530  18.000  0.00  0.00    +0.000 C 
BRANCH  11  13
ATOM     12  C   UNL     1       8.839   9.796  18.526  0.00  0.00    +0.000 C 
ATOM     13  C   UNL     1       8.014   9.011  17.817  0.00  0.00    +0.000 C 
ENDBRANCH  11  13
ENDBRANCH  10  11
ENDBRANCH   1  10
BRANCH   4  14
ATOM     14  O   UNL     1       3.903   2.742  18.014  0.00  0.00    +0.000 OA
BRANCH  14  15
ATOM     15  C   UNL     1       3.016   2.992  19.040  0.00  0.00    +0.000 A 
ATOM     16  C   UNL     1       3.388   2.534  20.304  0.00  0.00    +0.000 A 
ATOM     17  C   UNL     1       2.548   2.745  21.401  0.00  0.00    +0.000 A 
ATOM     18  C   UNL     1       1.336   3.415  21.234  0.00  0.00    +0.000 A 
ATOM     19  C   UNL     1       0.976   3.900  19.977  0.00  0.00    +0.000 A 
ATOM     20  C   UNL     1       1.826   3.712  18.886  0.00  0.00    +0.000 A 
ENDBRANCH  14  15
ENDBRANCH   4  14
TORSDOF 6
ENDMDL
MODEL 7
REMARK VINA RESULT:      -7.4      1.354      1.736
REMARK  Name = 
REMARK  6 active torsions:
REMARK  status: ('A' for Active; 'I' for Inactive)
REMARK    1  A    between atoms: C_2  and  C_3
REMARK    2  A    between atoms: C_3  and  O_4
REMARK    3  A    between atoms: O_4  and  C_5
REMARK    4  A    between atoms: C_8  and  O_9
REMARK    5  A    between atoms: O_9  and  C_10
REMARK    6  A    between atoms: C_17  and  N_18
REMARK                            x       y       z     vdW  Elec       q    Type
REMARK                         _______ _______ _______ _____ _____    ______ ____
ROOT
ATOM      1  C   UNL     1       6.661   6.651  17.197  0.00  0.00    +0.000 A 
ATOM      2  C   UNL     1       5.433   7.092  16.686  0.00  0.00    +0.000 A 
ATOM      3  C   UNL     1       4.289   6.282  16.751  0.00  0.00    +0.000 A 
ATOM      4  C   UNL     1       4.352   5.018  17.338  0.00  0.00    +0.000 A 
ATOM      5  C   UNL     1       5.540   4.600  17.933  0.00  0.00    +0.000 A 
ATOM      6  C   UNL     1       6.678   5.412  17.844  0.00  0.00    +0.000 A 
ENDROOT
BRANCH   6   7
ATOM      7  N   UNL     1       7.860   4.903  18.495  0.00  0.00    +0.000 N 
ATOM      8  O   UNL     1       8.112   5.323  19.628  0.00  0.00    +0.000 OA
ATOM      9  O   UNL     1       8.526   4.066  17.866  0.00  0.00    +0.000 OA
ENDBRANCH   6   7
BRANCH   1  10
ATOM     10  O   UNL     1       7.681   7.545  17.017  0.00  0.00    +0.000 OA
BRANCH  10  11
ATOM     11  C   UNL     1       7.549   8.827  17.632  0.00  0.00    +0.000 C 
BRANCH  11  13
ATOM     12  C   UNL     1       9.164  10.178  19.000  0.00  0.00    +0.000 C 
ATOM     13  C   UNL     1       8.656   8.994  18.626  0.00  0.00    +0.000 C 
ENDBRANCH  11  13
ENDBRANCH  10  11
ENDBRANCH   1  10
BRANCH   4  14
ATOM     14  O   UNL     1       3.193   4.277  17.341  0.00  0.00    +0.000 OA
BRANCH  14  15
ATOM     15  C   UNL     1       2.585   3.989  18.544  0.00  0.00    +0.000 A 
ATOM     16  C   UNL     1       2.260   5.081  19.350  0.00  0.00    +0.000 A 
ATOM     17  C   UNL     1       1.641   4.881  20.586  0.00  0.00    +0.000 A 
ATOM     18  C   UNL     1       1.346   3.588  21.018  0.00  0.00    +0.000 A 
ATOM     19  C   UNL     1       1.642   2.497  20.202  0.00  0.00    +0.000 A 
ATOM     20  C   UNL     1       2.236   2.697  18.956  0.00  0.00    +0.000 A 
ENDBRANCH  14  15
ENDBRANCH   4  14
TORSDOF 6
ENDMDL
MODEL 8
REMARK VINA RESULT:      -7.3      1.264      1.736
REMARK  Name = 
REMARK  6 active torsions:
REMARK  status: ('A' for Active; 'I' for Inactive)
REMARK    1  A    between atoms: C_2  and  C_3
REMARK    2  A    between atoms: C_3  and  O_4
REMARK    3  A    between atoms: O_4  and  C_5
REMARK    4  A    between atoms: C_8  and  O_9
REMARK    5  A    between atoms: O_9  and  C_10
REMARK    6  A    between atoms: C_17  and  N_18
REMARK                            x       y       z     vdW  Elec       q    Type
REMARK                         _______ _______ _______ _____ _____    ______ ____
ROOT
ATOM      1  C   UNL     1       6.801   5.314  17.214  0.00  0.00    +0.000 A 
ATOM      2  C   UNL     1       6.222   5.114  18.473  0.00  0.00    +0.000 A 
ATOM      3  C   UNL     1       5.083   4.308  18.627  0.00  0.00    +0.000 A 
ATOM      4  C   UNL     1       4.509   3.681  17.521  0.00  0.00    +0.000 A 
ATOM      5  C   UNL     1       5.124   3.793  16.277  0.00  0.00    +0.000 A 
ATOM      6  C   UNL     1       6.249   4.615  16.136  0.00  0.00    +0.000 A 
ENDROOT
BRANCH   6   7
ATOM      7  N   UNL     1       6.823   4.665  14.814  0.00  0.00    +0.000 N 
ATOM      8  O   UNL     1       7.581   5.606  14.558  0.00  0.00    +0.000 OA
ATOM      9  O   UNL     1       6.519   3.746  14.039  0.00  0.00    +0.000 OA
ENDBRANCH   6   7
BRANCH   1  10
ATOM     10  O   UNL     1       7.879   6.156  17.235  0.00  0.00    +0.000 OA
BRANCH  10  11
ATOM     11  C   UNL     1       7.945   7.113  18.292  0.00  0.00    +0.000 C 
BRANCH  11  13
ATOM     12  C   UNL     1       8.532   9.554  18.243  0.00  0.00    +0.000 C 
ATOM     13  C   UNL     1       7.935   8.486  17.693  0.00  0.00    +0.000 C 
ENDBRANCH  11  13
ENDBRANCH  10  11
ENDBRANCH   1  10
BRANCH   4  14
ATOM     14  O   UNL     1       3.381   2.928  17.751  0.00  0.00    +0.000 OA
BRANCH  14  15
ATOM     15  C   UNL     1       2.750   3.019  18.974  0.00  0.00    +0.000 A 
ATOM     16  C   UNL     1       1.536   3.706  18.994  0.00  0.00    +0.000 A 
ATOM     17  C   UNL     1       0.830   3.847  20.191  0.00  0.00    +0.000 A 
ATOM     18  C   UNL     1       1.337   3.300  21.369  0.00  0.00    +0.000 A 
ATOM     19  C   UNL     1       2.536   2.588  21.347  0.00  0.00    +0.000 A 
ATOM     20  C   UNL     1       3.229   2.425  20.147  0.00  0.00    +0.000 A 
ENDBRANCH  14  15
ENDBRANCH   4  14
TORSDOF 6
ENDMDL
MODEL 9
REMARK VINA RESULT:      -7.3      2.127      3.188
REMARK  Name = 
REMARK  6 active torsions:
REMARK  status: ('A' for Active; 'I' for Inactive)
REMARK    1  A    between atoms: C_2  and  C_3
REMARK    2  A    between atoms: C_3  and  O_4
REMARK    3  A    between atoms: O_4  and  C_5
REMARK    4  A    between atoms: C_8  and  O_9
REMARK    5  A    between atoms: O_9  and  C_10
REMARK    6  A    between atoms: C_17  and  N_18
REMARK                            x       y       z     vdW  Elec       q    Type
REMARK                         _______ _______ _______ _____ _____    ______ ____
ROOT
ATOM      1  C   UNL     1       6.420   5.932  16.683  0.00  0.00    +0.000 A 
ATOM      2  C   UNL     1       5.204   6.535  16.340  0.00  0.00    +0.000 A 
ATOM      3  C   UNL     1       4.135   6.578  17.248  0.00  0.00    +0.000 A 
ATOM      4  C   UNL     1       4.269   6.025  18.521  0.00  0.00    +0.000 A 
ATOM      5  C   UNL     1       5.500   5.503  18.913  0.00  0.00    +0.000 A 
ATOM      6  C   UNL     1       6.551   5.451  17.989  0.00  0.00    +0.000 A 
ENDROOT
BRANCH   6   7
ATOM      7  N   UNL     1       7.789   4.901  18.484  0.00  0.00    +0.000 N 
ATOM      8  O   UNL     1       8.362   4.064  17.780  0.00  0.00    +0.000 OA
ATOM      9  O   UNL     1       8.190   5.326  19.578  0.00  0.00    +0.000 OA
ENDBRANCH   6   7
BRANCH   1  10
ATOM     10  O   UNL     1       7.340   5.940  15.671  0.00  0.00    +0.000 OA
BRANCH  10  11
ATOM     11  C   UNL     1       7.446   4.764  14.867  0.00  0.00    +0.000 C 
BRANCH  11  13
ATOM     12  C   UNL     1       5.628   3.748  13.466  0.00  0.00    +0.000 C 
ATOM     13  C   UNL     1       6.375   4.804  13.822  0.00  0.00    +0.000 C 
ENDBRANCH  11  13
ENDBRANCH  10  11
ENDBRANCH   1  10
BRANCH   4  14
ATOM     14  O   UNL     1       3.168   6.087  19.345  0.00  0.00    +0.000 OA
BRANCH  14  15
ATOM     15  C   UNL     1       2.436   4.942  19.573  0.00  0.00    +0.000 A 
ATOM     16  C   UNL     1       2.277   4.566  20.908  0.00  0.00    +0.000 A 
ATOM     17  C   UNL     1       1.549   3.418  21.230  0.00  0.00    +0.000 A 
ATOM     18  C   UNL     1       0.979   2.645  20.218  0.00  0.00    +0.000 A 
ATOM     19  C   UNL     1       1.112   3.035  18.886  0.00  0.00    +0.000 A 
ATOM     20  C   UNL     1       1.816   4.195  18.565  0.00  0.00    +0.000 A 
ENDBRANCH  14  15
ENDBRANCH   4  14
TORSDOF 6
ENDMDL
