MODEL 1
REMARK VINA RESULT:      -7.6      0.000      0.000
REMARK  Name = 
REMARK  10 active torsions:
REMARK  status: ('A' for Active; 'I' for Inactive)
REMARK    1  A    between atoms: C_1  and  C_2
REMARK    2  A    between atoms: C_2  and  C_3
REMARK    3  A    between atoms: C_7  and  C_8
REMARK    4  A    between atoms: C_8  and  C_9
REMARK    5  A    between atoms: C_10  and  N_11
REMARK    6  A    between atoms: C_12  and  C_14
REMARK    7  A    between atoms: C_17  and  C_18
REMARK    8  A    between atoms: C_18  and  N_19
REMARK    9  A    between atoms: N_19  and  S_20
REMARK   10  A    between atoms: S_20  and  C_23
REMARK                            x       y       z     vdW  Elec       q    Type
REMARK                         _______ _______ _______ _____ _____    ______ ____
ROOT
ATOM      1  C   UNL     1       2.140   8.964  19.345  0.00  0.00    +0.000 C 
ATOM      2  C   UNL     1       1.625  10.202  18.577  0.00  0.00    +0.000 C 
ATOM      3  C   UNL     1       0.094  10.297  18.463  0.00  0.00    +0.000 C 
ATOM      4  C   UNL     1      -0.618  10.143  19.817  0.00  0.00    +0.000 C 
ATOM      5  C   UNL     1      -0.143   8.851  20.502  0.00  0.00    +0.000 C 
ATOM      6  C   UNL     1       1.378   8.766  20.663  0.00  0.00    +0.000 C 
ENDROOT
BRANCH   1   8
ATOM      7  N   UNL     1       2.647   6.573  19.002  0.00  0.00    +0.000 N 
ATOM      8  C   UNL     1       2.062   7.707  18.459  0.00  0.00    +0.000 C 
ATOM      9  O   UNL     1       1.471   7.799  17.391  0.00  0.00    +0.000 OA
ATOM     10  H   UNL     1       3.006   6.718  19.934  0.00  0.00    +0.000 HD
BRANCH   7  16
ATOM     11  C   UNL     1       2.006   4.217  19.152  0.00  0.00    +0.000 A 
ATOM     12  C   UNL     1       2.033   2.878  18.701  0.00  0.00    +0.000 A 
ATOM     13  C   UNL     1       2.843   2.494  17.655  0.00  0.00    +0.000 A 
ATOM     14  C   UNL     1       3.652   3.442  17.054  0.00  0.00    +0.000 A 
ATOM     15  C   UNL     1       3.664   4.802  17.453  0.00  0.00    +0.000 A 
ATOM     16  C   UNL     1       2.799   5.226  18.507  0.00  0.00    +0.000 A 
BRANCH  11  18
ATOM     17  C   UNL     1       1.314   3.239  21.346  0.00  0.00    +0.000 C 
ATOM     18  C   UNL     1       1.169   4.425  20.401  0.00  0.00    +0.000 C 
ENDBRANCH  11  18
BRANCH  15  19
ATOM     19  C   UNL     1       4.634   5.704  16.717  0.00  0.00    +0.000 C 
ATOM     20  C   UNL     1       5.510   5.127  15.606  0.00  0.00    +0.000 C 
ENDBRANCH  15  19
ENDBRANCH   7  16
ENDBRANCH   1   8
BRANCH   4  21
ATOM     21  C   UNL     1      -0.402  11.432  20.625  0.00  0.00    +0.000 C 
BRANCH  21  22
ATOM     22  N   UNL     1      -1.658  12.024  21.093  0.00  0.00    +0.000 NA
ATOM     23  H   UNL     1      -2.529  11.550  20.857  0.00  0.00    +0.000 HD
BRANCH  22  24
ATOM     24  S   UNL     1      -1.692  12.501  22.717  0.00  0.00    +0.000 S 
ATOM     25  O   UNL     1      -1.193  11.354  23.445  0.00  0.00    +0.000 OA
ATOM     26  O   UNL     1      -1.045  13.785  22.850  0.00  0.00    +0.000 OA
BRANCH  24  27
ATOM     27  C   UNL     1      -3.405  12.632  23.058  0.00  0.00    +0.000 A 
ATOM     28  C   UNL     1      -3.888  12.299  24.346  0.00  0.00    +0.000 A 
ATOM     29  C   UNL     1      -5.248  12.405  24.713  0.00  0.00    +0.000 A 
ATOM     30  C   UNL     1      -6.242  12.855  23.832  0.00  0.00    +0.000 A 
ATOM     31  C   UNL     1      -5.813  13.210  22.526  0.00  0.00    +0.000 A 
ATOM     32  N   UNL     1      -6.605  13.663  21.543  0.00  0.00    +0.000 NA
ATOM     33  S   UNL     1      -5.626  13.934  20.232  0.00  0.00    +0.000 S 
ATOM     34  N   UNL     1      -4.162  13.470  20.846  0.00  0.00    +0.000 NA
ATOM     35  C   UNL     1      -4.357  13.099  22.123  0.00  0.00    +0.000 A 
ENDBRANCH  24  27
ENDBRANCH  22  24
ENDBRANCH  21  22
ENDBRANCH   4  21
TORSDOF 8
ENDMDL
MODEL 2
REMARK VINA RESULT:      -7.5      1.837      2.109
REMARK  Name = 
REMARK  10 active torsions:
REMARK  status: ('A' for Active; 'I' for Inactive)
REMARK    1  A    between atoms: C_1  and  C_2
REMARK    2  A    between atoms: C_2  and  C_3
REMARK    3  A    between atoms: C_7  and  C_8
REMARK    4  A    between atoms: C_8  and  C_9
REMARK    5  A    between atoms: C_10  and  N_11
REMARK    6  A    between atoms: C_12  and  C_14
REMARK    7  A    between atoms: C_17  and  C_18
REMARK    8  A    between atoms: C_18  and  N_19
REMARK    9  A    between atoms: N_19  and  S_20
REMARK   10  A    between atoms: S_20  and  C_23
REMARK                            x       y       z     vdW  Elec       q    Type
REMARK                         _______ _______ _______ _____ _____    ______ ____
ROOT
ATOM      1  C   UNL     1       1.918   9.628  19.389  0.00  0.00    +0.000 C 
ATOM      2  C   UNL     1       1.148  10.772  18.692  0.00  0.00    +0.000 C 
ATOM      3  C   UNL     1      -0.368  10.545  18.569  0.00  0.00    +0.000 C 
ATOM      4  C   UNL     1      -1.026  10.160  19.904  0.00  0.00    +0.000 C 
ATOM      5  C   UNL     1      -0.283   8.960  20.514  0.00  0.00    +0.000 C 
ATOM      6  C   UNL     1       1.221   9.192  20.685  0.00  0.00    +0.000 C 
ENDROOT
BRANCH   1   8
ATOM      7  N   UNL     1       2.638   7.298  19.010  0.00  0.00    +0.000 N 
ATOM      8  C   UNL     1       2.108   8.440  18.427  0.00  0.00    +0.000 C 
ATOM      9  O   UNL     1       1.749   8.585  17.267  0.00  0.00    +0.000 OA
ATOM     10  H   UNL     1       2.784   7.389  20.004  0.00  0.00    +0.000 HD
BRANCH   7  16
ATOM     11  C   UNL     1       2.276   4.879  19.031  0.00  0.00    +0.000 A 
ATOM     12  C   UNL     1       2.486   3.574  18.532  0.00  0.00    +0.000 A 
ATOM     13  C   UNL     1       3.391   3.334  17.521  0.00  0.00    +0.000 A 
ATOM     14  C   UNL     1       4.112   4.397  17.005  0.00  0.00    +0.000 A 
ATOM     15  C   UNL     1       3.940   5.730  17.456  0.00  0.00    +0.000 A 
ATOM     16  C   UNL     1       2.976   6.002  18.473  0.00  0.00    +0.000 A 
BRANCH  11  18
ATOM     17  C   UNL     1       1.105   3.531  20.780  0.00  0.00    +0.000 C 
ATOM     18  C   UNL     1       1.354   4.932  20.237  0.00  0.00    +0.000 C 
ENDBRANCH  11  18
BRANCH  15  19
ATOM     19  C   UNL     1       4.834   6.772  16.813  0.00  0.00    +0.000 C 
ATOM     20  C   UNL     1       6.326   6.796  17.143  0.00  0.00    +0.000 C 
ENDBRANCH  15  19
ENDBRANCH   7  16
ENDBRANCH   1   8
BRANCH   4  21
ATOM     21  C   UNL     1      -1.089  11.413  20.791  0.00  0.00    +0.000 C 
BRANCH  21  22
ATOM     22  N   UNL     1      -1.761  12.538  20.137  0.00  0.00    +0.000 NA
ATOM     23  H   UNL     1      -2.181  12.378  19.221  0.00  0.00    +0.000 HD
BRANCH  22  24
ATOM     24  S   UNL     1      -2.828  13.427  21.104  0.00  0.00    +0.000 S 
ATOM     25  O   UNL     1      -2.508  13.033  22.460  0.00  0.00    +0.000 OA
ATOM     26  O   UNL     1      -2.775  14.817  20.718  0.00  0.00    +0.000 OA
BRANCH  24  27
ATOM     27  C   UNL     1      -4.390  12.735  20.714  0.00  0.00    +0.000 A 
ATOM     28  C   UNL     1      -5.421  12.749  21.683  0.00  0.00    +0.000 A 
ATOM     29  C   UNL     1      -6.717  12.240  21.441  0.00  0.00    +0.000 A 
ATOM     30  C   UNL     1      -7.097  11.679  20.213  0.00  0.00    +0.000 A 
ATOM     31  C   UNL     1      -6.103  11.645  19.200  0.00  0.00    +0.000 A 
ATOM     32  N   UNL     1      -6.269  11.155  17.964  0.00  0.00    +0.000 NA
ATOM     33  S   UNL     1      -4.824  11.354  17.176  0.00  0.00    +0.000 S 
ATOM     34  N   UNL     1      -3.920  12.051  18.373  0.00  0.00    +0.000 NA
ATOM     35  C   UNL     1      -4.711  12.188  19.451  0.00  0.00    +0.000 A 
ENDBRANCH  24  27
ENDBRANCH  22  24
ENDBRANCH  21  22
ENDBRANCH   4  21
TORSDOF 8
ENDMDL
MODEL 3
REMARK VINA RESULT:      -7.4      0.930      1.078
REMARK  Name = 
REMARK  10 active torsions:
REMARK  status: ('A' for Active; 'I' for Inactive)
REMARK    1  A    between atoms: C_1  and  C_2
REMARK    2  A    between atoms: C_2  and  C_3
REMARK    3  A    between atoms: C_7  and  C_8
REMARK    4  A    between atoms: C_8  and  C_9
REMARK    5  A    between atoms: C_10  and  N_11
REMARK    6  A    between atoms: C_12  and  C_14
REMARK    7  A    between atoms: C_17  and  C_18
REMARK    8  A    between atoms: C_18  and  N_19
REMARK    9  A    between atoms: N_19  and  S_20
REMARK   10  A    between atoms: S_20  and  C_23
REMARK                            x       y       z     vdW  Elec       q    Type
REMARK                         _______ _______ _______ _____ _____    ______ ____
ROOT
ATOM      1  C   UNL     1       2.078   9.124  19.583  0.00  0.00    +0.000 C 
ATOM      2  C   UNL     1       1.427  10.364  18.929  0.00  0.00    +0.000 C 
ATOM      3  C   UNL     1      -0.108  10.310  18.834  0.00  0.00    +0.000 C 
ATOM      4  C   UNL     1      -0.779   9.966  20.174  0.00  0.00    +0.000 C 
ATOM      5  C   UNL     1      -0.163   8.676  20.740  0.00  0.00    +0.000 C 
ATOM      6  C   UNL     1       1.361   8.735  20.883  0.00  0.00    +0.000 C 
ENDROOT
BRANCH   1   8
ATOM      7  N   UNL     1       2.634   6.768  19.104  0.00  0.00    +0.000 N 
ATOM      8  C   UNL     1       2.115   7.947  18.590  0.00  0.00    +0.000 C 
ATOM      9  O   UNL     1       1.660   8.133  17.470  0.00  0.00    +0.000 OA
ATOM     10  H   UNL     1       2.875   6.831  20.081  0.00  0.00    +0.000 HD
BRANCH   7  16
ATOM     11  C   UNL     1       2.010   4.405  18.995  0.00  0.00    +0.000 A 
ATOM     12  C   UNL     1       2.099   3.107  18.442  0.00  0.00    +0.000 A 
ATOM     13  C   UNL     1       3.015   2.814  17.456  0.00  0.00    +0.000 A 
ATOM     14  C   UNL     1       3.869   3.811  17.020  0.00  0.00    +0.000 A 
ATOM     15  C   UNL     1       3.823   5.134  17.527  0.00  0.00    +0.000 A 
ATOM     16  C   UNL     1       2.852   5.467  18.519  0.00  0.00    +0.000 A 
BRANCH  11  18
ATOM     17  C   UNL     1       1.441   3.529  21.266  0.00  0.00    +0.000 C 
ATOM     18  C   UNL     1       1.049   4.507  20.166  0.00  0.00    +0.000 C 
ENDBRANCH  11  18
BRANCH  15  19
ATOM     19  C   UNL     1       4.852   6.098  16.969  0.00  0.00    +0.000 C 
ATOM     20  C   UNL     1       5.278   5.987  15.506  0.00  0.00    +0.000 C 
ENDBRANCH  15  19
ENDBRANCH   7  16
ENDBRANCH   1   8
BRANCH   4  21
ATOM     21  C   UNL     1      -0.684  11.196  21.091  0.00  0.00    +0.000 C 
BRANCH  21  22
ATOM     22  N   UNL     1      -1.107  12.431  20.428  0.00  0.00    +0.000 NA
ATOM     23  H   UNL     1      -1.896  12.384  19.785  0.00  0.00    +0.000 HD
BRANCH  22  24
ATOM     24  S   UNL     1      -1.269  13.789  21.426  0.00  0.00    +0.000 S 
ATOM     25  O   UNL     1      -0.160  13.696  22.353  0.00  0.00    +0.000 OA
ATOM     26  O   UNL     1      -1.435  14.966  20.606  0.00  0.00    +0.000 OA
BRANCH  24  27
ATOM     27  C   UNL     1      -2.733  13.450  22.327  0.00  0.00    +0.000 A 
ATOM     28  C   UNL     1      -2.761  13.676  23.723  0.00  0.00    +0.000 A 
ATOM     29  C   UNL     1      -3.909  13.458  24.519  0.00  0.00    +0.000 A 
ATOM     30  C   UNL     1      -5.125  13.000  23.991  0.00  0.00    +0.000 A 
ATOM     31  C   UNL     1      -5.156  12.763  22.591  0.00  0.00    +0.000 A 
ATOM     32  N   UNL     1      -6.219  12.328  21.900  0.00  0.00    +0.000 NA
ATOM     33  S   UNL     1      -5.742  12.220  20.316  0.00  0.00    +0.000 S 
ATOM     34  N   UNL     1      -4.164  12.699  20.441  0.00  0.00    +0.000 NA
ATOM     35  C   UNL     1      -3.930  12.993  21.731  0.00  0.00    +0.000 A 
ENDBRANCH  24  27
ENDBRANCH  22  24
ENDBRANCH  21  22
ENDBRANCH   4  21
TORSDOF 8
ENDMDL
MODEL 4
REMARK VINA RESULT:      -7.4      4.248     10.707
REMARK  Name = 
REMARK  10 active torsions:
REMARK  status: ('A' for Active; 'I' for Inactive)
REMARK    1  A    between atoms: C_1  and  C_2
REMARK    2  A    between atoms: C_2  and  C_3
REMARK    3  A    between atoms: C_7  and  C_8
REMARK    4  A    between atoms: C_8  and  C_9
REMARK    5  A    between atoms: C_10  and  N_11
REMARK    6  A    between atoms: C_12  and  C_14
REMARK    7  A    between atoms: C_17  and  C_18
REMARK    8  A    between atoms: C_18  and  N_19
REMARK    9  A    between atoms: N_19  and  S_20
REMARK   10  A    between atoms: S_20  and  C_23
REMARK                            x       y       z     vdW  Elec       q    Type
REMARK                         _______ _______ _______ _____ _____    ______ ____
ROOT
ATOM      1  C   UNL     1       1.579   9.128  20.370  0.00  0.00    +0.000 C 
ATOM      2  C   UNL     1       1.847   7.752  21.022  0.00  0.00    +0.000 C 
ATOM      3  C   UNL     1       1.395   6.545  20.183  0.00  0.00    +0.000 C 
ATOM      4  C   UNL     1       1.918   6.590  18.739  0.00  0.00    +0.000 C 
ATOM      5  C   UNL     1       1.549   7.940  18.102  0.00  0.00    +0.000 C 
ATOM      6  C   UNL     1       2.034   9.150  18.904  0.00  0.00    +0.000 C 
ENDROOT
BRANCH   1   8
ATOM      7  N   UNL     1      -0.348  10.460  19.594  0.00  0.00    +0.000 N 
ATOM      8  C   UNL     1       0.093   9.508  20.502  0.00  0.00    +0.000 C 
ATOM      9  O   UNL     1      -0.570   8.927  21.350  0.00  0.00    +0.000 OA
ATOM     10  H   UNL     1       0.362  10.741  18.935  0.00  0.00    +0.000 HD
BRANCH   7  16
ATOM     11  C   UNL     1      -2.342  10.712  18.199  0.00  0.00    +0.000 A 
ATOM     12  C   UNL     1      -3.635  11.219  17.937  0.00  0.00    +0.000 A 
ATOM     13  C   UNL     1      -4.238  12.111  18.796  0.00  0.00    +0.000 A 
ATOM     14  C   UNL     1      -3.549  12.522  19.923  0.00  0.00    +0.000 A 
ATOM     15  C   UNL     1      -2.255  12.044  20.247  0.00  0.00    +0.000 A 
ATOM     16  C   UNL     1      -1.631  11.086  19.390  0.00  0.00    +0.000 A 
BRANCH  11  18
ATOM     17  C   UNL     1      -2.656   9.965  15.835  0.00  0.00    +0.000 C 
ATOM     18  C   UNL     1      -1.780   9.858  17.076  0.00  0.00    +0.000 C 
ENDBRANCH  11  18
BRANCH  15  19
ATOM     19  C   UNL     1      -1.623  12.622  21.498  0.00  0.00    +0.000 C 
ATOM     20  C   UNL     1      -2.471  13.455  22.458  0.00  0.00    +0.000 C 
ENDBRANCH  15  19
ENDBRANCH   7  16
ENDBRANCH   1   8
BRANCH   4  21
ATOM     21  C   UNL     1       3.420   6.263  18.758  0.00  0.00    +0.000 C 
BRANCH  21  22
ATOM     22  N   UNL     1       3.749   5.162  19.666  0.00  0.00    +0.000 NA
ATOM     23  H   UNL     1       3.098   4.954  20.423  0.00  0.00    +0.000 HD
BRANCH  22  24
ATOM     24  S   UNL     1       4.245   3.720  18.932  0.00  0.00    +0.000 S 
ATOM     25  O   UNL     1       5.210   3.155  19.852  0.00  0.00    +0.000 OA
ATOM     26  O   UNL     1       3.081   2.960  18.541  0.00  0.00    +0.000 OA
BRANCH  24  27
ATOM     27  C   UNL     1       5.127   4.272  17.523  0.00  0.00    +0.000 A 
ATOM     28  C   UNL     1       4.789   3.768  16.245  0.00  0.00    +0.000 A 
ATOM     29  C   UNL     1       5.429   4.183  15.056  0.00  0.00    +0.000 A 
ATOM     30  C   UNL     1       6.456   5.137  15.037  0.00  0.00    +0.000 A 
ATOM     31  C   UNL     1       6.833   5.683  16.292  0.00  0.00    +0.000 A 
ATOM     32  N   UNL     1       7.787   6.605  16.484  0.00  0.00    +0.000 NA
ATOM     33  S   UNL     1       7.833   6.907  18.114  0.00  0.00    +0.000 S 
ATOM     34  N   UNL     1       6.662   5.869  18.648  0.00  0.00    +0.000 NA
ATOM     35  C   UNL     1       6.153   5.244  17.573  0.00  0.00    +0.000 A 
ENDBRANCH  24  27
ENDBRANCH  22  24
ENDBRANCH  21  22
ENDBRANCH   4  21
TORSDOF 8
ENDMDL
MODEL 5
REMARK VINA RESULT:      -7.4      3.896      9.977
REMARK  Name = 
REMARK  10 active torsions:
REMARK  status: ('A' for Active; 'I' for Inactive)
REMARK    1  A    between atoms: C_1  and  C_2
REMARK    2  A    between atoms: C_2  and  C_3
REMARK    3  A    between atoms: C_7  and  C_8
REMARK    4  A    between atoms: C_8  and  C_9
REMARK    5  A    between atoms: C_10  and  N_11
REMARK    6  A    between atoms: C_12  and  C_14
REMARK    7  A    between atoms: C_17  and  C_18
REMARK    8  A    between atoms: C_18  and  N_19
REMARK    9  A    between atoms: N_19  and  S_20
REMARK   10  A    between atoms: S_20  and  C_23
REMARK                            x       y       z     vdW  Elec       q    Type
REMARK                         _______ _______ _______ _____ _____    ______ ____
ROOT
ATOM      1  C   UNL     1       1.353  10.106  19.643  0.00  0.00    +0.000 C 
ATOM      2  C   UNL     1       1.960   8.942  20.458  0.00  0.00    +0.000 C 
ATOM      3  C   UNL     1       1.766   7.550  19.833  0.00  0.00    +0.000 C 
ATOM      4  C   UNL     1       2.203   7.488  18.361  0.00  0.00    +0.000 C 
ATOM      5  C   UNL     1       1.502   8.607  17.572  0.00  0.00    +0.000 C 
ATOM      6  C   UNL     1       1.727  10.004  18.158  0.00  0.00    +0.000 C 
ENDROOT
BRANCH   1   8
ATOM      7  N   UNL     1      -0.847  10.969  18.929  0.00  0.00    +0.000 N 
ATOM      8  C   UNL     1      -0.174  10.160  19.834  0.00  0.00    +0.000 C 
ATOM      9  O   UNL     1      -0.662   9.473  20.721  0.00  0.00    +0.000 OA
ATOM     10  H   UNL     1      -0.241  11.377  18.234  0.00  0.00    +0.000 HD
BRANCH   7  16
ATOM     11  C   UNL     1      -2.932  10.649  17.690  0.00  0.00    +0.000 A 
ATOM     12  C   UNL     1      -4.316  10.853  17.489  0.00  0.00    +0.000 A 
ATOM     13  C   UNL     1      -5.037  11.702  18.298  0.00  0.00    +0.000 A 
ATOM     14  C   UNL     1      -4.380  12.374  19.314  0.00  0.00    +0.000 A 
ATOM     15  C   UNL     1      -2.997  12.205  19.574  0.00  0.00    +0.000 A 
ATOM     16  C   UNL     1      -2.243  11.297  18.772  0.00  0.00    +0.000 A 
BRANCH  11  18
ATOM     17  C   UNL     1      -2.977   9.989  15.280  0.00  0.00    +0.000 C 
ATOM     18  C   UNL     1      -2.276   9.798  16.618  0.00  0.00    +0.000 C 
ENDBRANCH  11  18
BRANCH  15  19
ATOM     19  C   UNL     1      -2.423  13.043  20.700  0.00  0.00    +0.000 C 
ATOM     20  C   UNL     1      -2.292  12.442  22.099  0.00  0.00    +0.000 C 
ENDBRANCH  15  19
ENDBRANCH   7  16
ENDBRANCH   1   8
BRANCH   4  21
ATOM     21  C   UNL     1       3.738   7.513  18.310  0.00  0.00    +0.000 C 
BRANCH  21  22
ATOM     22  N   UNL     1       4.351   6.586  19.264  0.00  0.00    +0.000 NA
ATOM     23  H   UNL     1       3.793   6.277  20.059  0.00  0.00    +0.000 HD
BRANCH  22  24
ATOM     24  S   UNL     1       5.163   5.261  18.592  0.00  0.00    +0.000 S 
ATOM     25  O   UNL     1       5.471   5.669  17.237  0.00  0.00    +0.000 OA
ATOM     26  O   UNL     1       6.219   4.846  19.485  0.00  0.00    +0.000 OA
BRANCH  24  27
ATOM     27  C   UNL     1       3.915   4.035  18.497  0.00  0.00    +0.000 A 
ATOM     28  C   UNL     1       3.727   3.322  17.289  0.00  0.00    +0.000 A 
ATOM     29  C   UNL     1       2.765   2.298  17.137  0.00  0.00    +0.000 A 
ATOM     30  C   UNL     1       1.911   1.895  18.174  0.00  0.00    +0.000 A 
ATOM     31  C   UNL     1       2.060   2.573  19.413  0.00  0.00    +0.000 A 
ATOM     32  N   UNL     1       1.345   2.333  20.521  0.00  0.00    +0.000 NA
ATOM     33  S   UNL     1       1.904   3.378  21.680  0.00  0.00    +0.000 S 
ATOM     34  N   UNL     1       3.061   4.192  20.824  0.00  0.00    +0.000 NA
ATOM     35  C   UNL     1       3.088   3.672  19.585  0.00  0.00    +0.000 A 
ENDBRANCH  24  27
ENDBRANCH  22  24
ENDBRANCH  21  22
ENDBRANCH   4  21
TORSDOF 8
ENDMDL
MODEL 6
REMARK VINA RESULT:      -7.4      1.533      2.000
REMARK  Name = 
REMARK  10 active torsions:
REMARK  status: ('A' for Active; 'I' for Inactive)
REMARK    1  A    between atoms: C_1  and  C_2
REMARK    2  A    between atoms: C_2  and  C_3
REMARK    3  A    between atoms: C_7  and  C_8
REMARK    4  A    between atoms: C_8  and  C_9
REMARK    5  A    between atoms: C_10  and  N_11
REMARK    6  A    between atoms: C_12  and  C_14
REMARK    7  A    between atoms: C_17  and  C_18
REMARK    8  A    between atoms: C_18  and  N_19
REMARK    9  A    between atoms: N_19  and  S_20
REMARK   10  A    between atoms: S_20  and  C_23
REMARK                            x       y       z     vdW  Elec       q    Type
REMARK                         _______ _______ _______ _____ _____    ______ ____
ROOT
ATOM      1  C   UNL     1       2.065   9.491  19.395  0.00  0.00    +0.000 C 
ATOM      2  C   UNL     1       1.165  10.600  18.805  0.00  0.00    +0.000 C 
ATOM      3  C   UNL     1      -0.345  10.331  18.920  0.00  0.00    +0.000 C 
ATOM      4  C   UNL     1      -0.780   9.958  20.346  0.00  0.00    +0.000 C 
ATOM      5  C   UNL     1       0.081   8.790  20.855  0.00  0.00    +0.000 C 
ATOM      6  C   UNL     1       1.586   9.064  20.790  0.00  0.00    +0.000 C 
ENDROOT
BRANCH   1   8
ATOM      7  N   UNL     1       2.752   7.160  18.961  0.00  0.00    +0.000 N 
ATOM      8  C   UNL     1       2.139   8.288  18.435  0.00  0.00    +0.000 C 
ATOM      9  O   UNL     1       1.630   8.410  17.330  0.00  0.00    +0.000 OA
ATOM     10  H   UNL     1       3.026   7.269  19.926  0.00  0.00    +0.000 HD
BRANCH   7  16
ATOM     11  C   UNL     1       2.332   4.751  18.996  0.00  0.00    +0.000 A 
ATOM     12  C   UNL     1       2.484   3.442  18.484  0.00  0.00    +0.000 A 
ATOM     13  C   UNL     1       3.330   3.184  17.428  0.00  0.00    +0.000 A 
ATOM     14  C   UNL     1       4.050   4.230  16.878  0.00  0.00    +0.000 A 
ATOM     15  C   UNL     1       3.934   5.566  17.340  0.00  0.00    +0.000 A 
ATOM     16  C   UNL     1       3.030   5.858  18.405  0.00  0.00    +0.000 A 
BRANCH  11  18
ATOM     17  C   UNL     1       0.963   3.438  20.624  0.00  0.00    +0.000 C 
ATOM     18  C   UNL     1       1.474   4.822  20.247  0.00  0.00    +0.000 C 
ENDBRANCH  11  18
BRANCH  15  19
ATOM     19  C   UNL     1       4.820   6.587  16.654  0.00  0.00    +0.000 C 
ATOM     20  C   UNL     1       6.229   6.844  17.185  0.00  0.00    +0.000 C 
ENDBRANCH  15  19
ENDBRANCH   7  16
ENDBRANCH   1   8
BRANCH   4  21
ATOM     21  C   UNL     1      -0.742  11.227  21.211  0.00  0.00    +0.000 C 
BRANCH  21  22
ATOM     22  N   UNL     1      -1.655  12.267  20.732  0.00  0.00    +0.000 NA
ATOM     23  H   UNL     1      -2.139  12.111  19.848  0.00  0.00    +0.000 HD
BRANCH  22  24
ATOM     24  S   UNL     1      -2.744  12.880  21.874  0.00  0.00    +0.000 S 
ATOM     25  O   UNL     1      -2.659  11.962  22.990  0.00  0.00    +0.000 OA
ATOM     26  O   UNL     1      -2.488  14.288  22.068  0.00  0.00    +0.000 OA
BRANCH  24  27
ATOM     27  C   UNL     1      -4.302  12.633  21.112  0.00  0.00    +0.000 A 
ATOM     28  C   UNL     1      -4.371  12.429  19.713  0.00  0.00    +0.000 A 
ATOM     29  C   UNL     1      -5.582  12.192  19.025  0.00  0.00    +0.000 A 
ATOM     30  C   UNL     1      -6.826  12.136  19.671  0.00  0.00    +0.000 A 
ATOM     31  C   UNL     1      -6.816  12.327  21.078  0.00  0.00    +0.000 A 
ATOM     32  N   UNL     1      -7.895  12.307  21.873  0.00  0.00    +0.000 NA
ATOM     33  S   UNL     1      -7.351  12.575  23.416  0.00  0.00    +0.000 S 
ATOM     34  N   UNL     1      -5.730  12.748  23.141  0.00  0.00    +0.000 NA
ATOM     35  C   UNL     1      -5.522  12.582  21.824  0.00  0.00    +0.000 A 
ENDBRANCH  24  27
ENDBRANCH  22  24
ENDBRANCH  21  22
ENDBRANCH   4  21
TORSDOF 8
ENDMDL
MODEL 7
REMARK VINA RESULT:      -7.4      1.758      3.139
REMARK  Name = 
REMARK  10 active torsions:
REMARK  status: ('A' for Active; 'I' for Inactive)
REMARK    1  A    between atoms: C_1  and  C_2
REMARK    2  A    between atoms: C_2  and  C_3
REMARK    3  A    between atoms: C_7  and  C_8
REMARK    4  A    between atoms: C_8  and  C_9
REMARK    5  A    between atoms: C_10  and  N_11
REMARK    6  A    between atoms: C_12  and  C_14
REMARK    7  A    between atoms: C_17  and  C_18
REMARK    8  A    between atoms: C_18  and  N_19
REMARK    9  A    between atoms: N_19  and  S_20
REMARK   10  A    between atoms: S_20  and  C_23
REMARK                            x       y       z     vdW  Elec       q    Type
REMARK                         _______ _______ _______ _____ _____    ______ ____
ROOT
ATOM      1  C   UNL     1       1.942   9.292  19.603  0.00  0.00    +0.000 C 
ATOM      2  C   UNL     1       1.178  10.444  18.914  0.00  0.00    +0.000 C 
ATOM      3  C   UNL     1      -0.352  10.287  18.907  0.00  0.00    +0.000 C 
ATOM      4  C   UNL     1      -0.930   9.987  20.300  0.00  0.00    +0.000 C 
ATOM      5  C   UNL     1      -0.202   8.776  20.906  0.00  0.00    +0.000 C 
ATOM      6  C   UNL     1       1.320   8.940  20.962  0.00  0.00    +0.000 C 
ENDROOT
BRANCH   1   8
ATOM      7  N   UNL     1       2.660   6.961  19.222  0.00  0.00    +0.000 N 
ATOM      8  C   UNL     1       2.007   8.060  18.682  0.00  0.00    +0.000 C 
ATOM      9  O   UNL     1       1.458   8.135  17.591  0.00  0.00    +0.000 OA
ATOM     10  H   UNL     1       2.964   7.107  20.173  0.00  0.00    +0.000 HD
BRANCH   7  16
ATOM     11  C   UNL     1       3.935   5.573  17.662  0.00  0.00    +0.000 A 
ATOM     12  C   UNL     1       4.332   4.327  17.127  0.00  0.00    +0.000 A 
ATOM     13  C   UNL     1       3.759   3.151  17.558  0.00  0.00    +0.000 A 
ATOM     14  C   UNL     1       2.766   3.205  18.521  0.00  0.00    +0.000 A 
ATOM     15  C   UNL     1       2.330   4.422  19.103  0.00  0.00    +0.000 A 
ATOM     16  C   UNL     1       2.943   5.647  18.700  0.00  0.00    +0.000 A 
BRANCH  11  18
ATOM     17  C   UNL     1       5.273   6.330  15.692  0.00  0.00    +0.000 C 
ATOM     18  C   UNL     1       4.567   6.767  16.969  0.00  0.00    +0.000 C 
ENDBRANCH  11  18
BRANCH  15  19
ATOM     19  C   UNL     1       1.208   4.312  20.117  0.00  0.00    +0.000 C 
ATOM     20  C   UNL     1       1.127   3.087  21.026  0.00  0.00    +0.000 C 
ENDBRANCH  15  19
ENDBRANCH   7  16
ENDBRANCH   1   8
BRANCH   4  21
ATOM     21  C   UNL     1      -0.871  11.275  21.136  0.00  0.00    +0.000 C 
BRANCH  21  22
ATOM     22  N   UNL     1      -1.244  12.466  20.369  0.00  0.00    +0.000 NA
ATOM     23  H   UNL     1      -1.484  12.347  19.385  0.00  0.00    +0.000 HD
BRANCH  22  24
ATOM     24  S   UNL     1      -2.365  13.498  21.106  0.00  0.00    +0.000 S 
ATOM     25  O   UNL     1      -2.176  13.291  22.526  0.00  0.00    +0.000 OA
ATOM     26  O   UNL     1      -2.238  14.821  20.540  0.00  0.00    +0.000 OA
BRANCH  24  27
ATOM     27  C   UNL     1      -3.907  12.786  20.675  0.00  0.00    +0.000 A 
ATOM     28  C   UNL     1      -4.981  12.836  21.595  0.00  0.00    +0.000 A 
ATOM     29  C   UNL     1      -6.263  12.314  21.316  0.00  0.00    +0.000 A 
ATOM     30  C   UNL     1      -6.587  11.701  20.097  0.00  0.00    +0.000 A 
ATOM     31  C   UNL     1      -5.548  11.629  19.132  0.00  0.00    +0.000 A 
ATOM     32  N   UNL     1      -5.657  11.087  17.911  0.00  0.00    +0.000 NA
ATOM     33  S   UNL     1      -4.178  11.257  17.182  0.00  0.00    +0.000 S 
ATOM     34  N   UNL     1      -3.330  12.007  18.388  0.00  0.00    +0.000 NA
ATOM     35  C   UNL     1      -4.169  12.185  19.423  0.00  0.00    +0.000 A 
ENDBRANCH  24  27
ENDBRANCH  22  24
ENDBRANCH  21  22
ENDBRANCH   4  21
TORSDOF 8
ENDMDL
MODEL 8
REMARK VINA RESULT:      -7.4      3.844     10.635
REMARK  Name = 
REMARK  10 active torsions:
REMARK  status: ('A' for Active; 'I' for Inactive)
REMARK    1  A    between atoms: C_1  and  C_2
REMARK    2  A    between atoms: C_2  and  C_3
REMARK    3  A    between atoms: C_7  and  C_8
REMARK    4  A    between atoms: C_8  and  C_9
REMARK    5  A    between atoms: C_10  and  N_11
REMARK    6  A    between atoms: C_12  and  C_14
REMARK    7  A    between atoms: C_17  and  C_18
REMARK    8  A    between atoms: C_18  and  N_19
REMARK    9  A    between atoms: N_19  and  S_20
REMARK   10  A    between atoms: S_20  and  C_23
REMARK                            x       y       z     vdW  Elec       q    Type
REMARK                         _______ _______ _______ _____ _____    ______ ____
ROOT
ATOM      1  C   UNL     1       1.129  10.019  20.458  0.00  0.00    +0.000 C 
ATOM      2  C   UNL     1       1.449   8.777  21.321  0.00  0.00    +0.000 C 
ATOM      3  C   UNL     1       1.042   7.435  20.691  0.00  0.00    +0.000 C 
ATOM      4  C   UNL     1       1.561   7.266  19.254  0.00  0.00    +0.000 C 
ATOM      5  C   UNL     1       1.140   8.481  18.411  0.00  0.00    +0.000 C 
ATOM      6  C   UNL     1       1.580   9.822  19.004  0.00  0.00    +0.000 C 
ENDROOT
BRANCH   1   8
ATOM      7  N   UNL     1      -0.909  10.897  19.378  0.00  0.00    +0.000 N 
ATOM      8  C   UNL     1      -0.371  10.360  20.538  0.00  0.00    +0.000 C 
ATOM      9  O   UNL     1      -0.959  10.101  21.579  0.00  0.00    +0.000 OA
ATOM     10  H   UNL     1      -0.247  10.947  18.618  0.00  0.00    +0.000 HD
BRANCH   7  16
ATOM     11  C   UNL     1      -2.841  10.762  17.882  0.00  0.00    +0.000 A 
ATOM     12  C   UNL     1      -4.162  11.092  17.506  0.00  0.00    +0.000 A 
ATOM     13  C   UNL     1      -4.897  12.013  18.218  0.00  0.00    +0.000 A 
ATOM     14  C   UNL     1      -4.314  12.631  19.310  0.00  0.00    +0.000 A 
ATOM     15  C   UNL     1      -2.998  12.337  19.745  0.00  0.00    +0.000 A 
ATOM     16  C   UNL     1      -2.236  11.353  19.044  0.00  0.00    +0.000 A 
BRANCH  11  18
ATOM     17  C   UNL     1      -2.893   9.789  15.581  0.00  0.00    +0.000 C 
ATOM     18  C   UNL     1      -2.136   9.841  16.902  0.00  0.00    +0.000 C 
ENDBRANCH  11  18
BRANCH  15  19
ATOM     19  C   UNL     1      -2.495  13.129  20.936  0.00  0.00    +0.000 C 
ATOM     20  C   UNL     1      -2.955  12.752  22.344  0.00  0.00    +0.000 C 
ENDBRANCH  15  19
ENDBRANCH   7  16
ENDBRANCH   1   8
BRANCH   4  21
ATOM     21  C   UNL     1       3.074   7.003  19.314  0.00  0.00    +0.000 C 
BRANCH  21  22
ATOM     22  N   UNL     1       3.408   5.780  20.049  0.00  0.00    +0.000 NA
ATOM     23  H   UNL     1       3.061   5.684  21.003  0.00  0.00    +0.000 HD
BRANCH  22  24
ATOM     24  S   UNL     1       3.176   4.327  19.213  0.00  0.00    +0.000 S 
ATOM     25  O   UNL     1       3.453   3.294  20.189  0.00  0.00    +0.000 OA
ATOM     26  O   UNL     1       1.901   4.365  18.536  0.00  0.00    +0.000 OA
BRANCH  24  27
ATOM     27  C   UNL     1       4.492   4.319  18.056  0.00  0.00    +0.000 A 
ATOM     28  C   UNL     1       4.250   3.896  16.727  0.00  0.00    +0.000 A 
ATOM     29  C   UNL     1       5.247   3.887  15.725  0.00  0.00    +0.000 A 
ATOM     30  C   UNL     1       6.566   4.302  15.960  0.00  0.00    +0.000 A 
ATOM     31  C   UNL     1       6.863   4.744  17.276  0.00  0.00    +0.000 A 
ATOM     32  N   UNL     1       8.058   5.180  17.698  0.00  0.00    +0.000 NA
ATOM     33  S   UNL     1       7.880   5.578  19.297  0.00  0.00    +0.000 S 
ATOM     34  N   UNL     1       6.288   5.195  19.530  0.00  0.00    +0.000 NA
ATOM     35  C   UNL     1       5.802   4.756  18.357  0.00  0.00    +0.000 A 
ENDBRANCH  24  27
ENDBRANCH  22  24
ENDBRANCH  21  22
ENDBRANCH   4  21
TORSDOF 8
ENDMDL
MODEL 9
REMARK VINA RESULT:      -7.4      1.603      1.851
REMARK  Name = 
REMARK  10 active torsions:
REMARK  status: ('A' for Active; 'I' for Inactive)
REMARK    1  A    between atoms: C_1  and  C_2
REMARK    2  A    between atoms: C_2  and  C_3
REMARK    3  A    between atoms: C_7  and  C_8
REMARK    4  A    between atoms: C_8  and  C_9
REMARK    5  A    between atoms: C_10  and  N_11
REMARK    6  A    between atoms: C_12  and  C_14
REMARK    7  A    between atoms: C_17  and  C_18
REMARK    8  A    between atoms: C_18  and  N_19
REMARK    9  A    between atoms: N_19  and  S_20
REMARK   10  A    between atoms: S_20  and  C_23
REMARK                            x       y       z     vdW  Elec       q    Type
REMARK                         _______ _______ _______ _____ _____    ______ ____
ROOT
ATOM      1  C   UNL     1       2.017   8.981  19.890  0.00  0.00    +0.000 C 
ATOM      2  C   UNL     1       1.243  10.202  19.347  0.00  0.00    +0.000 C 
ATOM      3  C   UNL     1      -0.288  10.056  19.373  0.00  0.00    +0.000 C 
ATOM      4  C   UNL     1      -0.825   9.619  20.745  0.00  0.00    +0.000 C 
ATOM      5  C   UNL     1      -0.090   8.349  21.202  0.00  0.00    +0.000 C 
ATOM      6  C   UNL     1       1.434   8.497  21.226  0.00  0.00    +0.000 C 
ENDROOT
BRANCH   1   8
ATOM      7  N   UNL     1       2.495   6.626  19.323  0.00  0.00    +0.000 N 
ATOM      8  C   UNL     1       2.042   7.848  18.847  0.00  0.00    +0.000 C 
ATOM      9  O   UNL     1       1.633   8.102  17.722  0.00  0.00    +0.000 OA
ATOM     10  H   UNL     1       2.703   6.636  20.310  0.00  0.00    +0.000 HD
BRANCH   7  16
ATOM     11  C   UNL     1       1.924   4.249  19.227  0.00  0.00    +0.000 A 
ATOM     12  C   UNL     1       1.985   2.967  18.637  0.00  0.00    +0.000 A 
ATOM     13  C   UNL     1       2.793   2.720  17.550  0.00  0.00    +0.000 A 
ATOM     14  C   UNL     1       3.567   3.750  17.046  0.00  0.00    +0.000 A 
ATOM     15  C   UNL     1       3.544   5.060  17.586  0.00  0.00    +0.000 A 
ATOM     16  C   UNL     1       2.680   5.345  18.687  0.00  0.00    +0.000 A 
BRANCH  11  18
ATOM     17  C   UNL     1       1.297   3.031  21.318  0.00  0.00    +0.000 C 
ATOM     18  C   UNL     1       1.095   4.299  20.499  0.00  0.00    +0.000 C 
ENDBRANCH  11  18
BRANCH  15  19
ATOM     19  C   UNL     1       4.479   6.064  16.942  0.00  0.00    +0.000 C 
ATOM     20  C   UNL     1       5.797   6.419  17.629  0.00  0.00    +0.000 C 
ENDBRANCH  15  19
ENDBRANCH   7  16
ENDBRANCH   1   8
BRANCH   4  21
ATOM     21  C   UNL     1      -0.727  10.815  21.705  0.00  0.00    +0.000 C 
BRANCH  21  22
ATOM     22  N   UNL     1      -1.588  11.932  21.309  0.00  0.00    +0.000 NA
ATOM     23  H   UNL     1      -2.554  11.932  21.634  0.00  0.00    +0.000 HD
BRANCH  22  24
ATOM     24  S   UNL     1      -0.926  13.479  21.497  0.00  0.00    +0.000 S 
ATOM     25  O   UNL     1       0.421  13.246  21.973  0.00  0.00    +0.000 OA
ATOM     26  O   UNL     1      -1.150  14.243  20.292  0.00  0.00    +0.000 OA
BRANCH  24  27
ATOM     27  C   UNL     1      -1.844  14.145  22.832  0.00  0.00    +0.000 A 
ATOM     28  C   UNL     1      -1.161  14.677  23.952  0.00  0.00    +0.000 A 
ATOM     29  C   UNL     1      -1.823  15.259  25.056  0.00  0.00    +0.000 A 
ATOM     30  C   UNL     1      -3.219  15.367  25.137  0.00  0.00    +0.000 A 
ATOM     31  C   UNL     1      -3.956  14.856  24.036  0.00  0.00    +0.000 A 
ATOM     32  N   UNL     1      -5.291  14.867  23.923  0.00  0.00    +0.000 NA
ATOM     33  S   UNL     1      -5.648  14.164  22.464  0.00  0.00    +0.000 S 
ATOM     34  N   UNL     1      -4.129  13.798  21.923  0.00  0.00    +0.000 NA
ATOM     35  C   UNL     1      -3.255  14.228  22.849  0.00  0.00    +0.000 A 
ENDBRANCH  24  27
ENDBRANCH  22  24
ENDBRANCH  21  22
ENDBRANCH   4  21
TORSDOF 8
ENDMDL
