MODEL 1
REMARK VINA RESULT:      -7.3      0.000      0.000
REMARK  Name = 
REMARK  6 active torsions:
REMARK  status: ('A' for Active; 'I' for Inactive)
REMARK    1  A    between atoms: C_1  and  C_2
REMARK    2  A    between atoms: C_4  and  C_5
REMARK    3  A    between atoms: N_9  and  S_10
REMARK    4  A    between atoms: S_10  and  C_13
REMARK    5  A    between atoms: C_13  and  C_14
REMARK    6  A    between atoms: C_14  and  N_15
REMARK                            x       y       z     vdW  Elec       q    Type
REMARK                         _______ _______ _______ _____ _____    ______ ____
ROOT
ATOM      1  C   UNL     1       7.015   4.739  16.305  0.00  0.00    +0.000 C 
ATOM      2  C   UNL     1       6.713   5.182  14.878  0.00  0.00    +0.000 C 
ATOM      3  C   UNL     1       6.051   3.960  14.279  0.00  0.00    +0.000 C 
ATOM      4  C   UNL     1       5.320   3.287  15.439  0.00  0.00    +0.000 C 
ATOM      5  N   UNL     1       5.774   3.949  16.705  0.00  0.00    +0.000 NA
ENDROOT
BRANCH   1   9
ATOM      6  C   UNL     1       8.182   9.237  18.025  0.00  0.00    +0.000 C 
ATOM      7  C   UNL     1       7.945   7.799  17.823  0.00  0.00    +0.000 A 
ATOM      8  N   UNL     1       7.560   7.164  16.741  0.00  0.00    +0.000 NA
ATOM      9  C   UNL     1       7.448   5.868  17.190  0.00  0.00    +0.000 A 
ATOM     10  N   UNL     1       7.845   5.681  18.459  0.00  0.00    +0.000 NA
ATOM     11  O   UNL     1       8.156   6.976  18.890  0.00  0.00    +0.000 OA
ENDBRANCH   1   9
BRANCH   5  12
ATOM     12  S   UNL     1       4.576   4.822  17.536  0.00  0.00    +0.000 S 
ATOM     13  O   UNL     1       4.898   4.804  18.943  0.00  0.00    +0.000 OA
ATOM     14  O   UNL     1       4.394   6.069  16.820  0.00  0.00    +0.000 OA
BRANCH  12  15
ATOM     15  C   UNL     1       3.061   3.844  17.347  0.00  0.00    +0.000 C 
BRANCH  15  16
ATOM     16  C   UNL     1       2.006   4.532  18.227  0.00  0.00    +0.000 C 
BRANCH  16  17
ATOM     17  N   UNL     1       1.251   3.704  19.194  0.00  0.00    +0.000 NA
ATOM     18  C   UNL     1       1.044   4.502  20.430  0.00  0.00    +0.000 C 
ATOM     19  C   UNL     1       2.284   4.249  21.267  0.00  0.00    +0.000 C 
ATOM     20  C   UNL     1       2.486   2.763  21.065  0.00  0.00    +0.000 C 
ATOM     21  C   UNL     1       1.982   2.499  19.645  0.00  0.00    +0.000 C 
ENDBRANCH  16  17
ENDBRANCH  15  16
ENDBRANCH  12  15
ENDBRANCH   5  12
TORSDOF 5
ENDMDL
MODEL 2
REMARK VINA RESULT:      -7.1      0.971      1.302
REMARK  Name = 
REMARK  6 active torsions:
REMARK  status: ('A' for Active; 'I' for Inactive)
REMARK    1  A    between atoms: C_1  and  C_2
REMARK    2  A    between atoms: C_4  and  C_5
REMARK    3  A    between atoms: N_9  and  S_10
REMARK    4  A    between atoms: S_10  and  C_13
REMARK    5  A    between atoms: C_13  and  C_14
REMARK    6  A    between atoms: C_14  and  N_15
REMARK                            x       y       z     vdW  Elec       q    Type
REMARK                         _______ _______ _______ _____ _____    ______ ____
ROOT
ATOM      1  C   UNL     1       6.852   4.932  16.935  0.00  0.00    +0.000 C 
ATOM      2  C   UNL     1       6.806   5.043  15.415  0.00  0.00    +0.000 C 
ATOM      3  C   UNL     1       5.947   3.862  15.018  0.00  0.00    +0.000 C 
ATOM      4  C   UNL     1       4.967   3.668  16.174  0.00  0.00    +0.000 C 
ATOM      5  N   UNL     1       5.429   4.532  17.308  0.00  0.00    +0.000 NA
ENDROOT
BRANCH   1   9
ATOM      6  C   UNL     1       8.354   9.561  17.873  0.00  0.00    +0.000 C 
ATOM      7  C   UNL     1       8.063   8.118  17.893  0.00  0.00    +0.000 A 
ATOM      8  N   UNL     1       7.501   7.371  16.973  0.00  0.00    +0.000 NA
ATOM      9  C   UNL     1       7.440   6.144  17.592  0.00  0.00    +0.000 A 
ATOM     10  N   UNL     1       8.030   6.098  18.798  0.00  0.00    +0.000 NA
ATOM     11  O   UNL     1       8.427   7.423  19.009  0.00  0.00    +0.000 OA
ENDBRANCH   1   9
BRANCH   5  12
ATOM     12  S   UNL     1       4.384   5.809  17.719  0.00  0.00    +0.000 S 
ATOM     13  O   UNL     1       4.729   6.266  19.043  0.00  0.00    +0.000 OA
ATOM     14  O   UNL     1       4.365   6.715  16.588  0.00  0.00    +0.000 OA
BRANCH  12  15
ATOM     15  C   UNL     1       2.742   5.051  17.853  0.00  0.00    +0.000 C 
BRANCH  15  16
ATOM     16  C   UNL     1       2.390   5.078  19.348  0.00  0.00    +0.000 C 
BRANCH  16  17
ATOM     17  N   UNL     1       2.923   4.003  20.214  0.00  0.00    +0.000 NA
ATOM     18  C   UNL     1       2.694   2.701  19.535  0.00  0.00    +0.000 C 
ATOM     19  C   UNL     1       1.301   2.280  19.967  0.00  0.00    +0.000 C 
ATOM     20  C   UNL     1       1.316   2.647  21.435  0.00  0.00    +0.000 C 
ATOM     21  C   UNL     1       2.222   3.877  21.511  0.00  0.00    +0.000 C 
ENDBRANCH  16  17
ENDBRANCH  15  16
ENDBRANCH  12  15
ENDBRANCH   5  12
TORSDOF 5
ENDMDL
MODEL 3
REMARK VINA RESULT:      -6.8      1.078      1.588
REMARK  Name = 
REMARK  6 active torsions:
REMARK  status: ('A' for Active; 'I' for Inactive)
REMARK    1  A    between atoms: C_1  and  C_2
REMARK    2  A    between atoms: C_4  and  C_5
REMARK    3  A    between atoms: N_9  and  S_10
REMARK    4  A    between atoms: S_10  and  C_13
REMARK    5  A    between atoms: C_13  and  C_14
REMARK    6  A    between atoms: C_14  and  N_15
REMARK                            x       y       z     vdW  Elec       q    Type
REMARK                         _______ _______ _______ _____ _____    ______ ____
ROOT
ATOM      1  C   UNL     1       6.945   4.692  16.366  0.00  0.00    +0.000 C 
ATOM      2  C   UNL     1       6.740   5.118  14.916  0.00  0.00    +0.000 C 
ATOM      3  C   UNL     1       6.028   3.927  14.313  0.00  0.00    +0.000 C 
ATOM      4  C   UNL     1       5.201   3.332  15.452  0.00  0.00    +0.000 C 
ATOM      5  N   UNL     1       5.638   3.995  16.722  0.00  0.00    +0.000 NA
ENDROOT
BRANCH   1   9
ATOM      6  C   UNL     1       8.252   9.162  18.060  0.00  0.00    +0.000 C 
ATOM      7  C   UNL     1       7.968   7.731  17.867  0.00  0.00    +0.000 A 
ATOM      8  N   UNL     1       7.569   7.101  16.788  0.00  0.00    +0.000 NA
ATOM      9  C   UNL     1       7.411   5.813  17.245  0.00  0.00    +0.000 A 
ATOM     10  N   UNL     1       7.792   5.622  18.519  0.00  0.00    +0.000 NA
ATOM     11  O   UNL     1       8.144   6.909  18.942  0.00  0.00    +0.000 OA
ENDBRANCH   1   9
BRANCH   5  12
ATOM     12  S   UNL     1       4.462   4.965  17.475  0.00  0.00    +0.000 S 
ATOM     13  O   UNL     1       4.802   6.348  17.243  0.00  0.00    +0.000 OA
ATOM     14  O   UNL     1       3.171   4.430  17.094  0.00  0.00    +0.000 OA
BRANCH  12  15
ATOM     15  C   UNL     1       4.681   4.679  19.253  0.00  0.00    +0.000 C 
BRANCH  15  16
ATOM     16  C   UNL     1       4.083   3.291  19.530  0.00  0.00    +0.000 C 
BRANCH  16  17
ATOM     17  N   UNL     1       3.084   3.161  20.615  0.00  0.00    +0.000 NA
ATOM     18  C   UNL     1       2.003   2.255  20.148  0.00  0.00    +0.000 C 
ATOM     19  C   UNL     1       1.021   3.162  19.430  0.00  0.00    +0.000 C 
ATOM     20  C   UNL     1       0.985   4.360  20.354  0.00  0.00    +0.000 C 
ATOM     21  C   UNL     1       2.395   4.428  20.945  0.00  0.00    +0.000 C 
ENDBRANCH  16  17
ENDBRANCH  15  16
ENDBRANCH  12  15
ENDBRANCH   5  12
TORSDOF 5
ENDMDL
MODEL 4
REMARK VINA RESULT:      -6.6      0.991      1.401
REMARK  Name = 
REMARK  6 active torsions:
REMARK  status: ('A' for Active; 'I' for Inactive)
REMARK    1  A    between atoms: C_1  and  C_2
REMARK    2  A    between atoms: C_4  and  C_5
REMARK    3  A    between atoms: N_9  and  S_10
REMARK    4  A    between atoms: S_10  and  C_13
REMARK    5  A    between atoms: C_13  and  C_14
REMARK    6  A    between atoms: C_14  and  N_15
REMARK                            x       y       z     vdW  Elec       q    Type
REMARK                         _______ _______ _______ _____ _____    ______ ____
ROOT
ATOM      1  C   UNL     1       6.572   5.095  16.824  0.00  0.00    +0.000 C 
ATOM      2  C   UNL     1       6.225   5.429  15.377  0.00  0.00    +0.000 C 
ATOM      3  C   UNL     1       5.298   4.300  14.984  0.00  0.00    +0.000 C 
ATOM      4  C   UNL     1       4.567   3.911  16.268  0.00  0.00    +0.000 C 
ATOM      5  N   UNL     1       5.250   4.608  17.405  0.00  0.00    +0.000 NA
ENDROOT
BRANCH   1   9
ATOM      6  C   UNL     1       8.451   9.526  18.002  0.00  0.00    +0.000 C 
ATOM      7  C   UNL     1       8.063   8.108  17.932  0.00  0.00    +0.000 A 
ATOM      8  N   UNL     1       7.389   7.476  17.001  0.00  0.00    +0.000 NA
ATOM      9  C   UNL     1       7.285   6.209  17.527  0.00  0.00    +0.000 A 
ATOM     10  N   UNL     1       7.952   6.027  18.680  0.00  0.00    +0.000 NA
ATOM     11  O   UNL     1       8.453   7.303  18.962  0.00  0.00    +0.000 OA
ENDBRANCH   1   9
BRANCH   5  12
ATOM     12  S   UNL     1       4.315   5.782  18.203  0.00  0.00    +0.000 S 
ATOM     13  O   UNL     1       4.801   5.904  19.557  0.00  0.00    +0.000 OA
ATOM     14  O   UNL     1       4.242   6.929  17.321  0.00  0.00    +0.000 OA
BRANCH  12  15
ATOM     15  C   UNL     1       2.654   5.064  18.321  0.00  0.00    +0.000 C 
BRANCH  15  16
ATOM     16  C   UNL     1       2.388   4.867  19.821  0.00  0.00    +0.000 C 
BRANCH  16  17
ATOM     17  N   UNL     1       1.325   3.921  20.227  0.00  0.00    +0.000 NA
ATOM     18  C   UNL     1       1.971   2.706  20.789  0.00  0.00    +0.000 C 
ATOM     19  C   UNL     1       2.228   1.815  19.588  0.00  0.00    +0.000 C 
ATOM     20  C   UNL     1       0.945   1.986  18.804  0.00  0.00    +0.000 C 
ATOM     21  C   UNL     1       0.508   3.422  19.099  0.00  0.00    +0.000 C 
ENDBRANCH  16  17
ENDBRANCH  15  16
ENDBRANCH  12  15
ENDBRANCH   5  12
TORSDOF 5
ENDMDL
MODEL 5
REMARK VINA RESULT:      -6.3      0.893      1.297
REMARK  Name = 
REMARK  6 active torsions:
REMARK  status: ('A' for Active; 'I' for Inactive)
REMARK    1  A    between atoms: C_1  and  C_2
REMARK    2  A    between atoms: C_4  and  C_5
REMARK    3  A    between atoms: N_9  and  S_10
REMARK    4  A    between atoms: S_10  and  C_13
REMARK    5  A    between atoms: C_13  and  C_14
REMARK    6  A    between atoms: C_14  and  N_15
REMARK                            x       y       z     vdW  Elec       q    Type
REMARK                         _______ _______ _______ _____ _____    ______ ____
ROOT
ATOM      1  C   UNL     1       7.110   4.990  16.206  0.00  0.00    +0.000 C 
ATOM      2  C   UNL     1       6.491   5.458  14.893  0.00  0.00    +0.000 C 
ATOM      3  C   UNL     1       5.901   4.185  14.327  0.00  0.00    +0.000 C 
ATOM      4  C   UNL     1       5.496   3.352  15.542  0.00  0.00    +0.000 C 
ATOM      5  N   UNL     1       6.083   4.007  16.755  0.00  0.00    +0.000 NA
ENDROOT
BRANCH   1   9
ATOM      6  C   UNL     1       8.002   9.517  18.015  0.00  0.00    +0.000 C 
ATOM      7  C   UNL     1       7.905   8.071  17.759  0.00  0.00    +0.000 A 
ATOM      8  N   UNL     1       7.431   7.442  16.710  0.00  0.00    +0.000 NA
ATOM      9  C   UNL     1       7.544   6.124  17.085  0.00  0.00    +0.000 A 
ATOM     10  N   UNL     1       8.157   5.930  18.265  0.00  0.00    +0.000 NA
ATOM     11  O   UNL     1       8.379   7.233  18.726  0.00  0.00    +0.000 OA
ENDBRANCH   1   9
BRANCH   5  12
ATOM     12  S   UNL     1       4.954   4.651  17.850  0.00  0.00    +0.000 S 
ATOM     13  O   UNL     1       5.637   4.935  19.090  0.00  0.00    +0.000 OA
ATOM     14  O   UNL     1       4.221   5.679  17.140  0.00  0.00    +0.000 OA
BRANCH  12  15
ATOM     15  C   UNL     1       3.807   3.291  18.201  0.00  0.00    +0.000 C 
BRANCH  15  16
ATOM     16  C   UNL     1       3.831   3.105  19.726  0.00  0.00    +0.000 C 
BRANCH  16  17
ATOM     17  N   UNL     1       3.007   4.011  20.556  0.00  0.00    +0.000 NA
ATOM     18  C   UNL     1       2.391   3.213  21.648  0.00  0.00    +0.000 C 
ATOM     19  C   UNL     1       1.102   2.676  21.055  0.00  0.00    +0.000 C 
ATOM     20  C   UNL     1       0.593   3.882  20.297  0.00  0.00    +0.000 C 
ATOM     21  C   UNL     1       1.860   4.604  19.834  0.00  0.00    +0.000 C 
ENDBRANCH  16  17
ENDBRANCH  15  16
ENDBRANCH  12  15
ENDBRANCH   5  12
TORSDOF 5
ENDMDL
MODEL 6
REMARK VINA RESULT:      -6.2      1.047      1.190
REMARK  Name = 
REMARK  6 active torsions:
REMARK  status: ('A' for Active; 'I' for Inactive)
REMARK    1  A    between atoms: C_1  and  C_2
REMARK    2  A    between atoms: C_4  and  C_5
REMARK    3  A    between atoms: N_9  and  S_10
REMARK    4  A    between atoms: S_10  and  C_13
REMARK    5  A    between atoms: C_13  and  C_14
REMARK    6  A    between atoms: C_14  and  N_15
REMARK                            x       y       z     vdW  Elec       q    Type
REMARK                         _______ _______ _______ _____ _____    ______ ____
ROOT
ATOM      1  C   UNL     1       7.037   4.616  16.065  0.00  0.00    +0.000 C 
ATOM      2  C   UNL     1       6.865   5.110  14.633  0.00  0.00    +0.000 C 
ATOM      3  C   UNL     1       6.239   3.921  13.939  0.00  0.00    +0.000 C 
ATOM      4  C   UNL     1       5.402   3.223  15.009  0.00  0.00    +0.000 C 
ATOM      5  N   UNL     1       5.755   3.835  16.330  0.00  0.00    +0.000 NA
ENDROOT
BRANCH   1   9
ATOM      6  C   UNL     1       8.082   9.040  18.038  0.00  0.00    +0.000 C 
ATOM      7  C   UNL     1       7.861   7.611  17.763  0.00  0.00    +0.000 A 
ATOM      8  N   UNL     1       7.549   7.021  16.634  0.00  0.00    +0.000 NA
ATOM      9  C   UNL     1       7.410   5.708  17.021  0.00  0.00    +0.000 A 
ATOM     10  N   UNL     1       7.723   5.469  18.305  0.00  0.00    +0.000 NA
ATOM     11  O   UNL     1       8.003   6.745  18.807  0.00  0.00    +0.000 OA
ENDBRANCH   1   9
BRANCH   5  12
ATOM     12  S   UNL     1       4.503   4.703  17.086  0.00  0.00    +0.000 S 
ATOM     13  O   UNL     1       4.720   6.110  16.846  0.00  0.00    +0.000 OA
ATOM     14  O   UNL     1       3.262   4.056  16.713  0.00  0.00    +0.000 OA
BRANCH  12  15
ATOM     15  C   UNL     1       4.754   4.444  18.863  0.00  0.00    +0.000 C 
BRANCH  15  16
ATOM     16  C   UNL     1       3.776   3.329  19.266  0.00  0.00    +0.000 C 
BRANCH  16  17
ATOM     17  N   UNL     1       2.368   3.696  19.538  0.00  0.00    +0.000 NA
ATOM     18  C   UNL     1       2.341   4.592  20.724  0.00  0.00    +0.000 C 
ATOM     19  C   UNL     1       2.269   3.654  21.915  0.00  0.00    +0.000 C 
ATOM     20  C   UNL     1       1.277   2.621  21.426  0.00  0.00    +0.000 C 
ATOM     21  C   UNL     1       1.516   2.548  19.917  0.00  0.00    +0.000 C 
ENDBRANCH  16  17
ENDBRANCH  15  16
ENDBRANCH  12  15
ENDBRANCH   5  12
TORSDOF 5
ENDMDL
MODEL 7
REMARK VINA RESULT:      -6.2      2.417      6.513
REMARK  Name = 
REMARK  6 active torsions:
REMARK  status: ('A' for Active; 'I' for Inactive)
REMARK    1  A    between atoms: C_1  and  C_2
REMARK    2  A    between atoms: C_4  and  C_5
REMARK    3  A    between atoms: N_9  and  S_10
REMARK    4  A    between atoms: S_10  and  C_13
REMARK    5  A    between atoms: C_13  and  C_14
REMARK    6  A    between atoms: C_14  and  N_15
REMARK                            x       y       z     vdW  Elec       q    Type
REMARK                         _______ _______ _______ _____ _____    ______ ____
ROOT
ATOM      1  C   UNL     1       5.621   4.335  18.826  0.00  0.00    +0.000 C 
ATOM      2  C   UNL     1       6.218   5.641  19.338  0.00  0.00    +0.000 C 
ATOM      3  C   UNL     1       7.663   5.546  18.899  0.00  0.00    +0.000 C 
ATOM      4  C   UNL     1       7.639   4.738  17.603  0.00  0.00    +0.000 C 
ATOM      5  N   UNL     1       6.264   4.162  17.455  0.00  0.00    +0.000 NA
ENDROOT
BRANCH   1   9
ATOM      6  C   UNL     1       0.919   2.790  19.069  0.00  0.00    +0.000 C 
ATOM      7  C   UNL     1       2.171   3.560  18.986  0.00  0.00    +0.000 A 
ATOM      8  N   UNL     1       3.404   3.130  18.864  0.00  0.00    +0.000 NA
ATOM      9  C   UNL     1       4.126   4.301  18.914  0.00  0.00    +0.000 A 
ATOM     10  N   UNL     1       3.378   5.415  18.958  0.00  0.00    +0.000 NA
ATOM     11  O   UNL     1       2.071   4.919  19.029  0.00  0.00    +0.000 OA
ENDBRANCH   1   9
BRANCH   5  12
ATOM     12  S   UNL     1       5.368   4.754  16.137  0.00  0.00    +0.000 S 
ATOM     13  O   UNL     1       4.199   3.923  15.975  0.00  0.00    +0.000 OA
ATOM     14  O   UNL     1       5.255   6.188  16.317  0.00  0.00    +0.000 OA
BRANCH  12  15
ATOM     15  C   UNL     1       6.411   4.456  14.684  0.00  0.00    +0.000 C 
BRANCH  15  16
ATOM     16  C   UNL     1       5.541   3.656  13.701  0.00  0.00    +0.000 C 
BRANCH  16  17
ATOM     17  N   UNL     1       5.787   3.823  12.251  0.00  0.00    +0.000 NA
ATOM     18  C   UNL     1       4.980   2.810  11.522  0.00  0.00    +0.000 C 
ATOM     19  C   UNL     1       5.863   1.577  11.472  0.00  0.00    +0.000 C 
ATOM     20  C   UNL     1       7.214   2.184  11.161  0.00  0.00    +0.000 C 
ATOM     21  C   UNL     1       7.184   3.551  11.848  0.00  0.00    +0.000 C 
ENDBRANCH  16  17
ENDBRANCH  15  16
ENDBRANCH  12  15
ENDBRANCH   5  12
TORSDOF 5
ENDMDL
MODEL 8
REMARK VINA RESULT:      -6.2      2.244      4.009
REMARK  Name = 
REMARK  6 active torsions:
REMARK  status: ('A' for Active; 'I' for Inactive)
REMARK    1  A    between atoms: C_1  and  C_2
REMARK    2  A    between atoms: C_4  and  C_5
REMARK    3  A    between atoms: N_9  and  S_10
REMARK    4  A    between atoms: S_10  and  C_13
REMARK    5  A    between atoms: C_13  and  C_14
REMARK    6  A    between atoms: C_14  and  N_15
REMARK                            x       y       z     vdW  Elec       q    Type
REMARK                         _______ _______ _______ _____ _____    ______ ____
ROOT
ATOM      1  C   UNL     1       7.533   5.423  16.092  0.00  0.00    +0.000 C 
ATOM      2  C   UNL     1       7.568   4.271  17.090  0.00  0.00    +0.000 C 
ATOM      3  C   UNL     1       7.598   4.982  18.424  0.00  0.00    +0.000 C 
ATOM      4  C   UNL     1       6.816   6.278  18.210  0.00  0.00    +0.000 C 
ATOM      5  N   UNL     1       6.585   6.427  16.737  0.00  0.00    +0.000 NA
ENDROOT
BRANCH   1   9
ATOM      6  C   UNL     1       5.742   2.987  12.166  0.00  0.00    +0.000 C 
ATOM      7  C   UNL     1       6.459   3.876  13.095  0.00  0.00    +0.000 A 
ATOM      8  N   UNL     1       6.447   3.891  14.406  0.00  0.00    +0.000 NA
ATOM      9  C   UNL     1       7.243   4.976  14.691  0.00  0.00    +0.000 A 
ATOM     10  N   UNL     1       7.812   5.548  13.617  0.00  0.00    +0.000 NA
ATOM     11  O   UNL     1       7.270   4.827  12.547  0.00  0.00    +0.000 OA
ENDBRANCH   1   9
BRANCH   5  12
ATOM     12  S   UNL     1       4.960   6.331  16.245  0.00  0.00    +0.000 S 
ATOM     13  O   UNL     1       4.798   7.142  15.062  0.00  0.00    +0.000 OA
ATOM     14  O   UNL     1       4.602   4.927  16.253  0.00  0.00    +0.000 OA
BRANCH  12  15
ATOM     15  C   UNL     1       4.020   7.154  17.559  0.00  0.00    +0.000 C 
BRANCH  15  16
ATOM     16  C   UNL     1       2.814   6.244  17.843  0.00  0.00    +0.000 C 
BRANCH  16  17
ATOM     17  N   UNL     1       2.599   5.778  19.232  0.00  0.00    +0.000 NA
ATOM     18  C   UNL     1       3.902   5.309  19.773  0.00  0.00    +0.000 C 
ATOM     19  C   UNL     1       3.991   3.853  19.357  0.00  0.00    +0.000 C 
ATOM     20  C   UNL     1       2.578   3.378  19.616  0.00  0.00    +0.000 C 
ATOM     21  C   UNL     1       1.707   4.603  19.335  0.00  0.00    +0.000 C 
ENDBRANCH  16  17
ENDBRANCH  15  16
ENDBRANCH  12  15
ENDBRANCH   5  12
TORSDOF 5
ENDMDL
MODEL 9
REMARK VINA RESULT:      -6.2      1.390      1.850
REMARK  Name = 
REMARK  6 active torsions:
REMARK  status: ('A' for Active; 'I' for Inactive)
REMARK    1  A    between atoms: C_1  and  C_2
REMARK    2  A    between atoms: C_4  and  C_5
REMARK    3  A    between atoms: N_9  and  S_10
REMARK    4  A    between atoms: S_10  and  C_13
REMARK    5  A    between atoms: C_13  and  C_14
REMARK    6  A    between atoms: C_14  and  N_15
REMARK                            x       y       z     vdW  Elec       q    Type
REMARK                         _______ _______ _______ _____ _____    ______ ____
ROOT
ATOM      1  C   UNL     1       6.931   5.587  16.690  0.00  0.00    +0.000 C 
ATOM      2  C   UNL     1       5.828   6.000  15.721  0.00  0.00    +0.000 C 
ATOM      3  C   UNL     1       5.217   4.675  15.322  0.00  0.00    +0.000 C 
ATOM      4  C   UNL     1       5.378   3.771  16.544  0.00  0.00    +0.000 C 
ATOM      5  N   UNL     1       6.291   4.470  17.505  0.00  0.00    +0.000 NA
ENDROOT
BRANCH   1   9
ATOM      6  C   UNL     1       8.265  10.161  18.053  0.00  0.00    +0.000 C 
ATOM      7  C   UNL     1       8.066   8.709  17.913  0.00  0.00    +0.000 A 
ATOM      8  N   UNL     1       7.433   8.044  16.977  0.00  0.00    +0.000 NA
ATOM      9  C   UNL     1       7.527   6.747  17.428  0.00  0.00    +0.000 A 
ATOM     10  N   UNL     1       8.273   6.594  18.534  0.00  0.00    +0.000 NA
ATOM     11  O   UNL     1       8.616   7.909  18.872  0.00  0.00    +0.000 OA
ENDBRANCH   1   9
BRANCH   5  12
ATOM     12  S   UNL     1       5.574   4.941  18.973  0.00  0.00    +0.000 S 
ATOM     13  O   UNL     1       6.611   5.030  19.974  0.00  0.00    +0.000 OA
ATOM     14  O   UNL     1       4.714   6.068  18.676  0.00  0.00    +0.000 OA
BRANCH  12  15
ATOM     15  C   UNL     1       4.520   3.547  19.454  0.00  0.00    +0.000 C 
BRANCH  15  16
ATOM     16  C   UNL     1       3.245   4.170  20.044  0.00  0.00    +0.000 C 
BRANCH  16  17
ATOM     17  N   UNL     1       2.166   3.263  20.498  0.00  0.00    +0.000 NA
ATOM     18  C   UNL     1       2.311   1.970  19.779  0.00  0.00    +0.000 C 
ATOM     19  C   UNL     1       1.535   2.156  18.488  0.00  0.00    +0.000 C 
ATOM     20  C   UNL     1       0.306   2.889  18.978  0.00  0.00    +0.000 C 
ATOM     21  C   UNL     1       0.807   3.733  20.152  0.00  0.00    +0.000 C 
ENDBRANCH  16  17
ENDBRANCH  15  16
ENDBRANCH  12  15
ENDBRANCH   5  12
TORSDOF 5
ENDMDL
